Initialize SIGNATURE TABLE
ST_SET: 1
ST_WAY: 256
ST_TAG_BIT: 16
ST_TAG_MASK: ffff

Initialize PATTERN TABLE
PT_SET: 512
PT_WAY: 4
SIG_DELTA_BIT: 7
C_SIG_BIT: 4
C_DELTA_BIT: 4

Initialize PREFETCH FILTER
FILTER_SET: 1024

*** ChampSim Multicore Out-of-Order Simulator ***

Warmup Instructions: 200000000
Simulation Instructions: 1000000000
Number of CPUs: 4
LLC sets: 8192
LLC ways: 16
Off-chip DRAM Size: 8192 MB Channels: 2 Width: 64-bit Data Rate: 1600 MT/s

CPU 0 runs /scratch/user/djimenez/champsim-traces/speccpu2006/xz//473.astar-359B.champsimtrace.xz
CPU 1 runs /scratch/user/djimenez/champsim-traces/speccpu2006/xz//471.omnetpp-188B.champsimtrace.xz
CPU 2 runs /scratch/user/djimenez/champsim-traces/speccpu2006/xz//450.soplex-92B.champsimtrace.xz
CPU 3 runs /scratch/user/djimenez/champsim-traces/speccpu2006/xz//429.mcf-22B.champsimtrace.xz
Heartbeat CPU 2 instructions: 10000000 cycles: 5017148 heartbeat IPC: 1.99316 cumulative IPC: 1.99316 (Simulation time: 0 hr 1 min 40 sec) 
Heartbeat CPU 3 instructions: 10000001 cycles: 5789648 heartbeat IPC: 1.72722 cumulative IPC: 1.72722 (Simulation time: 0 hr 1 min 54 sec) 
Heartbeat CPU 1 instructions: 10000002 cycles: 6124953 heartbeat IPC: 1.63267 cumulative IPC: 1.63267 (Simulation time: 0 hr 2 min 0 sec) 
Heartbeat CPU 0 instructions: 10000000 cycles: 7486859 heartbeat IPC: 1.33567 cumulative IPC: 1.33567 (Simulation time: 0 hr 2 min 24 sec) 
Heartbeat CPU 2 instructions: 20000000 cycles: 10158025 heartbeat IPC: 1.94519 cumulative IPC: 1.96889 (Simulation time: 0 hr 3 min 14 sec) 
Heartbeat CPU 3 instructions: 20000000 cycles: 11802074 heartbeat IPC: 1.66322 cumulative IPC: 1.69462 (Simulation time: 0 hr 3 min 44 sec) 
Heartbeat CPU 1 instructions: 20000000 cycles: 12225621 heartbeat IPC: 1.63916 cumulative IPC: 1.63591 (Simulation time: 0 hr 3 min 51 sec) 
Heartbeat CPU 0 instructions: 20000000 cycles: 14794419 heartbeat IPC: 1.36845 cumulative IPC: 1.35186 (Simulation time: 0 hr 4 min 38 sec) 
Heartbeat CPU 2 instructions: 30000002 cycles: 15224901 heartbeat IPC: 1.9736 cumulative IPC: 1.97046 (Simulation time: 0 hr 4 min 46 sec) 
Heartbeat CPU 3 instructions: 30000002 cycles: 17550578 heartbeat IPC: 1.73958 cumulative IPC: 1.70935 (Simulation time: 0 hr 5 min 30 sec) 
Heartbeat CPU 1 instructions: 30000002 cycles: 18297114 heartbeat IPC: 1.64704 cumulative IPC: 1.6396 (Simulation time: 0 hr 5 min 44 sec) 
Heartbeat CPU 2 instructions: 40000000 cycles: 20254411 heartbeat IPC: 1.98826 cumulative IPC: 1.97488 (Simulation time: 0 hr 6 min 22 sec) 
Heartbeat CPU 0 instructions: 30000003 cycles: 22382304 heartbeat IPC: 1.31789 cumulative IPC: 1.34034 (Simulation time: 0 hr 7 min 4 sec) 
Heartbeat CPU 3 instructions: 40000000 cycles: 23302255 heartbeat IPC: 1.73862 cumulative IPC: 1.71657 (Simulation time: 0 hr 7 min 20 sec) 
Heartbeat CPU 1 instructions: 40000000 cycles: 24395507 heartbeat IPC: 1.63978 cumulative IPC: 1.63965 (Simulation time: 0 hr 7 min 40 sec) 
Heartbeat CPU 2 instructions: 50000002 cycles: 25245644 heartbeat IPC: 2.00351 cumulative IPC: 1.98054 (Simulation time: 0 hr 7 min 55 sec) 
Heartbeat CPU 3 instructions: 50000002 cycles: 29063862 heartbeat IPC: 1.73563 cumulative IPC: 1.72035 (Simulation time: 0 hr 9 min 6 sec) 
Heartbeat CPU 0 instructions: 40000000 cycles: 29843345 heartbeat IPC: 1.3403 cumulative IPC: 1.34033 (Simulation time: 0 hr 9 min 20 sec) 
Heartbeat CPU 2 instructions: 60000000 cycles: 30388443 heartbeat IPC: 1.94447 cumulative IPC: 1.97443 (Simulation time: 0 hr 9 min 31 sec) 
Heartbeat CPU 1 instructions: 50000003 cycles: 30502704 heartbeat IPC: 1.63741 cumulative IPC: 1.6392 (Simulation time: 0 hr 9 min 32 sec) 
Heartbeat CPU 3 instructions: 60000000 cycles: 34978699 heartbeat IPC: 1.69066 cumulative IPC: 1.71533 (Simulation time: 0 hr 10 min 53 sec) 
Heartbeat CPU 2 instructions: 70000000 cycles: 36406325 heartbeat IPC: 1.66171 cumulative IPC: 1.92274 (Simulation time: 0 hr 11 min 17 sec) 
Heartbeat CPU 1 instructions: 60000000 cycles: 36657923 heartbeat IPC: 1.62464 cumulative IPC: 1.63675 (Simulation time: 0 hr 11 min 20 sec) 
Heartbeat CPU 0 instructions: 50000003 cycles: 37324558 heartbeat IPC: 1.33668 cumulative IPC: 1.3396 (Simulation time: 0 hr 11 min 32 sec) 
Heartbeat CPU 3 instructions: 70000000 cycles: 40780649 heartbeat IPC: 1.72356 cumulative IPC: 1.7165 (Simulation time: 0 hr 12 min 29 sec) 
Heartbeat CPU 2 instructions: 80000000 cycles: 42615373 heartbeat IPC: 1.61055 cumulative IPC: 1.87726 (Simulation time: 0 hr 13 min 1 sec) 
Heartbeat CPU 1 instructions: 70000003 cycles: 42784547 heartbeat IPC: 1.63222 cumulative IPC: 1.6361 (Simulation time: 0 hr 13 min 5 sec) 
Heartbeat CPU 0 instructions: 60000000 cycles: 44849234 heartbeat IPC: 1.32896 cumulative IPC: 1.33782 (Simulation time: 0 hr 13 min 43 sec) 
Heartbeat CPU 3 instructions: 80000000 cycles: 46722148 heartbeat IPC: 1.68308 cumulative IPC: 1.71225 (Simulation time: 0 hr 14 min 13 sec) 
Heartbeat CPU 2 instructions: 90000000 cycles: 47722867 heartbeat IPC: 1.95791 cumulative IPC: 1.88589 (Simulation time: 0 hr 14 min 32 sec) 
Heartbeat CPU 1 instructions: 80000000 cycles: 48864819 heartbeat IPC: 1.64466 cumulative IPC: 1.63717 (Simulation time: 0 hr 14 min 53 sec) 
Heartbeat CPU 0 instructions: 70000002 cycles: 52311304 heartbeat IPC: 1.34011 cumulative IPC: 1.33814 (Simulation time: 0 hr 15 min 53 sec) 
Heartbeat CPU 3 instructions: 90000003 cycles: 52654681 heartbeat IPC: 1.68562 cumulative IPC: 1.70925 (Simulation time: 0 hr 16 min 0 sec) 
Heartbeat CPU 2 instructions: 100000000 cycles: 52803499 heartbeat IPC: 1.96826 cumulative IPC: 1.89381 (Simulation time: 0 hr 16 min 2 sec) 
Heartbeat CPU 1 instructions: 90000002 cycles: 55030069 heartbeat IPC: 1.62199 cumulative IPC: 1.63547 (Simulation time: 0 hr 16 min 41 sec) 
Heartbeat CPU 2 instructions: 110000001 cycles: 57858674 heartbeat IPC: 1.97817 cumulative IPC: 1.90118 (Simulation time: 0 hr 17 min 29 sec) 
Heartbeat CPU 3 instructions: 100000000 cycles: 58528007 heartbeat IPC: 1.70261 cumulative IPC: 1.70858 (Simulation time: 0 hr 17 min 42 sec) 
Heartbeat CPU 0 instructions: 80000000 cycles: 59702993 heartbeat IPC: 1.35287 cumulative IPC: 1.33997 (Simulation time: 0 hr 18 min 3 sec) 
Heartbeat CPU 1 instructions: 100000000 cycles: 61145231 heartbeat IPC: 1.63528 cumulative IPC: 1.63545 (Simulation time: 0 hr 18 min 29 sec) 
Heartbeat CPU 2 instructions: 120000000 cycles: 62875003 heartbeat IPC: 1.99349 cumulative IPC: 1.90855 (Simulation time: 0 hr 18 min 59 sec) 
Heartbeat CPU 3 instructions: 110000002 cycles: 64546925 heartbeat IPC: 1.66143 cumulative IPC: 1.70419 (Simulation time: 0 hr 19 min 26 sec) 
Heartbeat CPU 0 instructions: 90000002 cycles: 67113825 heartbeat IPC: 1.34938 cumulative IPC: 1.34101 (Simulation time: 0 hr 20 min 13 sec) 
Heartbeat CPU 1 instructions: 110000002 cycles: 67251907 heartbeat IPC: 1.63755 cumulative IPC: 1.63564 (Simulation time: 0 hr 20 min 15 sec) 
Heartbeat CPU 2 instructions: 130000002 cycles: 67987581 heartbeat IPC: 1.95596 cumulative IPC: 1.91211 (Simulation time: 0 hr 20 min 27 sec) 
Heartbeat CPU 3 instructions: 120000000 cycles: 70426567 heartbeat IPC: 1.70078 cumulative IPC: 1.7039 (Simulation time: 0 hr 21 min 11 sec) 
Heartbeat CPU 2 instructions: 140000000 cycles: 73135986 heartbeat IPC: 1.94235 cumulative IPC: 1.91424 (Simulation time: 0 hr 22 min 0 sec) 
Heartbeat CPU 1 instructions: 120000000 cycles: 73405951 heartbeat IPC: 1.62495 cumulative IPC: 1.63474 (Simulation time: 0 hr 22 min 4 sec) 
Heartbeat CPU 0 instructions: 100000000 cycles: 74483024 heartbeat IPC: 1.357 cumulative IPC: 1.34259 (Simulation time: 0 hr 22 min 22 sec) 
Heartbeat CPU 3 instructions: 130000001 cycles: 76478248 heartbeat IPC: 1.65243 cumulative IPC: 1.69983 (Simulation time: 0 hr 22 min 58 sec) 
Heartbeat CPU 2 instructions: 150000001 cycles: 78293877 heartbeat IPC: 1.93878 cumulative IPC: 1.91586 (Simulation time: 0 hr 23 min 32 sec) 
Heartbeat CPU 1 instructions: 130000003 cycles: 79551815 heartbeat IPC: 1.62711 cumulative IPC: 1.63416 (Simulation time: 0 hr 23 min 54 sec) 
Heartbeat CPU 0 instructions: 110000001 cycles: 81882484 heartbeat IPC: 1.35145 cumulative IPC: 1.34339 (Simulation time: 0 hr 24 min 36 sec) 
Heartbeat CPU 3 instructions: 140000000 cycles: 82243535 heartbeat IPC: 1.73452 cumulative IPC: 1.70226 (Simulation time: 0 hr 24 min 42 sec) 
Heartbeat CPU 2 instructions: 160000000 cycles: 83380128 heartbeat IPC: 1.96608 cumulative IPC: 1.91892 (Simulation time: 0 hr 25 min 3 sec) 
Heartbeat CPU 1 instructions: 140000000 cycles: 85678606 heartbeat IPC: 1.63218 cumulative IPC: 1.63401 (Simulation time: 0 hr 25 min 43 sec) 
Heartbeat CPU 3 instructions: 150000000 cycles: 88160998 heartbeat IPC: 1.68991 cumulative IPC: 1.70143 (Simulation time: 0 hr 26 min 25 sec) 
Heartbeat CPU 2 instructions: 170000000 cycles: 88617936 heartbeat IPC: 1.9092 cumulative IPC: 1.91835 (Simulation time: 0 hr 26 min 33 sec) 
Heartbeat CPU 0 instructions: 120000000 cycles: 89266440 heartbeat IPC: 1.35429 cumulative IPC: 1.34429 (Simulation time: 0 hr 26 min 46 sec) 
Heartbeat CPU 1 instructions: 150000001 cycles: 91791537 heartbeat IPC: 1.63588 cumulative IPC: 1.63414 (Simulation time: 0 hr 27 min 47 sec) 
Heartbeat CPU 3 instructions: 160000000 cycles: 94146751 heartbeat IPC: 1.67063 cumulative IPC: 1.69947 (Simulation time: 0 hr 28 min 41 sec) 
Heartbeat CPU 2 instructions: 180000000 cycles: 94931033 heartbeat IPC: 1.58401 cumulative IPC: 1.89611 (Simulation time: 0 hr 29 min 8 sec) 
Heartbeat CPU 0 instructions: 130000000 cycles: 96557960 heartbeat IPC: 1.37146 cumulative IPC: 1.34634 (Simulation time: 0 hr 29 min 43 sec) 
Heartbeat CPU 1 instructions: 160000000 cycles: 97949643 heartbeat IPC: 1.62388 cumulative IPC: 1.63349 (Simulation time: 0 hr 30 min 10 sec) 
Heartbeat CPU 3 instructions: 170000003 cycles: 99900479 heartbeat IPC: 1.738 cumulative IPC: 1.70169 (Simulation time: 0 hr 30 min 43 sec) 
Heartbeat CPU 2 instructions: 190000001 cycles: 100398094 heartbeat IPC: 1.82914 cumulative IPC: 1.89247 (Simulation time: 0 hr 30 min 50 sec) 
Heartbeat CPU 1 instructions: 170000002 cycles: 104110138 heartbeat IPC: 1.62325 cumulative IPC: 1.63289 (Simulation time: 0 hr 31 min 50 sec) 
Heartbeat CPU 0 instructions: 140000000 cycles: 104163953 heartbeat IPC: 1.31475 cumulative IPC: 1.34404 (Simulation time: 0 hr 31 min 51 sec) 
Heartbeat CPU 2 instructions: 200000000 cycles: 105466974 heartbeat IPC: 1.97282 cumulative IPC: 1.89633 (Simulation time: 0 hr 32 min 12 sec) 
Heartbeat CPU 3 instructions: 180000000 cycles: 105672641 heartbeat IPC: 1.73245 cumulative IPC: 1.70337 (Simulation time: 0 hr 32 min 15 sec) 
Heartbeat CPU 1 instructions: 180000000 cycles: 110202715 heartbeat IPC: 1.64134 cumulative IPC: 1.63335 (Simulation time: 0 hr 33 min 29 sec) 
Heartbeat CPU 2 instructions: 210000001 cycles: 110577329 heartbeat IPC: 1.95681 cumulative IPC: 0.0904345 (Simulation time: 0 hr 33 min 35 sec) 
Heartbeat CPU 3 instructions: 190000000 cycles: 111596883 heartbeat IPC: 1.68798 cumulative IPC: 1.70256 (Simulation time: 0 hr 33 min 51 sec) 
Heartbeat CPU 0 instructions: 150000003 cycles: 111633483 heartbeat IPC: 1.33877 cumulative IPC: 1.34368 (Simulation time: 0 hr 33 min 51 sec) 
Heartbeat CPU 2 instructions: 220000000 cycles: 115735301 heartbeat IPC: 1.93875 cumulative IPC: 0.172808 (Simulation time: 0 hr 34 min 59 sec) 
Heartbeat CPU 1 instructions: 190000001 cycles: 116354248 heartbeat IPC: 1.62561 cumulative IPC: 1.63294 (Simulation time: 0 hr 35 min 8 sec) 
Heartbeat CPU 3 instructions: 200000000 cycles: 117351991 heartbeat IPC: 1.73759 cumulative IPC: 1.70427 (Simulation time: 0 hr 35 min 27 sec) 
Heartbeat CPU 0 instructions: 160000000 cycles: 119018363 heartbeat IPC: 1.35412 cumulative IPC: 1.34433 (Simulation time: 0 hr 35 min 54 sec) 
Heartbeat CPU 2 instructions: 230000002 cycles: 120850721 heartbeat IPC: 1.95487 cumulative IPC: 0.24824 (Simulation time: 0 hr 36 min 23 sec) 
Heartbeat CPU 1 instructions: 200000000 cycles: 122493439 heartbeat IPC: 1.62888 cumulative IPC: 1.63274 (Simulation time: 0 hr 36 min 49 sec) 
Heartbeat CPU 3 instructions: 210000001 cycles: 123186566 heartbeat IPC: 1.71392 cumulative IPC: 0.0811777 (Simulation time: 0 hr 37 min 1 sec) 
Heartbeat CPU 2 instructions: 240000000 cycles: 125940938 heartbeat IPC: 1.96455 cumulative IPC: 0.317609 (Simulation time: 0 hr 37 min 45 sec) 
Heartbeat CPU 0 instructions: 170000000 cycles: 126499530 heartbeat IPC: 1.33669 cumulative IPC: 1.34388 (Simulation time: 0 hr 37 min 55 sec) 
Heartbeat CPU 1 instructions: 210000001 cycles: 128659621 heartbeat IPC: 1.62175 cumulative IPC: 0.0777245 (Simulation time: 0 hr 38 min 30 sec) 
Heartbeat CPU 3 instructions: 220000000 cycles: 129013258 heartbeat IPC: 1.71624 cumulative IPC: 0.155023 (Simulation time: 0 hr 38 min 35 sec) 
Heartbeat CPU 2 instructions: 250000003 cycles: 131048607 heartbeat IPC: 1.95784 cumulative IPC: 0.381538 (Simulation time: 0 hr 39 min 8 sec) 
Heartbeat CPU 0 instructions: 180000000 cycles: 133959067 heartbeat IPC: 1.34057 cumulative IPC: 1.34369 (Simulation time: 0 hr 39 min 53 sec) 
Heartbeat CPU 1 instructions: 220000000 cycles: 134855901 heartbeat IPC: 1.61387 cumulative IPC: 0.148306 (Simulation time: 0 hr 40 min 7 sec) 
Heartbeat CPU 3 instructions: 230000002 cycles: 135185418 heartbeat IPC: 1.62018 cumulative IPC: 0.221917 (Simulation time: 0 hr 40 min 13 sec) 
Heartbeat CPU 2 instructions: 260000000 cycles: 136106158 heartbeat IPC: 1.97724 cumulative IPC: 0.440832 (Simulation time: 0 hr 40 min 28 sec) 
Heartbeat CPU 1 instructions: 230000001 cycles: 141066236 heartbeat IPC: 1.61022 cumulative IPC: 0.212666 (Simulation time: 0 hr 41 min 47 sec) 
Heartbeat CPU 2 instructions: 270000001 cycles: 141136093 heartbeat IPC: 1.9881 cumulative IPC: 0.495975 (Simulation time: 0 hr 41 min 48 sec) 
Heartbeat CPU 3 instructions: 240000000 cycles: 141285668 heartbeat IPC: 1.63928 cumulative IPC: 0.283114 (Simulation time: 0 hr 41 min 50 sec) 
Heartbeat CPU 0 instructions: 190000002 cycles: 141603878 heartbeat IPC: 1.30808 cumulative IPC: 1.34177 (Simulation time: 0 hr 41 min 55 sec) 
Heartbeat CPU 2 instructions: 280000000 cycles: 146771954 heartbeat IPC: 1.77435 cumulative IPC: 0.545063 (Simulation time: 0 hr 43 min 26 sec) 
Heartbeat CPU 1 instructions: 240000000 cycles: 147210573 heartbeat IPC: 1.62751 cumulative IPC: 0.27172 (Simulation time: 0 hr 43 min 34 sec) 
Heartbeat CPU 3 instructions: 250000001 cycles: 147371537 heartbeat IPC: 1.64315 cumulative IPC: 0.339279 (Simulation time: 0 hr 43 min 36 sec) 
Heartbeat CPU 0 instructions: 200000000 cycles: 148982279 heartbeat IPC: 1.35531 cumulative IPC: 1.34244 (Simulation time: 0 hr 44 min 4 sec) 

Warmup complete CPU 0 instructions: 200000003 cycles: 148982281 (Simulation time: 0 hr 44 min 4 sec) 
Warmup complete CPU 1 instructions: 242882310 cycles: 148982280 (Simulation time: 0 hr 44 min 4 sec) 
Warmup complete CPU 2 instructions: 283102181 cycles: 148982280 (Simulation time: 0 hr 44 min 4 sec) 
Warmup complete CPU 3 instructions: 252803049 cycles: 148982280 (Simulation time: 0 hr 44 min 4 sec) 

Heartbeat CPU 2 instructions: 290000000 cycles: 163920629 heartbeat IPC: 0.583135 cumulative IPC: 0.461752 (Simulation time: 0 hr 45 min 20 sec) 
Heartbeat CPU 3 instructions: 260000000 cycles: 166196683 heartbeat IPC: 0.531204 cumulative IPC: 0.418077 (Simulation time: 0 hr 45 min 34 sec) 
Heartbeat CPU 1 instructions: 250000000 cycles: 182721183 heartbeat IPC: 0.281606 cumulative IPC: 0.210964 (Simulation time: 0 hr 46 min 54 sec) 
Heartbeat CPU 2 instructions: 300000000 cycles: 189328854 heartbeat IPC: 0.393573 cumulative IPC: 0.418817 (Simulation time: 0 hr 47 min 25 sec) 
Heartbeat CPU 3 instructions: 270000001 cycles: 189500236 heartbeat IPC: 0.429119 cumulative IPC: 0.424428 (Simulation time: 0 hr 47 min 25 sec) 
Heartbeat CPU 3 instructions: 280000000 cycles: 212797837 heartbeat IPC: 0.429229 cumulative IPC: 0.426181 (Simulation time: 0 hr 49 min 18 sec) 
Heartbeat CPU 2 instructions: 310000001 cycles: 216144738 heartbeat IPC: 0.372913 cumulative IPC: 0.400489 (Simulation time: 0 hr 49 min 35 sec) 
Heartbeat CPU 1 instructions: 260000000 cycles: 226444270 heartbeat IPC: 0.228712 cumulative IPC: 0.220982 (Simulation time: 0 hr 50 min 23 sec) 
Heartbeat CPU 0 instructions: 210000000 cycles: 232017147 heartbeat IPC: 0.120431 cumulative IPC: 0.120431 (Simulation time: 0 hr 50 min 49 sec) 
Heartbeat CPU 3 instructions: 290000002 cycles: 240631763 heartbeat IPC: 0.359274 cumulative IPC: 0.405861 (Simulation time: 0 hr 51 min 27 sec) 
Heartbeat CPU 2 instructions: 320000000 cycles: 243254836 heartbeat IPC: 0.368866 cumulative IPC: 0.391395 (Simulation time: 0 hr 51 min 40 sec) 
Heartbeat CPU 2 instructions: 330000002 cycles: 270163733 heartbeat IPC: 0.371624 cumulative IPC: 0.387005 (Simulation time: 0 hr 53 min 41 sec) 
Heartbeat CPU 1 instructions: 270000002 cycles: 273830116 heartbeat IPC: 0.211034 cumulative IPC: 0.217206 (Simulation time: 0 hr 53 min 55 sec) 
Heartbeat CPU 3 instructions: 300000000 cycles: 275115037 heartbeat IPC: 0.289996 cumulative IPC: 0.374185 (Simulation time: 0 hr 54 min 1 sec) 
Heartbeat CPU 2 instructions: 340000000 cycles: 296325270 heartbeat IPC: 0.38224 cumulative IPC: 0.386159 (Simulation time: 0 hr 55 min 29 sec) 
Heartbeat CPU 3 instructions: 310000000 cycles: 309434261 heartbeat IPC: 0.291382 cumulative IPC: 0.356474 (Simulation time: 0 hr 56 min 32 sec) 
Heartbeat CPU 0 instructions: 220000000 cycles: 315369967 heartbeat IPC: 0.119972 cumulative IPC: 0.120201 (Simulation time: 0 hr 57 min 2 sec) 
Heartbeat CPU 1 instructions: 280000000 cycles: 317959208 heartbeat IPC: 0.226608 cumulative IPC: 0.219661 (Simulation time: 0 hr 57 min 16 sec) 
Heartbeat CPU 2 instructions: 350000003 cycles: 324022904 heartbeat IPC: 0.361042 cumulative IPC: 0.382185 (Simulation time: 0 hr 57 min 41 sec) 
Heartbeat CPU 3 instructions: 320000000 cycles: 339529941 heartbeat IPC: 0.332274 cumulative IPC: 0.352652 (Simulation time: 0 hr 58 min 48 sec) 
Heartbeat CPU 2 instructions: 360000000 cycles: 349159023 heartbeat IPC: 0.397834 cumulative IPC: 0.38415 (Simulation time: 0 hr 59 min 39 sec) 
Heartbeat CPU 1 instructions: 290000003 cycles: 359419144 heartbeat IPC: 0.241197 cumulative IPC: 0.223904 (Simulation time: 1 hr 0 min 30 sec) 
Heartbeat CPU 3 instructions: 330000003 cycles: 360817835 heartbeat IPC: 0.469751 cumulative IPC: 0.364419 (Simulation time: 1 hr 0 min 36 sec) 
Heartbeat CPU 2 instructions: 370000001 cycles: 375658133 heartbeat IPC: 0.377371 cumulative IPC: 0.383357 (Simulation time: 1 hr 1 min 46 sec) 
Heartbeat CPU 3 instructions: 340000000 cycles: 386661924 heartbeat IPC: 0.386936 cumulative IPC: 0.366868 (Simulation time: 1 hr 2 min 36 sec) 
Heartbeat CPU 0 instructions: 230000002 cycles: 396471429 heartbeat IPC: 0.123302 cumulative IPC: 0.121217 (Simulation time: 1 hr 3 min 17 sec) 
Heartbeat CPU 2 instructions: 380000000 cycles: 400281743 heartbeat IPC: 0.406114 cumulative IPC: 0.385587 (Simulation time: 1 hr 3 min 37 sec) 
Heartbeat CPU 1 instructions: 300000000 cycles: 403771309 heartbeat IPC: 0.225468 cumulative IPC: 0.224176 (Simulation time: 1 hr 3 min 52 sec) 
Heartbeat CPU 3 instructions: 350000003 cycles: 415992203 heartbeat IPC: 0.340945 cumulative IPC: 0.36402 (Simulation time: 1 hr 4 min 52 sec) 
Heartbeat CPU 2 instructions: 390000000 cycles: 435439576 heartbeat IPC: 0.284432 cumulative IPC: 0.373172 (Simulation time: 1 hr 6 min 22 sec) 
Heartbeat CPU 3 instructions: 360000000 cycles: 441878058 heartbeat IPC: 0.386311 cumulative IPC: 0.36599 (Simulation time: 1 hr 6 min 52 sec) 
Heartbeat CPU 1 instructions: 310000001 cycles: 447285143 heartbeat IPC: 0.229812 cumulative IPC: 0.224998 (Simulation time: 1 hr 7 min 17 sec) 
Heartbeat CPU 2 instructions: 400000000 cycles: 462618817 heartbeat IPC: 0.367928 cumulative IPC: 0.372717 (Simulation time: 1 hr 8 min 33 sec) 
Heartbeat CPU 3 instructions: 370000000 cycles: 474923695 heartbeat IPC: 0.302612 cumulative IPC: 0.359564 (Simulation time: 1 hr 9 min 27 sec) 
Heartbeat CPU 0 instructions: 240000000 cycles: 477331367 heartbeat IPC: 0.123671 cumulative IPC: 0.121822 (Simulation time: 1 hr 9 min 41 sec) 
Heartbeat CPU 2 instructions: 410000000 cycles: 487463789 heartbeat IPC: 0.402496 cumulative IPC: 0.374903 (Simulation time: 1 hr 10 min 32 sec) 
Heartbeat CPU 1 instructions: 320000000 cycles: 488849788 heartbeat IPC: 0.240589 cumulative IPC: 0.226905 (Simulation time: 1 hr 10 min 38 sec) 
Heartbeat CPU 3 instructions: 380000000 cycles: 499618635 heartbeat IPC: 0.404941 cumulative IPC: 0.36276 (Simulation time: 1 hr 11 min 27 sec) 
Heartbeat CPU 2 instructions: 420000000 cycles: 516052399 heartbeat IPC: 0.34979 cumulative IPC: 0.372947 (Simulation time: 1 hr 12 min 39 sec) 
Heartbeat CPU 1 instructions: 330000002 cycles: 532809765 heartbeat IPC: 0.22748 cumulative IPC: 0.226971 (Simulation time: 1 hr 13 min 50 sec) 
Heartbeat CPU 3 instructions: 390000000 cycles: 538306125 heartbeat IPC: 0.258482 cumulative IPC: 0.352398 (Simulation time: 1 hr 14 min 12 sec) 
Heartbeat CPU 2 instructions: 430000003 cycles: 542508773 heartbeat IPC: 0.377981 cumulative IPC: 0.373286 (Simulation time: 1 hr 14 min 28 sec) 
Heartbeat CPU 0 instructions: 250000001 cycles: 560972918 heartbeat IPC: 0.119558 cumulative IPC: 0.121362 (Simulation time: 1 hr 15 min 51 sec) 
Heartbeat CPU 2 instructions: 440000000 cycles: 567221844 heartbeat IPC: 0.404644 cumulative IPC: 0.375139 (Simulation time: 1 hr 16 min 23 sec) 
Heartbeat CPU 3 instructions: 400000000 cycles: 569992739 heartbeat IPC: 0.315591 cumulative IPC: 0.349628 (Simulation time: 1 hr 16 min 37 sec) 
Heartbeat CPU 1 instructions: 340000000 cycles: 575312463 heartbeat IPC: 0.235279 cumulative IPC: 0.227799 (Simulation time: 1 hr 17 min 7 sec) 
Heartbeat CPU 2 instructions: 450000002 cycles: 591455633 heartbeat IPC: 0.412647 cumulative IPC: 0.377193 (Simulation time: 1 hr 18 min 23 sec) 
Heartbeat CPU 3 instructions: 410000001 cycles: 593964785 heartbeat IPC: 0.417153 cumulative IPC: 0.353265 (Simulation time: 1 hr 18 min 34 sec) 
Heartbeat CPU 1 instructions: 350000001 cycles: 618167648 heartbeat IPC: 0.233344 cumulative IPC: 0.228306 (Simulation time: 1 hr 20 min 29 sec) 
Heartbeat CPU 2 instructions: 460000000 cycles: 619552335 heartbeat IPC: 0.355914 cumulative IPC: 0.375922 (Simulation time: 1 hr 20 min 36 sec) 
Heartbeat CPU 3 instructions: 420000000 cycles: 621090643 heartbeat IPC: 0.368652 cumulative IPC: 0.35415 (Simulation time: 1 hr 20 min 42 sec) 
Heartbeat CPU 0 instructions: 260000000 cycles: 643586632 heartbeat IPC: 0.121045 cumulative IPC: 0.121309 (Simulation time: 1 hr 22 min 35 sec) 
Heartbeat CPU 2 instructions: 470000000 cycles: 644840060 heartbeat IPC: 0.395449 cumulative IPC: 0.376918 (Simulation time: 1 hr 22 min 41 sec) 
Heartbeat CPU 3 instructions: 430000002 cycles: 645886384 heartbeat IPC: 0.403295 cumulative IPC: 0.356602 (Simulation time: 1 hr 22 min 47 sec) 
Heartbeat CPU 1 instructions: 360000000 cycles: 655863365 heartbeat IPC: 0.265282 cumulative IPC: 0.231056 (Simulation time: 1 hr 23 min 36 sec) 
Heartbeat CPU 3 instructions: 440000000 cycles: 667366750 heartbeat IPC: 0.465541 cumulative IPC: 0.361116 (Simulation time: 1 hr 24 min 35 sec) 
Heartbeat CPU 2 instructions: 480000000 cycles: 669501162 heartbeat IPC: 0.405497 cumulative IPC: 0.378272 (Simulation time: 1 hr 24 min 46 sec) 
Heartbeat CPU 3 instructions: 450000002 cycles: 689757212 heartbeat IPC: 0.446619 cumulative IPC: 0.364656 (Simulation time: 1 hr 26 min 28 sec) 
Heartbeat CPU 2 instructions: 490000001 cycles: 693154251 heartbeat IPC: 0.422778 cumulative IPC: 0.380207 (Simulation time: 1 hr 26 min 41 sec) 
Heartbeat CPU 1 instructions: 370000000 cycles: 695541431 heartbeat IPC: 0.252028 cumulative IPC: 0.232578 (Simulation time: 1 hr 26 min 53 sec) 
Heartbeat CPU 3 instructions: 460000000 cycles: 717630455 heartbeat IPC: 0.358767 cumulative IPC: 0.364368 (Simulation time: 1 hr 28 min 31 sec) 
Heartbeat CPU 2 instructions: 500000000 cycles: 726232305 heartbeat IPC: 0.302315 cumulative IPC: 0.375743 (Simulation time: 1 hr 29 min 11 sec) 
Heartbeat CPU 0 instructions: 270000002 cycles: 727216042 heartbeat IPC: 0.119575 cumulative IPC: 0.121058 (Simulation time: 1 hr 29 min 18 sec) 
Heartbeat CPU 1 instructions: 380000000 cycles: 739173562 heartbeat IPC: 0.229189 cumulative IPC: 0.232328 (Simulation time: 1 hr 30 min 27 sec) 
Heartbeat CPU 3 instructions: 470000001 cycles: 743952765 heartbeat IPC: 0.379906 cumulative IPC: 0.365055 (Simulation time: 1 hr 30 min 50 sec) 
Heartbeat CPU 2 instructions: 510000002 cycles: 754746793 heartbeat IPC: 0.350699 cumulative IPC: 0.374564 (Simulation time: 1 hr 31 min 49 sec) 
Heartbeat CPU 2 instructions: 520000000 cycles: 781213617 heartbeat IPC: 0.377831 cumulative IPC: 0.374701 (Simulation time: 1 hr 34 min 9 sec) 
Heartbeat CPU 3 instructions: 480000000 cycles: 781533160 heartbeat IPC: 0.266096 cumulative IPC: 0.359176 (Simulation time: 1 hr 34 min 10 sec) 
Heartbeat CPU 1 instructions: 390000000 cycles: 782466302 heartbeat IPC: 0.230986 cumulative IPC: 0.232236 (Simulation time: 1 hr 34 min 15 sec) 
Heartbeat CPU 3 instructions: 490000002 cycles: 805642781 heartbeat IPC: 0.414772 cumulative IPC: 0.361217 (Simulation time: 1 hr 36 min 20 sec) 
Heartbeat CPU 2 instructions: 530000003 cycles: 808463928 heartbeat IPC: 0.366968 cumulative IPC: 0.374382 (Simulation time: 1 hr 36 min 36 sec) 
Heartbeat CPU 0 instructions: 280000000 cycles: 808779608 heartbeat IPC: 0.122604 cumulative IPC: 0.121249 (Simulation time: 1 hr 36 min 37 sec) 
Heartbeat CPU 1 instructions: 400000000 cycles: 824396792 heartbeat IPC: 0.23849 cumulative IPC: 0.232624 (Simulation time: 1 hr 37 min 57 sec) 
Heartbeat CPU 2 instructions: 540000000 cycles: 833013983 heartbeat IPC: 0.407331 cumulative IPC: 0.375564 (Simulation time: 1 hr 38 min 46 sec) 
Heartbeat CPU 3 instructions: 500000000 cycles: 836057626 heartbeat IPC: 0.328787 cumulative IPC: 0.359781 (Simulation time: 1 hr 39 min 2 sec) 
Heartbeat CPU 2 instructions: 550000001 cycles: 858671992 heartbeat IPC: 0.389742 cumulative IPC: 0.376077 (Simulation time: 1 hr 40 min 46 sec) 
Heartbeat CPU 3 instructions: 510000003 cycles: 866660708 heartbeat IPC: 0.326765 cumulative IPC: 0.358374 (Simulation time: 1 hr 41 min 24 sec) 
Heartbeat CPU 1 instructions: 410000001 cycles: 868219184 heartbeat IPC: 0.228194 cumulative IPC: 0.232354 (Simulation time: 1 hr 41 min 30 sec) 
Heartbeat CPU 2 instructions: 560000000 cycles: 884268667 heartbeat IPC: 0.390676 cumulative IPC: 0.376585 (Simulation time: 1 hr 42 min 47 sec) 
Heartbeat CPU 0 instructions: 290000000 cycles: 892593946 heartbeat IPC: 0.119311 cumulative IPC: 0.121031 (Simulation time: 1 hr 43 min 25 sec) 
Heartbeat CPU 3 instructions: 520000000 cycles: 894499476 heartbeat IPC: 0.359211 cumulative IPC: 0.358405 (Simulation time: 1 hr 43 min 33 sec) 
Heartbeat CPU 2 instructions: 570000001 cycles: 909044019 heartbeat IPC: 0.403627 cumulative IPC: 0.377466 (Simulation time: 1 hr 44 min 37 sec) 
Heartbeat CPU 1 instructions: 420000000 cycles: 909973425 heartbeat IPC: 0.239497 cumulative IPC: 0.232746 (Simulation time: 1 hr 44 min 41 sec) 
Heartbeat CPU 3 instructions: 530000001 cycles: 924265628 heartbeat IPC: 0.335952 cumulative IPC: 0.357543 (Simulation time: 1 hr 45 min 49 sec) 
Heartbeat CPU 2 instructions: 580000000 cycles: 934932914 heartbeat IPC: 0.386266 cumulative IPC: 0.377756 (Simulation time: 1 hr 46 min 35 sec) 
Heartbeat CPU 3 instructions: 540000000 cycles: 952375543 heartbeat IPC: 0.355746 cumulative IPC: 0.35748 (Simulation time: 1 hr 47 min 55 sec) 
Heartbeat CPU 1 instructions: 430000000 cycles: 953356719 heartbeat IPC: 0.230503 cumulative IPC: 0.232625 (Simulation time: 1 hr 47 min 59 sec) 
Heartbeat CPU 2 instructions: 590000000 cycles: 960503640 heartbeat IPC: 0.391072 cumulative IPC: 0.378176 (Simulation time: 1 hr 48 min 28 sec) 
Heartbeat CPU 0 instructions: 300000000 cycles: 974100642 heartbeat IPC: 0.122689 cumulative IPC: 0.121195 (Simulation time: 1 hr 49 min 27 sec) 
Heartbeat CPU 2 instructions: 600000000 cycles: 989093013 heartbeat IPC: 0.34978 cumulative IPC: 0.37721 (Simulation time: 1 hr 50 min 27 sec) 
Heartbeat CPU 3 instructions: 550000001 cycles: 989392080 heartbeat IPC: 0.27015 cumulative IPC: 0.353633 (Simulation time: 1 hr 50 min 28 sec) 
Heartbeat CPU 1 instructions: 440000000 cycles: 996152266 heartbeat IPC: 0.233669 cumulative IPC: 0.232678 (Simulation time: 1 hr 50 min 55 sec) 
Heartbeat CPU 2 instructions: 610000001 cycles: 1013513071 heartbeat IPC: 0.409499 cumulative IPC: 0.378122 (Simulation time: 1 hr 52 min 7 sec) 
Heartbeat CPU 3 instructions: 560000000 cycles: 1023398032 heartbeat IPC: 0.294066 cumulative IPC: 0.351317 (Simulation time: 1 hr 52 min 48 sec) 
Heartbeat CPU 1 instructions: 450000000 cycles: 1039308893 heartbeat IPC: 0.231714 cumulative IPC: 0.232631 (Simulation time: 1 hr 54 min 3 sec) 
Heartbeat CPU 2 instructions: 620000000 cycles: 1051658513 heartbeat IPC: 0.262154 cumulative IPC: 0.373221 (Simulation time: 1 hr 54 min 55 sec) 
Heartbeat CPU 3 instructions: 570000002 cycles: 1052064338 heartbeat IPC: 0.348842 cumulative IPC: 0.351238 (Simulation time: 1 hr 54 min 56 sec) 
Heartbeat CPU 0 instructions: 310000002 cycles: 1056865752 heartbeat IPC: 0.120824 cumulative IPC: 0.121161 (Simulation time: 1 hr 55 min 17 sec) 
Heartbeat CPU 2 instructions: 630000002 cycles: 1074457619 heartbeat IPC: 0.438614 cumulative IPC: 0.374832 (Simulation time: 1 hr 56 min 49 sec) 
Heartbeat CPU 3 instructions: 580000000 cycles: 1075873199 heartbeat IPC: 0.420012 cumulative IPC: 0.353005 (Simulation time: 1 hr 56 min 55 sec) 
Heartbeat CPU 1 instructions: 460000000 cycles: 1083131795 heartbeat IPC: 0.228191 cumulative IPC: 0.232423 (Simulation time: 1 hr 57 min 25 sec) 
Heartbeat CPU 2 instructions: 640000000 cycles: 1100833420 heartbeat IPC: 0.379135 cumulative IPC: 0.374951 (Simulation time: 1 hr 58 min 40 sec) 
Heartbeat CPU 3 instructions: 590000001 cycles: 1105353427 heartbeat IPC: 0.33921 cumulative IPC: 0.35258 (Simulation time: 1 hr 59 min 2 sec) 
Heartbeat CPU 1 instructions: 470000001 cycles: 1125500964 heartbeat IPC: 0.236021 cumulative IPC: 0.232579 (Simulation time: 2 hr 0 min 35 sec) 
Heartbeat CPU 2 instructions: 650000003 cycles: 1126631502 heartbeat IPC: 0.387626 cumulative IPC: 0.375286 (Simulation time: 2 hr 0 min 41 sec) 
Heartbeat CPU 3 instructions: 600000000 cycles: 1128097910 heartbeat IPC: 0.439667 cumulative IPC: 0.354603 (Simulation time: 2 hr 0 min 49 sec) 
Heartbeat CPU 0 instructions: 320000000 cycles: 1139324882 heartbeat IPC: 0.121272 cumulative IPC: 0.12117 (Simulation time: 2 hr 1 min 38 sec) 
Heartbeat CPU 2 instructions: 660000000 cycles: 1151784847 heartbeat IPC: 0.397561 cumulative IPC: 0.375844 (Simulation time: 2 hr 2 min 37 sec) 
Heartbeat CPU 3 instructions: 610000003 cycles: 1152458305 heartbeat IPC: 0.410502 cumulative IPC: 0.35596 (Simulation time: 2 hr 2 min 40 sec) 
Heartbeat CPU 1 instructions: 480000000 cycles: 1165793897 heartbeat IPC: 0.248182 cumulative IPC: 0.233197 (Simulation time: 2 hr 3 min 40 sec) 
Heartbeat CPU 3 instructions: 620000000 cycles: 1176432616 heartbeat IPC: 0.417113 cumulative IPC: 0.357387 (Simulation time: 2 hr 4 min 31 sec) 
Heartbeat CPU 2 instructions: 670000000 cycles: 1176484979 heartbeat IPC: 0.404856 cumulative IPC: 0.376542 (Simulation time: 2 hr 4 min 31 sec) 
Heartbeat CPU 2 instructions: 680000000 cycles: 1203290080 heartbeat IPC: 0.373063 cumulative IPC: 0.376453 (Simulation time: 2 hr 6 min 18 sec) 
Heartbeat CPU 1 instructions: 490000000 cycles: 1209114233 heartbeat IPC: 0.230838 cumulative IPC: 0.233101 (Simulation time: 2 hr 6 min 42 sec) 
Heartbeat CPU 3 instructions: 630000000 cycles: 1216498030 heartbeat IPC: 0.249592 cumulative IPC: 0.353341 (Simulation time: 2 hr 7 min 13 sec) 
Heartbeat CPU 0 instructions: 330000000 cycles: 1221110618 heartbeat IPC: 0.122271 cumulative IPC: 0.121254 (Simulation time: 2 hr 7 min 34 sec) 
Heartbeat CPU 2 instructions: 690000000 cycles: 1228861605 heartbeat IPC: 0.39106 cumulative IPC: 0.376799 (Simulation time: 2 hr 8 min 9 sec) 
Heartbeat CPU 3 instructions: 640000000 cycles: 1244967509 heartbeat IPC: 0.351253 cumulative IPC: 0.353287 (Simulation time: 2 hr 9 min 21 sec) 
Heartbeat CPU 1 instructions: 500000000 cycles: 1249461935 heartbeat IPC: 0.247846 cumulative IPC: 0.233641 (Simulation time: 2 hr 9 min 41 sec) 
Heartbeat CPU 2 instructions: 700000000 cycles: 1254742319 heartbeat IPC: 0.386388 cumulative IPC: 0.377024 (Simulation time: 2 hr 10 min 2 sec) 
Heartbeat CPU 3 instructions: 650000000 cycles: 1277320770 heartbeat IPC: 0.309088 cumulative IPC: 0.352019 (Simulation time: 2 hr 11 min 38 sec) 
Heartbeat CPU 2 instructions: 710000003 cycles: 1278634400 heartbeat IPC: 0.418549 cumulative IPC: 0.377902 (Simulation time: 2 hr 11 min 45 sec) 
Heartbeat CPU 1 instructions: 510000001 cycles: 1294094516 heartbeat IPC: 0.224052 cumulative IPC: 0.233268 (Simulation time: 2 hr 12 min 54 sec) 
Heartbeat CPU 0 instructions: 340000000 cycles: 1302168167 heartbeat IPC: 0.123369 cumulative IPC: 0.121403 (Simulation time: 2 hr 13 min 28 sec) 
Heartbeat CPU 3 instructions: 660000000 cycles: 1302965584 heartbeat IPC: 0.389942 cumulative IPC: 0.352862 (Simulation time: 2 hr 13 min 32 sec) 
Heartbeat CPU 2 instructions: 720000000 cycles: 1303918268 heartbeat IPC: 0.395509 cumulative IPC: 0.378287 (Simulation time: 2 hr 13 min 38 sec) 
Heartbeat CPU 3 instructions: 670000000 cycles: 1326594456 heartbeat IPC: 0.423211 cumulative IPC: 0.354274 (Simulation time: 2 hr 15 min 24 sec) 
Heartbeat CPU 1 instructions: 520000000 cycles: 1337217180 heartbeat IPC: 0.231897 cumulative IPC: 0.233218 (Simulation time: 2 hr 16 min 11 sec) 
Heartbeat CPU 2 instructions: 730000002 cycles: 1337531779 heartbeat IPC: 0.297499 cumulative IPC: 0.376003 (Simulation time: 2 hr 16 min 12 sec) 
Heartbeat CPU 3 instructions: 680000000 cycles: 1355608608 heartbeat IPC: 0.344659 cumulative IPC: 0.354042 (Simulation time: 2 hr 17 min 33 sec) 
Heartbeat CPU 2 instructions: 740000000 cycles: 1365515884 heartbeat IPC: 0.357346 cumulative IPC: 0.375574 (Simulation time: 2 hr 18 min 20 sec) 
Heartbeat CPU 1 instructions: 530000002 cycles: 1383594295 heartbeat IPC: 0.215624 cumulative IPC: 0.232557 (Simulation time: 2 hr 19 min 46 sec) 
Heartbeat CPU 3 instructions: 690000000 cycles: 1385496254 heartbeat IPC: 0.334586 cumulative IPC: 0.353572 (Simulation time: 2 hr 19 min 55 sec) 
Heartbeat CPU 0 instructions: 350000003 cycles: 1386310299 heartbeat IPC: 0.118847 cumulative IPC: 0.121229 (Simulation time: 2 hr 19 min 58 sec) 
Heartbeat CPU 2 instructions: 750000000 cycles: 1391445472 heartbeat IPC: 0.38566 cumulative IPC: 0.375784 (Simulation time: 2 hr 20 min 21 sec) 
Heartbeat CPU 3 instructions: 700000000 cycles: 1411418166 heartbeat IPC: 0.385774 cumulative IPC: 0.354233 (Simulation time: 2 hr 21 min 57 sec) 
Heartbeat CPU 2 instructions: 760000000 cycles: 1416291060 heartbeat IPC: 0.402486 cumulative IPC: 0.376308 (Simulation time: 2 hr 22 min 19 sec) 
Heartbeat CPU 1 instructions: 540000000 cycles: 1426225458 heartbeat IPC: 0.23457 cumulative IPC: 0.232624 (Simulation time: 2 hr 23 min 3 sec) 
Heartbeat CPU 3 instructions: 710000000 cycles: 1439898046 heartbeat IPC: 0.351125 cumulative IPC: 0.354165 (Simulation time: 2 hr 24 min 9 sec) 
Heartbeat CPU 2 instructions: 770000000 cycles: 1442187131 heartbeat IPC: 0.386159 cumulative IPC: 0.376505 (Simulation time: 2 hr 24 min 18 sec) 
Heartbeat CPU 0 instructions: 360000000 cycles: 1468293151 heartbeat IPC: 0.121977 cumulative IPC: 0.121275 (Simulation time: 2 hr 26 min 8 sec) 
Heartbeat CPU 2 instructions: 780000000 cycles: 1468867999 heartbeat IPC: 0.3748 cumulative IPC: 0.37647 (Simulation time: 2 hr 26 min 11 sec) 
Heartbeat CPU 1 instructions: 550000000 cycles: 1472824630 heartbeat IPC: 0.214596 cumulative IPC: 0.23199 (Simulation time: 2 hr 26 min 28 sec) 
Heartbeat CPU 3 instructions: 720000000 cycles: 1477847231 heartbeat IPC: 0.26351 cumulative IPC: 0.351576 (Simulation time: 2 hr 26 min 53 sec) 
Heartbeat CPU 2 instructions: 790000003 cycles: 1494253268 heartbeat IPC: 0.393929 cumulative IPC: 0.3768 (Simulation time: 2 hr 28 min 18 sec) 
Heartbeat CPU 3 instructions: 730000001 cycles: 1504203080 heartbeat IPC: 0.379422 cumulative IPC: 0.352118 (Simulation time: 2 hr 29 min 4 sec) 
Heartbeat CPU 1 instructions: 560000000 cycles: 1515139891 heartbeat IPC: 0.236321 cumulative IPC: 0.232124 (Simulation time: 2 hr 29 min 57 sec) 
Heartbeat CPU 2 instructions: 800000000 cycles: 1520002427 heartbeat IPC: 0.388362 cumulative IPC: 0.377017 (Simulation time: 2 hr 30 min 23 sec) 
Heartbeat CPU 3 instructions: 740000000 cycles: 1529244744 heartbeat IPC: 0.399334 cumulative IPC: 0.352974 (Simulation time: 2 hr 31 min 10 sec) 
Heartbeat CPU 2 instructions: 810000003 cycles: 1545641701 heartbeat IPC: 0.390027 cumulative IPC: 0.377256 (Simulation time: 2 hr 32 min 33 sec) 
Heartbeat CPU 0 instructions: 370000001 cycles: 1549596456 heartbeat IPC: 0.122996 cumulative IPC: 0.121375 (Simulation time: 2 hr 32 min 52 sec) 
Heartbeat CPU 3 instructions: 750000001 cycles: 1551029703 heartbeat IPC: 0.459032 cumulative IPC: 0.354622 (Simulation time: 2 hr 32 min 59 sec) 
Heartbeat CPU 1 instructions: 570000003 cycles: 1558816887 heartbeat IPC: 0.228954 cumulative IPC: 0.232026 (Simulation time: 2 hr 33 min 38 sec) 
Heartbeat CPU 2 instructions: 820000000 cycles: 1570829935 heartbeat IPC: 0.397011 cumulative IPC: 0.377606 (Simulation time: 2 hr 34 min 31 sec) 
Heartbeat CPU 3 instructions: 760000000 cycles: 1576832795 heartbeat IPC: 0.38755 cumulative IPC: 0.355217 (Simulation time: 2 hr 34 min 59 sec) 
Heartbeat CPU 2 instructions: 830000001 cycles: 1595545311 heartbeat IPC: 0.404606 cumulative IPC: 0.378067 (Simulation time: 2 hr 36 min 29 sec) 
Heartbeat CPU 1 instructions: 580000000 cycles: 1603138431 heartbeat IPC: 0.225624 cumulative IPC: 0.23183 (Simulation time: 2 hr 36 min 57 sec) 
Heartbeat CPU 3 instructions: 770000000 cycles: 1608651551 heartbeat IPC: 0.31428 cumulative IPC: 0.354325 (Simulation time: 2 hr 37 min 24 sec) 
Heartbeat CPU 2 instructions: 840000000 cycles: 1624861284 heartbeat IPC: 0.341111 cumulative IPC: 0.377333 (Simulation time: 2 hr 38 min 35 sec) 
Heartbeat CPU 0 instructions: 380000000 cycles: 1629451691 heartbeat IPC: 0.125227 cumulative IPC: 0.121583 (Simulation time: 2 hr 39 min 0 sec) 
Heartbeat CPU 3 instructions: 780000000 cycles: 1636792102 heartbeat IPC: 0.355359 cumulative IPC: 0.354344 (Simulation time: 2 hr 39 min 31 sec) 
Heartbeat CPU 1 instructions: 590000001 cycles: 1647048557 heartbeat IPC: 0.227738 cumulative IPC: 0.231711 (Simulation time: 2 hr 40 min 18 sec) 
Heartbeat CPU 2 instructions: 850000000 cycles: 1659004085 heartbeat IPC: 0.292888 cumulative IPC: 0.375424 (Simulation time: 2 hr 41 min 8 sec) 
Heartbeat CPU 3 instructions: 790000000 cycles: 1670227097 heartbeat IPC: 0.299088 cumulative IPC: 0.35313 (Simulation time: 2 hr 42 min 6 sec) 
Heartbeat CPU 2 instructions: 860000000 cycles: 1682577692 heartbeat IPC: 0.424203 cumulative IPC: 0.376173 (Simulation time: 2 hr 43 min 2 sec) 
Heartbeat CPU 1 instructions: 600000000 cycles: 1692146932 heartbeat IPC: 0.221737 cumulative IPC: 0.231419 (Simulation time: 2 hr 43 min 42 sec) 
Heartbeat CPU 3 instructions: 800000000 cycles: 1701728320 heartbeat IPC: 0.317448 cumulative IPC: 0.352406 (Simulation time: 2 hr 44 min 30 sec) 
Heartbeat CPU 2 instructions: 870000000 cycles: 1708965133 heartbeat IPC: 0.378968 cumulative IPC: 0.376221 (Simulation time: 2 hr 44 min 58 sec) 
Heartbeat CPU 0 instructions: 390000000 cycles: 1714368628 heartbeat IPC: 0.117762 cumulative IPC: 0.121376 (Simulation time: 2 hr 45 min 21 sec) 
Heartbeat CPU 3 instructions: 810000003 cycles: 1732955130 heartbeat IPC: 0.320238 cumulative IPC: 0.351772 (Simulation time: 2 hr 46 min 47 sec) 
Heartbeat CPU 1 instructions: 610000000 cycles: 1735229624 heartbeat IPC: 0.232112 cumulative IPC: 0.231438 (Simulation time: 2 hr 46 min 59 sec) 
Heartbeat CPU 2 instructions: 880000000 cycles: 1735585595 heartbeat IPC: 0.375651 cumulative IPC: 0.376211 (Simulation time: 2 hr 47 min 0 sec) 
Heartbeat CPU 3 instructions: 820000000 cycles: 1754829203 heartbeat IPC: 0.457162 cumulative IPC: 0.353207 (Simulation time: 2 hr 48 min 34 sec) 
Heartbeat CPU 2 instructions: 890000000 cycles: 1762167695 heartbeat IPC: 0.376193 cumulative IPC: 0.376211 (Simulation time: 2 hr 49 min 14 sec) 
Heartbeat CPU 3 instructions: 830000002 cycles: 1777098437 heartbeat IPC: 0.44905 cumulative IPC: 0.354518 (Simulation time: 2 hr 50 min 22 sec) 
Heartbeat CPU 1 instructions: 620000000 cycles: 1780602079 heartbeat IPC: 0.220398 cumulative IPC: 0.231131 (Simulation time: 2 hr 50 min 39 sec) 
Heartbeat CPU 2 instructions: 900000000 cycles: 1790813265 heartbeat IPC: 0.349094 cumulative IPC: 0.375738 (Simulation time: 2 hr 51 min 25 sec) 
Heartbeat CPU 0 instructions: 400000000 cycles: 1797397625 heartbeat IPC: 0.12044 cumulative IPC: 0.121329 (Simulation time: 2 hr 51 min 53 sec) 
Heartbeat CPU 3 instructions: 840000000 cycles: 1804401176 heartbeat IPC: 0.366264 cumulative IPC: 0.354712 (Simulation time: 2 hr 52 min 28 sec) 
Heartbeat CPU 2 instructions: 910000000 cycles: 1818669124 heartbeat IPC: 0.358991 cumulative IPC: 0.375458 (Simulation time: 2 hr 53 min 37 sec) 
Heartbeat CPU 1 instructions: 630000003 cycles: 1823951295 heartbeat IPC: 0.230685 cumulative IPC: 0.231119 (Simulation time: 2 hr 54 min 1 sec) 
Heartbeat CPU 3 instructions: 850000001 cycles: 1829342091 heartbeat IPC: 0.400948 cumulative IPC: 0.355398 (Simulation time: 2 hr 54 min 27 sec) 
Heartbeat CPU 2 instructions: 920000000 cycles: 1845579763 heartbeat IPC: 0.3716 cumulative IPC: 0.375397 (Simulation time: 2 hr 55 min 41 sec) 
Heartbeat CPU 3 instructions: 860000000 cycles: 1860333117 heartbeat IPC: 0.322674 cumulative IPC: 0.354806 (Simulation time: 2 hr 56 min 45 sec) 
Heartbeat CPU 1 instructions: 640000000 cycles: 1869751117 heartbeat IPC: 0.218341 cumulative IPC: 0.230779 (Simulation time: 2 hr 57 min 29 sec) 
Heartbeat CPU 2 instructions: 930000000 cycles: 1873811253 heartbeat IPC: 0.354214 cumulative IPC: 0.37505 (Simulation time: 2 hr 57 min 48 sec) 
Heartbeat CPU 0 instructions: 410000000 cycles: 1880482157 heartbeat IPC: 0.120359 cumulative IPC: 0.121282 (Simulation time: 2 hr 58 min 17 sec) 
Heartbeat CPU 3 instructions: 870000002 cycles: 1887335477 heartbeat IPC: 0.370338 cumulative IPC: 0.355047 (Simulation time: 2 hr 58 min 50 sec) 
Heartbeat CPU 2 instructions: 940000000 cycles: 1899187613 heartbeat IPC: 0.394068 cumulative IPC: 0.375326 (Simulation time: 2 hr 59 min 40 sec) 
Heartbeat CPU 1 instructions: 650000000 cycles: 1916233219 heartbeat IPC: 0.215137 cumulative IPC: 0.230368 (Simulation time: 3 hr 0 min 52 sec) 
Heartbeat CPU 3 instructions: 880000000 cycles: 1926322060 heartbeat IPC: 0.256498 cumulative IPC: 0.352885 (Simulation time: 3 hr 1 min 38 sec) 
Heartbeat CPU 2 instructions: 950000000 cycles: 1927167889 heartbeat IPC: 0.357395 cumulative IPC: 0.375044 (Simulation time: 3 hr 1 min 42 sec) 
Heartbeat CPU 3 instructions: 890000000 cycles: 1956222991 heartbeat IPC: 0.334438 cumulative IPC: 0.35258 (Simulation time: 3 hr 3 min 54 sec) 
Heartbeat CPU 1 instructions: 660000000 cycles: 1959940185 heartbeat IPC: 0.228796 cumulative IPC: 0.23033 (Simulation time: 3 hr 4 min 10 sec) 
Heartbeat CPU 0 instructions: 420000000 cycles: 1964029801 heartbeat IPC: 0.119692 cumulative IPC: 0.121209 (Simulation time: 3 hr 4 min 27 sec) 
Heartbeat CPU 2 instructions: 960000000 cycles: 1964797953 heartbeat IPC: 0.265745 cumulative IPC: 0.372779 (Simulation time: 3 hr 4 min 30 sec) 
Heartbeat CPU 3 instructions: 900000000 cycles: 1985045165 heartbeat IPC: 0.346955 cumulative IPC: 0.352492 (Simulation time: 3 hr 6 min 11 sec) 
Heartbeat CPU 2 instructions: 970000002 cycles: 1988285341 heartbeat IPC: 0.425761 cumulative IPC: 0.373455 (Simulation time: 3 hr 6 min 25 sec) 
Heartbeat CPU 1 instructions: 670000000 cycles: 2006726897 heartbeat IPC: 0.213736 cumulative IPC: 0.229912 (Simulation time: 3 hr 7 min 53 sec) 
Heartbeat CPU 3 instructions: 910000002 cycles: 2008654169 heartbeat IPC: 0.423567 cumulative IPC: 0.353394 (Simulation time: 3 hr 8 min 3 sec) 
Heartbeat CPU 2 instructions: 980000000 cycles: 2015811341 heartbeat IPC: 0.363293 cumulative IPC: 0.373306 (Simulation time: 3 hr 8 min 41 sec) 
Heartbeat CPU 3 instructions: 920000000 cycles: 2032083667 heartbeat IPC: 0.426812 cumulative IPC: 0.354308 (Simulation time: 3 hr 10 min 1 sec) 
Heartbeat CPU 2 instructions: 990000001 cycles: 2041830805 heartbeat IPC: 0.384328 cumulative IPC: 0.373457 (Simulation time: 3 hr 10 min 52 sec) 
Heartbeat CPU 0 instructions: 430000003 cycles: 2045385311 heartbeat IPC: 0.122917 cumulative IPC: 0.121282 (Simulation time: 3 hr 11 min 10 sec) 
Heartbeat CPU 1 instructions: 680000000 cycles: 2049102241 heartbeat IPC: 0.235986 cumulative IPC: 0.230047 (Simulation time: 3 hr 11 min 24 sec) 
Heartbeat CPU 3 instructions: 930000003 cycles: 2058532145 heartbeat IPC: 0.378094 cumulative IPC: 0.354637 (Simulation time: 3 hr 12 min 8 sec) 
Heartbeat CPU 2 instructions: 1000000000 cycles: 2068310957 heartbeat IPC: 0.377641 cumulative IPC: 0.373515 (Simulation time: 3 hr 12 min 54 sec) 
Heartbeat CPU 3 instructions: 940000000 cycles: 2082552446 heartbeat IPC: 0.416314 cumulative IPC: 0.355403 (Simulation time: 3 hr 14 min 7 sec) 
Heartbeat CPU 1 instructions: 690000001 cycles: 2093852627 heartbeat IPC: 0.223462 cumulative IPC: 0.229896 (Simulation time: 3 hr 14 min 57 sec) 
Heartbeat CPU 2 instructions: 1010000003 cycles: 2094576387 heartbeat IPC: 0.380729 cumulative IPC: 0.373612 (Simulation time: 3 hr 15 min 0 sec) 
Heartbeat CPU 3 instructions: 950000001 cycles: 2119063324 heartbeat IPC: 0.273891 cumulative IPC: 0.353893 (Simulation time: 3 hr 16 min 50 sec) 
Heartbeat CPU 2 instructions: 1020000000 cycles: 2119747399 heartbeat IPC: 0.397282 cumulative IPC: 0.373915 (Simulation time: 3 hr 16 min 54 sec) 
Heartbeat CPU 0 instructions: 440000000 cycles: 2128666752 heartbeat IPC: 0.120075 cumulative IPC: 0.121231 (Simulation time: 3 hr 17 min 37 sec) 
Heartbeat CPU 1 instructions: 700000000 cycles: 2136238180 heartbeat IPC: 0.235929 cumulative IPC: 0.230025 (Simulation time: 3 hr 18 min 15 sec) 
Heartbeat CPU 3 instructions: 960000000 cycles: 2145152893 heartbeat IPC: 0.383295 cumulative IPC: 0.354277 (Simulation time: 3 hr 19 min 1 sec) 
Heartbeat CPU 2 instructions: 1030000002 cycles: 2145742877 heartbeat IPC: 0.384682 cumulative IPC: 0.374055 (Simulation time: 3 hr 19 min 4 sec) 
Heartbeat CPU 3 instructions: 970000001 cycles: 2170530614 heartbeat IPC: 0.394046 cumulative IPC: 0.354776 (Simulation time: 3 hr 21 min 6 sec) 
Heartbeat CPU 2 instructions: 1040000000 cycles: 2171687813 heartbeat IPC: 0.385432 cumulative IPC: 0.374201 (Simulation time: 3 hr 21 min 11 sec) 
Heartbeat CPU 1 instructions: 710000000 cycles: 2175102595 heartbeat IPC: 0.257305 cumulative IPC: 0.230548 (Simulation time: 3 hr 21 min 28 sec) 
Heartbeat CPU 3 instructions: 980000000 cycles: 2195419487 heartbeat IPC: 0.401786 cumulative IPC: 0.355348 (Simulation time: 3 hr 23 min 10 sec) 
Heartbeat CPU 2 instructions: 1050000002 cycles: 2198288663 heartbeat IPC: 0.375928 cumulative IPC: 0.374223 (Simulation time: 3 hr 23 min 24 sec) 
Heartbeat CPU 1 instructions: 720000000 cycles: 2210607834 heartbeat IPC: 0.281649 cumulative IPC: 0.231428 (Simulation time: 3 hr 24 min 21 sec) 
Heartbeat CPU 0 instructions: 450000000 cycles: 2213402374 heartbeat IPC: 0.118014 cumulative IPC: 0.121099 (Simulation time: 3 hr 24 min 34 sec) 
Heartbeat CPU 3 instructions: 990000003 cycles: 2219398019 heartbeat IPC: 0.41704 cumulative IPC: 0.356062 (Simulation time: 3 hr 25 min 6 sec) 
Heartbeat CPU 2 instructions: 1060000000 cycles: 2225721070 heartbeat IPC: 0.364532 cumulative IPC: 0.374095 (Simulation time: 3 hr 25 min 36 sec) 
Heartbeat CPU 3 instructions: 1000000000 cycles: 2248137749 heartbeat IPC: 0.34795 cumulative IPC: 0.355951 (Simulation time: 3 hr 27 min 14 sec) 
Heartbeat CPU 2 instructions: 1070000001 cycles: 2251190364 heartbeat IPC: 0.39263 cumulative IPC: 0.37432 (Simulation time: 3 hr 27 min 30 sec) 
Heartbeat CPU 1 instructions: 730000003 cycles: 2251956342 heartbeat IPC: 0.241847 cumulative IPC: 0.231633 (Simulation time: 3 hr 27 min 33 sec) 
Heartbeat CPU 3 instructions: 1010000003 cycles: 2272152328 heartbeat IPC: 0.416414 cumulative IPC: 0.356635 (Simulation time: 3 hr 29 min 8 sec) 
Heartbeat CPU 2 instructions: 1080000000 cycles: 2287037344 heartbeat IPC: 0.278964 cumulative IPC: 0.372721 (Simulation time: 3 hr 30 min 15 sec) 
Heartbeat CPU 1 instructions: 740000000 cycles: 2293339941 heartbeat IPC: 0.241642 cumulative IPC: 0.231826 (Simulation time: 3 hr 30 min 41 sec) 
Heartbeat CPU 0 instructions: 460000000 cycles: 2296653007 heartbeat IPC: 0.120119 cumulative IPC: 0.121061 (Simulation time: 3 hr 30 min 57 sec) 
Heartbeat CPU 3 instructions: 1020000000 cycles: 2299135592 heartbeat IPC: 0.3706 cumulative IPC: 0.35681 (Simulation time: 3 hr 31 min 11 sec) 
Heartbeat CPU 2 instructions: 1090000000 cycles: 2311243359 heartbeat IPC: 0.41312 cumulative IPC: 0.373173 (Simulation time: 3 hr 32 min 6 sec) 
Heartbeat CPU 1 instructions: 750000001 cycles: 2335760613 heartbeat IPC: 0.235734 cumulative IPC: 0.231902 (Simulation time: 3 hr 33 min 48 sec) 
Heartbeat CPU 3 instructions: 1030000000 cycles: 2337404546 heartbeat IPC: 0.261308 cumulative IPC: 0.35514 (Simulation time: 3 hr 33 min 55 sec) 
Heartbeat CPU 2 instructions: 1100000000 cycles: 2338104083 heartbeat IPC: 0.372291 cumulative IPC: 0.373162 (Simulation time: 3 hr 33 min 58 sec) 
Heartbeat CPU 2 instructions: 1110000000 cycles: 2363772019 heartbeat IPC: 0.389591 cumulative IPC: 0.373353 (Simulation time: 3 hr 35 min 50 sec) 
Heartbeat CPU 3 instructions: 1040000000 cycles: 2368241845 heartbeat IPC: 0.324283 cumulative IPC: 0.354712 (Simulation time: 3 hr 36 min 13 sec) 
Heartbeat CPU 1 instructions: 760000000 cycles: 2379410867 heartbeat IPC: 0.229094 cumulative IPC: 0.231847 (Simulation time: 3 hr 37 min 5 sec) 
Heartbeat CPU 0 instructions: 470000000 cycles: 2381814491 heartbeat IPC: 0.117424 cumulative IPC: 0.120923 (Simulation time: 3 hr 37 min 16 sec) 
Heartbeat CPU 2 instructions: 1120000000 cycles: 2391264612 heartbeat IPC: 0.363734 cumulative IPC: 0.373235 (Simulation time: 3 hr 38 min 2 sec) 
Heartbeat CPU 3 instructions: 1050000003 cycles: 2397223792 heartbeat IPC: 0.345042 cumulative IPC: 0.354587 (Simulation time: 3 hr 38 min 29 sec) 
Heartbeat CPU 2 instructions: 1130000000 cycles: 2416772108 heartbeat IPC: 0.392042 cumulative IPC: 0.373446 (Simulation time: 3 hr 40 min 4 sec) 
Heartbeat CPU 3 instructions: 1060000000 cycles: 2421634796 heartbeat IPC: 0.409651 cumulative IPC: 0.355178 (Simulation time: 3 hr 40 min 28 sec) 
Heartbeat CPU 1 instructions: 770000003 cycles: 2422761668 heartbeat IPC: 0.230676 cumulative IPC: 0.231824 (Simulation time: 3 hr 40 min 32 sec) 
Heartbeat CPU 2 instructions: 1140000000 cycles: 2443458391 heartbeat IPC: 0.374724 cumulative IPC: 0.373461 (Simulation time: 3 hr 42 min 16 sec) 
Heartbeat CPU 3 instructions: 1070000000 cycles: 2444604150 heartbeat IPC: 0.435363 cumulative IPC: 0.355981 (Simulation time: 3 hr 42 min 22 sec) 
Heartbeat CPU 0 instructions: 480000000 cycles: 2463798843 heartbeat IPC: 0.121974 cumulative IPC: 0.12096 (Simulation time: 3 hr 43 min 54 sec) 
Heartbeat CPU 1 instructions: 780000000 cycles: 2465776461 heartbeat IPC: 0.232478 cumulative IPC: 0.231837 (Simulation time: 3 hr 44 min 3 sec) 
Heartbeat CPU 2 instructions: 1150000002 cycles: 2469575356 heartbeat IPC: 0.382893 cumulative IPC: 0.373567 (Simulation time: 3 hr 44 min 20 sec) 
Heartbeat CPU 3 instructions: 1080000000 cycles: 2471571491 heartbeat IPC: 0.370819 cumulative IPC: 0.356153 (Simulation time: 3 hr 44 min 30 sec) 
Heartbeat CPU 2 instructions: 1160000000 cycles: 2495088939 heartbeat IPC: 0.391948 cumulative IPC: 0.373767 (Simulation time: 3 hr 46 min 17 sec) 
Heartbeat CPU 3 instructions: 1090000001 cycles: 2502888362 heartbeat IPC: 0.319317 cumulative IPC: 0.355663 (Simulation time: 3 hr 46 min 55 sec) 
Heartbeat CPU 1 instructions: 790000001 cycles: 2510843928 heartbeat IPC: 0.22189 cumulative IPC: 0.231647 (Simulation time: 3 hr 47 min 32 sec) 
Heartbeat CPU 2 instructions: 1170000002 cycles: 2520617023 heartbeat IPC: 0.391726 cumulative IPC: 0.373961 (Simulation time: 3 hr 48 min 23 sec) 
Heartbeat CPU 3 instructions: 1100000000 cycles: 2532775076 heartbeat IPC: 0.334597 cumulative IPC: 0.355399 (Simulation time: 3 hr 49 min 16 sec) 
Heartbeat CPU 0 instructions: 490000001 cycles: 2542942682 heartbeat IPC: 0.126352 cumulative IPC: 0.121138 (Simulation time: 3 hr 49 min 58 sec) 
Heartbeat CPU 2 instructions: 1180000000 cycles: 2546271694 heartbeat IPC: 0.389792 cumulative IPC: 0.37413 (Simulation time: 3 hr 50 min 13 sec) 
Heartbeat CPU 1 instructions: 800000000 cycles: 2553594188 heartbeat IPC: 0.233917 cumulative IPC: 0.231687 (Simulation time: 3 hr 50 min 49 sec) 
Heartbeat CPU 3 instructions: 1110000001 cycles: 2561396576 heartbeat IPC: 0.349388 cumulative IPC: 0.355327 (Simulation time: 3 hr 51 min 33 sec) 
Heartbeat CPU 2 instructions: 1190000002 cycles: 2571893359 heartbeat IPC: 0.390295 cumulative IPC: 0.374301 (Simulation time: 3 hr 52 min 23 sec) 
Heartbeat CPU 1 instructions: 810000002 cycles: 2594989794 heartbeat IPC: 0.241572 cumulative IPC: 0.231854 (Simulation time: 3 hr 54 min 1 sec) 
Heartbeat CPU 3 instructions: 1120000000 cycles: 2600946078 heartbeat IPC: 0.252848 cumulative IPC: 0.353674 (Simulation time: 3 hr 54 min 27 sec) 
Heartbeat CPU 2 instructions: 1200000000 cycles: 2610183133 heartbeat IPC: 0.261166 cumulative IPC: 0.372541 (Simulation time: 3 hr 55 min 5 sec) 
Heartbeat CPU 0 instructions: 500000000 cycles: 2623797291 heartbeat IPC: 0.123679 cumulative IPC: 0.121221 (Simulation time: 3 hr 56 min 14 sec) 
Heartbeat CPU 3 instructions: 1130000001 cycles: 2630100462 heartbeat IPC: 0.343002 cumulative IPC: 0.353549 (Simulation time: 3 hr 56 min 52 sec) 
Heartbeat CPU 2 instructions: 1210000000 cycles: 2633658074 heartbeat IPC: 0.425986 cumulative IPC: 0.373046 (Simulation time: 3 hr 57 min 13 sec) 
Heartbeat CPU 1 instructions: 820000000 cycles: 2640847595 heartbeat IPC: 0.218065 cumulative IPC: 0.231601 (Simulation time: 3 hr 57 min 52 sec) 
Heartbeat CPU 3 instructions: 1140000000 cycles: 2650138326 heartbeat IPC: 0.499055 cumulative IPC: 0.354715 (Simulation time: 3 hr 58 min 35 sec) 
Heartbeat CPU 2 instructions: 1220000000 cycles: 2658837932 heartbeat IPC: 0.397143 cumulative IPC: 0.373288 (Simulation time: 3 hr 59 min 14 sec) 
Heartbeat CPU 3 instructions: 1150000002 cycles: 2675907264 heartbeat IPC: 0.388064 cumulative IPC: 0.355055 (Simulation time: 4 hr 0 min 41 sec) 
Heartbeat CPU 1 instructions: 830000002 cycles: 2682266028 heartbeat IPC: 0.241438 cumulative IPC: 0.231762 (Simulation time: 4 hr 1 min 11 sec) 
Heartbeat CPU 2 instructions: 1230000002 cycles: 2685001862 heartbeat IPC: 0.382206 cumulative IPC: 0.37338 (Simulation time: 4 hr 1 min 28 sec) 
Heartbeat CPU 3 instructions: 1160000000 cycles: 2704236485 heartbeat IPC: 0.352992 cumulative IPC: 0.355032 (Simulation time: 4 hr 2 min 59 sec) 
Heartbeat CPU 0 instructions: 510000003 cycles: 2706437900 heartbeat IPC: 0.121006 cumulative IPC: 0.121214 (Simulation time: 4 hr 3 min 11 sec) 
Heartbeat CPU 2 instructions: 1240000000 cycles: 2710002834 heartbeat IPC: 0.399984 cumulative IPC: 0.373639 (Simulation time: 4 hr 3 min 28 sec) 
Heartbeat CPU 3 instructions: 1170000003 cycles: 2721490808 heartbeat IPC: 0.579565 cumulative IPC: 0.356538 (Simulation time: 4 hr 4 min 33 sec) 
Heartbeat CPU 1 instructions: 840000000 cycles: 2725453520 heartbeat IPC: 0.231548 cumulative IPC: 0.231758 (Simulation time: 4 hr 4 min 56 sec) 
Heartbeat CPU 2 instructions: 1250000000 cycles: 2734957539 heartbeat IPC: 0.400726 cumulative IPC: 0.373901 (Simulation time: 4 hr 5 min 42 sec) 
Heartbeat CPU 3 instructions: 1180000000 cycles: 2750420073 heartbeat IPC: 0.345671 cumulative IPC: 0.356417 (Simulation time: 4 hr 6 min 48 sec) 
Heartbeat CPU 2 instructions: 1260000000 cycles: 2761242937 heartbeat IPC: 0.380439 cumulative IPC: 0.373966 (Simulation time: 4 hr 7 min 36 sec) 
Heartbeat CPU 1 instructions: 850000002 cycles: 2768081366 heartbeat IPC: 0.234588 cumulative IPC: 0.231804 (Simulation time: 4 hr 8 min 12 sec) 
Heartbeat CPU 3 instructions: 1190000000 cycles: 2773714482 heartbeat IPC: 0.429288 cumulative IPC: 0.357064 (Simulation time: 4 hr 8 min 41 sec) 
Heartbeat CPU 2 instructions: 1270000001 cycles: 2786623008 heartbeat IPC: 0.39401 cumulative IPC: 0.374159 (Simulation time: 4 hr 9 min 39 sec) 
Heartbeat CPU 0 instructions: 520000000 cycles: 2788058088 heartbeat IPC: 0.122519 cumulative IPC: 0.121255 (Simulation time: 4 hr 9 min 47 sec) 
Heartbeat CPU 3 instructions: 1200000000 cycles: 2800441699 heartbeat IPC: 0.37415 cumulative IPC: 0.357236 (Simulation time: 4 hr 10 min 48 sec) 
Heartbeat CPU 2 instructions: 1280000000 cycles: 2811014673 heartbeat IPC: 0.409976 cumulative IPC: 0.374487 (Simulation time: 4 hr 11 min 40 sec) 
Heartbeat CPU 1 instructions: 860000000 cycles: 2812283588 heartbeat IPC: 0.226233 cumulative IPC: 0.231712 (Simulation time: 4 hr 11 min 48 sec) 
Finished CPU 2 instructions: 1000000000 cycles: 2671139912 cumulative IPC: 0.374372 (Simulation time: 4 hr 12 min 27 sec) 
Heartbeat CPU 3 instructions: 1210000000 cycles: 2829899512 heartbeat IPC: 0.339469 cumulative IPC: 0.357041 (Simulation time: 4 hr 13 min 6 sec) 
Heartbeat CPU 2 instructions: 1290000001 cycles: 2835943684 heartbeat IPC: 0.401139 cumulative IPC: 0.374735 (Simulation time: 4 hr 13 min 34 sec) 
Heartbeat CPU 1 instructions: 870000001 cycles: 2855420174 heartbeat IPC: 0.231822 cumulative IPC: 0.231713 (Simulation time: 4 hr 15 min 6 sec) 
Heartbeat CPU 2 instructions: 1300000000 cycles: 2860638796 heartbeat IPC: 0.404938 cumulative IPC: 0.37501 (Simulation time: 4 hr 15 min 30 sec) 
Heartbeat CPU 3 instructions: 1220000000 cycles: 2862610550 heartbeat IPC: 0.305707 cumulative IPC: 0.356422 (Simulation time: 4 hr 15 min 40 sec) 
Heartbeat CPU 0 instructions: 530000001 cycles: 2868846447 heartbeat IPC: 0.12378 cumulative IPC: 0.12133 (Simulation time: 4 hr 16 min 8 sec) 
Heartbeat CPU 2 instructions: 1310000000 cycles: 2884863771 heartbeat IPC: 0.412797 cumulative IPC: 0.375344 (Simulation time: 4 hr 17 min 18 sec) 
Heartbeat CPU 1 instructions: 880000000 cycles: 2901204926 heartbeat IPC: 0.218413 cumulative IPC: 0.231492 (Simulation time: 4 hr 18 min 25 sec) 
Heartbeat CPU 3 instructions: 1230000000 cycles: 2902656054 heartbeat IPC: 0.249716 cumulative IPC: 0.35487 (Simulation time: 4 hr 18 min 31 sec) 
Heartbeat CPU 2 instructions: 1320000000 cycles: 2925307431 heartbeat IPC: 0.247258 cumulative IPC: 0.373479 (Simulation time: 4 hr 20 min 13 sec) 
Heartbeat CPU 3 instructions: 1240000000 cycles: 2929967326 heartbeat IPC: 0.366149 cumulative IPC: 0.354981 (Simulation time: 4 hr 20 min 43 sec) 
Heartbeat CPU 1 instructions: 890000001 cycles: 2946501609 heartbeat IPC: 0.220767 cumulative IPC: 0.231318 (Simulation time: 4 hr 22 min 6 sec) 
Heartbeat CPU 2 instructions: 1330000001 cycles: 2947845422 heartbeat IPC: 0.443695 cumulative IPC: 0.374044 (Simulation time: 4 hr 22 min 11 sec) 
Heartbeat CPU 0 instructions: 540000000 cycles: 2953612138 heartbeat IPC: 0.117972 cumulative IPC: 0.121228 (Simulation time: 4 hr 22 min 38 sec) 
Heartbeat CPU 3 instructions: 1250000000 cycles: 2956987441 heartbeat IPC: 0.370095 cumulative IPC: 0.355126 (Simulation time: 4 hr 22 min 56 sec) 
Finished CPU 3 instructions: 1000000003 cycles: 2814673717 cumulative IPC: 0.355281 (Simulation time: 4 hr 23 min 30 sec) 
Heartbeat CPU 2 instructions: 1340000000 cycles: 2971216804 heartbeat IPC: 0.427874 cumulative IPC: 0.37449 (Simulation time: 4 hr 24 min 5 sec) 
Heartbeat CPU 3 instructions: 1260000000 cycles: 2981777494 heartbeat IPC: 0.403388 cumulative IPC: 0.355549 (Simulation time: 4 hr 24 min 54 sec) 
Heartbeat CPU 1 instructions: 900000000 cycles: 2989450394 heartbeat IPC: 0.232835 cumulative IPC: 0.231341 (Simulation time: 4 hr 25 min 32 sec) 
Heartbeat CPU 2 instructions: 1350000000 cycles: 2996119780 heartbeat IPC: 0.401558 cumulative IPC: 0.374726 (Simulation time: 4 hr 26 min 2 sec) 
Heartbeat CPU 3 instructions: 1270000002 cycles: 3006897911 heartbeat IPC: 0.398083 cumulative IPC: 0.355923 (Simulation time: 4 hr 26 min 53 sec) 
Heartbeat CPU 2 instructions: 1360000000 cycles: 3020084595 heartbeat IPC: 0.417278 cumulative IPC: 0.375082 (Simulation time: 4 hr 27 min 52 sec) 
Heartbeat CPU 1 instructions: 910000001 cycles: 3033594369 heartbeat IPC: 0.226532 cumulative IPC: 0.231268 (Simulation time: 4 hr 28 min 58 sec) 
Heartbeat CPU 0 instructions: 550000003 cycles: 3034414217 heartbeat IPC: 0.123759 cumulative IPC: 0.121299 (Simulation time: 4 hr 29 min 2 sec) 
Heartbeat CPU 3 instructions: 1280000000 cycles: 3037207003 heartbeat IPC: 0.329934 cumulative IPC: 0.35565 (Simulation time: 4 hr 29 min 13 sec) 
Heartbeat CPU 2 instructions: 1370000000 cycles: 3044099991 heartbeat IPC: 0.4164 cumulative IPC: 0.375424 (Simulation time: 4 hr 29 min 41 sec) 
Heartbeat CPU 3 instructions: 1290000001 cycles: 3066228365 heartbeat IPC: 0.344574 cumulative IPC: 0.35554 (Simulation time: 4 hr 31 min 27 sec) 
Heartbeat CPU 2 instructions: 1380000000 cycles: 3071038960 heartbeat IPC: 0.371209 cumulative IPC: 0.375386 (Simulation time: 4 hr 31 min 50 sec) 
Heartbeat CPU 1 instructions: 920000000 cycles: 3077934930 heartbeat IPC: 0.225527 cumulative IPC: 0.231181 (Simulation time: 4 hr 32 min 21 sec) 
Heartbeat CPU 3 instructions: 1300000000 cycles: 3096802025 heartbeat IPC: 0.327079 cumulative IPC: 0.355245 (Simulation time: 4 hr 33 min 45 sec) 
Heartbeat CPU 2 instructions: 1390000000 cycles: 3099202048 heartbeat IPC: 0.355075 cumulative IPC: 0.375192 (Simulation time: 4 hr 33 min 54 sec) 
Heartbeat CPU 0 instructions: 560000000 cycles: 3114388284 heartbeat IPC: 0.125041 cumulative IPC: 0.1214 (Simulation time: 4 hr 34 min 55 sec) 
Heartbeat CPU 1 instructions: 930000001 cycles: 3125320529 heartbeat IPC: 0.211035 cumulative IPC: 0.23086 (Simulation time: 4 hr 35 min 41 sec) 
Heartbeat CPU 2 instructions: 1400000000 cycles: 3127907065 heartbeat IPC: 0.348371 cumulative IPC: 0.374933 (Simulation time: 4 hr 35 min 52 sec) 
Heartbeat CPU 3 instructions: 1310000000 cycles: 3138729869 heartbeat IPC: 0.238505 cumulative IPC: 0.353607 (Simulation time: 4 hr 36 min 40 sec) 
Heartbeat CPU 2 instructions: 1410000003 cycles: 3156186457 heartbeat IPC: 0.353615 cumulative IPC: 0.374733 (Simulation time: 4 hr 38 min 2 sec) 
Heartbeat CPU 3 instructions: 1320000000 cycles: 3165116754 heartbeat IPC: 0.378976 cumulative IPC: 0.353829 (Simulation time: 4 hr 38 min 43 sec) 
Heartbeat CPU 1 instructions: 940000000 cycles: 3171253918 heartbeat IPC: 0.217707 cumulative IPC: 0.23066 (Simulation time: 4 hr 39 min 11 sec) 
Heartbeat CPU 2 instructions: 1420000000 cycles: 3183389115 heartbeat IPC: 0.367611 cumulative IPC: 0.374669 (Simulation time: 4 hr 40 min 5 sec) 
Heartbeat CPU 3 instructions: 1330000000 cycles: 3195515557 heartbeat IPC: 0.32896 cumulative IPC: 0.353581 (Simulation time: 4 hr 40 min 58 sec) 
Heartbeat CPU 0 instructions: 570000000 cycles: 3200034328 heartbeat IPC: 0.11676 cumulative IPC: 0.12127 (Simulation time: 4 hr 41 min 22 sec) 
Heartbeat CPU 1 instructions: 950000002 cycles: 3212739086 heartbeat IPC: 0.24105 cumulative IPC: 0.230801 (Simulation time: 4 hr 42 min 20 sec) 
Heartbeat CPU 2 instructions: 1430000000 cycles: 3217012212 heartbeat IPC: 0.297415 cumulative IPC: 0.373822 (Simulation time: 4 hr 42 min 39 sec) 
Heartbeat CPU 3 instructions: 1340000000 cycles: 3221619953 heartbeat IPC: 0.383077 cumulative IPC: 0.353832 (Simulation time: 4 hr 43 min 0 sec) 
Heartbeat CPU 2 instructions: 1440000000 cycles: 3240879282 heartbeat IPC: 0.418987 cumulative IPC: 0.374171 (Simulation time: 4 hr 44 min 39 sec) 
Heartbeat CPU 3 instructions: 1350000003 cycles: 3251974171 heartbeat IPC: 0.329444 cumulative IPC: 0.353593 (Simulation time: 4 hr 45 min 26 sec) 
Heartbeat CPU 1 instructions: 960000000 cycles: 3258846128 heartbeat IPC: 0.216887 cumulative IPC: 0.230595 (Simulation time: 4 hr 46 min 0 sec) 
Heartbeat CPU 2 instructions: 1450000002 cycles: 3267509665 heartbeat IPC: 0.375511 cumulative IPC: 0.374182 (Simulation time: 4 hr 46 min 44 sec) 
Heartbeat CPU 3 instructions: 1360000000 cycles: 3272891530 heartbeat IPC: 0.478072 cumulative IPC: 0.354427 (Simulation time: 4 hr 47 min 10 sec) 
Heartbeat CPU 0 instructions: 580000000 cycles: 3281055794 heartbeat IPC: 0.123424 cumulative IPC: 0.121325 (Simulation time: 4 hr 47 min 48 sec) 
Heartbeat CPU 2 instructions: 1460000000 cycles: 3291821771 heartbeat IPC: 0.411318 cumulative IPC: 0.37447 (Simulation time: 4 hr 48 min 46 sec) 
Heartbeat CPU 3 instructions: 1370000000 cycles: 3297542732 heartbeat IPC: 0.40566 cumulative IPC: 0.354828 (Simulation time: 4 hr 49 min 6 sec) 
Heartbeat CPU 1 instructions: 970000002 cycles: 3300744610 heartbeat IPC: 0.238672 cumulative IPC: 0.230702 (Simulation time: 4 hr 49 min 22 sec) 
Heartbeat CPU 2 instructions: 1470000002 cycles: 3317616999 heartbeat IPC: 0.387669 cumulative IPC: 0.374577 (Simulation time: 4 hr 50 min 38 sec) 
Heartbeat CPU 3 instructions: 1380000000 cycles: 3324792077 heartbeat IPC: 0.366981 cumulative IPC: 0.354932 (Simulation time: 4 hr 51 min 13 sec) 
Heartbeat CPU 2 instructions: 1480000000 cycles: 3345092382 heartbeat IPC: 0.363962 cumulative IPC: 0.374486 (Simulation time: 4 hr 52 min 39 sec) 
Heartbeat CPU 1 instructions: 980000000 cycles: 3346266213 heartbeat IPC: 0.219676 cumulative IPC: 0.230545 (Simulation time: 4 hr 52 min 43 sec) 
Heartbeat CPU 3 instructions: 1390000002 cycles: 3358269400 heartbeat IPC: 0.29871 cumulative IPC: 0.354346 (Simulation time: 4 hr 53 min 39 sec) 
Heartbeat CPU 0 instructions: 590000000 cycles: 3364364783 heartbeat IPC: 0.120035 cumulative IPC: 0.121292 (Simulation time: 4 hr 54 min 3 sec) 
Heartbeat CPU 2 instructions: 1490000001 cycles: 3369406785 heartbeat IPC: 0.411279 cumulative IPC: 0.374764 (Simulation time: 4 hr 54 min 25 sec) 
Heartbeat CPU 1 instructions: 990000000 cycles: 3389793946 heartbeat IPC: 0.229739 cumulative IPC: 0.230534 (Simulation time: 4 hr 56 min 1 sec) 
Heartbeat CPU 2 instructions: 1500000000 cycles: 3395363716 heartbeat IPC: 0.385254 cumulative IPC: 0.374847 (Simulation time: 4 hr 56 min 25 sec) 
Heartbeat CPU 3 instructions: 1400000000 cycles: 3395538038 heartbeat IPC: 0.268322 cumulative IPC: 0.353358 (Simulation time: 4 hr 56 min 26 sec) 
Heartbeat CPU 2 instructions: 1510000003 cycles: 3421517596 heartbeat IPC: 0.382353 cumulative IPC: 0.374907 (Simulation time: 4 hr 58 min 22 sec) 
Heartbeat CPU 3 instructions: 1410000003 cycles: 3426511594 heartbeat IPC: 0.322856 cumulative IPC: 0.35307 (Simulation time: 4 hr 58 min 47 sec) 
Heartbeat CPU 1 instructions: 1000000000 cycles: 3435813724 heartbeat IPC: 0.217298 cumulative IPC: 0.230349 (Simulation time: 4 hr 59 min 25 sec) 
Heartbeat CPU 2 instructions: 1520000000 cycles: 3444450382 heartbeat IPC: 0.436057 cumulative IPC: 0.375333 (Simulation time: 5 hr 0 min 11 sec) 
Heartbeat CPU 0 instructions: 600000000 cycles: 3445347455 heartbeat IPC: 0.123483 cumulative IPC: 0.121346 (Simulation time: 5 hr 0 min 15 sec) 
Heartbeat CPU 3 instructions: 1420000000 cycles: 3453140576 heartbeat IPC: 0.375531 cumulative IPC: 0.353251 (Simulation time: 5 hr 0 min 51 sec) 
Heartbeat CPU 3 instructions: 1430000001 cycles: 3476306414 heartbeat IPC: 0.43167 cumulative IPC: 0.353797 (Simulation time: 5 hr 2 min 44 sec) 
Heartbeat CPU 1 instructions: 1010000001 cycles: 3476838076 heartbeat IPC: 0.243758 cumulative IPC: 0.230514 (Simulation time: 5 hr 2 min 47 sec) 
Heartbeat CPU 2 instructions: 1530000000 cycles: 3481506650 heartbeat IPC: 0.26986 cumulative IPC: 0.37416 (Simulation time: 5 hr 3 min 8 sec) 
Heartbeat CPU 3 instructions: 1440000000 cycles: 3496022445 heartbeat IPC: 0.507201 cumulative IPC: 0.354701 (Simulation time: 5 hr 4 min 26 sec) 
Heartbeat CPU 2 instructions: 1540000000 cycles: 3505273874 heartbeat IPC: 0.420747 cumulative IPC: 0.37449 (Simulation time: 5 hr 5 min 14 sec) 
Heartbeat CPU 1 instructions: 1020000000 cycles: 3520830647 heartbeat IPC: 0.227311 cumulative IPC: 0.230472 (Simulation time: 5 hr 6 min 30 sec) 
Heartbeat CPU 3 instructions: 1450000002 cycles: 3521088785 heartbeat IPC: 0.398941 cumulative IPC: 0.355029 (Simulation time: 5 hr 6 min 31 sec) 
Heartbeat CPU 0 instructions: 610000003 cycles: 3528180305 heartbeat IPC: 0.120725 cumulative IPC: 0.121331 (Simulation time: 5 hr 7 min 4 sec) 
Heartbeat CPU 2 instructions: 1550000002 cycles: 3528627208 heartbeat IPC: 0.428204 cumulative IPC: 0.374861 (Simulation time: 5 hr 7 min 6 sec) 
Heartbeat CPU 3 instructions: 1460000000 cycles: 3546380655 heartbeat IPC: 0.395384 cumulative IPC: 0.35533 (Simulation time: 5 hr 8 min 32 sec) 
Heartbeat CPU 2 instructions: 1560000000 cycles: 3554168627 heartbeat IPC: 0.391521 cumulative IPC: 0.374986 (Simulation time: 5 hr 9 min 2 sec) 
Heartbeat CPU 1 instructions: 1030000002 cycles: 3566475395 heartbeat IPC: 0.219083 cumulative IPC: 0.23032 (Simulation time: 5 hr 10 min 2 sec) 
Heartbeat CPU 2 instructions: 1570000000 cycles: 3577079650 heartbeat IPC: 0.436471 cumulative IPC: 0.375397 (Simulation time: 5 hr 10 min 51 sec) 
Heartbeat CPU 3 instructions: 1470000003 cycles: 3583513272 heartbeat IPC: 0.269305 cumulative IPC: 0.3544 (Simulation time: 5 hr 11 min 22 sec) 
Heartbeat CPU 2 instructions: 1580000000 cycles: 3601288664 heartbeat IPC: 0.413069 cumulative IPC: 0.375661 (Simulation time: 5 hr 12 min 46 sec) 
Heartbeat CPU 1 instructions: 1040000000 cycles: 3612989305 heartbeat IPC: 0.214989 cumulative IPC: 0.230114 (Simulation time: 5 hr 13 min 33 sec) 
Heartbeat CPU 0 instructions: 620000000 cycles: 3613053227 heartbeat IPC: 0.117823 cumulative IPC: 0.121245 (Simulation time: 5 hr 13 min 34 sec) 
Heartbeat CPU 3 instructions: 1480000000 cycles: 3617288074 heartbeat IPC: 0.296079 cumulative IPC: 0.353832 (Simulation time: 5 hr 13 min 52 sec) 
Heartbeat CPU 2 instructions: 1590000003 cycles: 3629102296 heartbeat IPC: 0.359536 cumulative IPC: 0.375532 (Simulation time: 5 hr 14 min 48 sec) 
Heartbeat CPU 3 instructions: 1490000001 cycles: 3647924064 heartbeat IPC: 0.326414 cumulative IPC: 0.353592 (Simulation time: 5 hr 16 min 16 sec) 
Heartbeat CPU 2 instructions: 1600000000 cycles: 3653735828 heartbeat IPC: 0.405951 cumulative IPC: 0.375746 (Simulation time: 5 hr 16 min 45 sec) 
Heartbeat CPU 1 instructions: 1050000003 cycles: 3657078681 heartbeat IPC: 0.226812 cumulative IPC: 0.230073 (Simulation time: 5 hr 17 min 2 sec) 
Heartbeat CPU 3 instructions: 1500000000 cycles: 3673208466 heartbeat IPC: 0.395501 cumulative IPC: 0.353892 (Simulation time: 5 hr 18 min 22 sec) 
Heartbeat CPU 2 instructions: 1610000000 cycles: 3678076934 heartbeat IPC: 0.410828 cumulative IPC: 0.375988 (Simulation time: 5 hr 18 min 46 sec) 
Heartbeat CPU 0 instructions: 630000001 cycles: 3694162994 heartbeat IPC: 0.12329 cumulative IPC: 0.121291 (Simulation time: 5 hr 19 min 55 sec) 
Heartbeat CPU 3 instructions: 1510000000 cycles: 3698037996 heartbeat IPC: 0.402746 cumulative IPC: 0.354234 (Simulation time: 5 hr 20 min 12 sec) 
Heartbeat CPU 1 instructions: 1060000000 cycles: 3699211533 heartbeat IPC: 0.237344 cumulative IPC: 0.230159 (Simulation time: 5 hr 20 min 18 sec) 
Heartbeat CPU 2 instructions: 1620000000 cycles: 3716902771 heartbeat IPC: 0.25756 cumulative IPC: 0.374699 (Simulation time: 5 hr 21 min 33 sec) 
Heartbeat CPU 3 instructions: 1520000000 cycles: 3723878885 heartbeat IPC: 0.386984 cumulative IPC: 0.354471 (Simulation time: 5 hr 22 min 14 sec) 
Heartbeat CPU 2 instructions: 1630000000 cycles: 3738506485 heartbeat IPC: 0.462883 cumulative IPC: 0.37523 (Simulation time: 5 hr 23 min 22 sec) 
Heartbeat CPU 1 instructions: 1070000003 cycles: 3742475455 heartbeat IPC: 0.23114 cumulative IPC: 0.230171 (Simulation time: 5 hr 23 min 43 sec) 
Heartbeat CPU 3 instructions: 1530000001 cycles: 3751574221 heartbeat IPC: 0.361072 cumulative IPC: 0.354522 (Simulation time: 5 hr 24 min 24 sec) 
Heartbeat CPU 2 instructions: 1640000000 cycles: 3763052815 heartbeat IPC: 0.407393 cumulative IPC: 0.375449 (Simulation time: 5 hr 25 min 16 sec) 
Heartbeat CPU 0 instructions: 640000000 cycles: 3776908232 heartbeat IPC: 0.120853 cumulative IPC: 0.121281 (Simulation time: 5 hr 26 min 24 sec) 
Heartbeat CPU 3 instructions: 1540000000 cycles: 3777959093 heartbeat IPC: 0.379005 cumulative IPC: 0.3547 (Simulation time: 5 hr 26 min 30 sec) 
Heartbeat CPU 1 instructions: 1080000000 cycles: 3782494597 heartbeat IPC: 0.24988 cumulative IPC: 0.230388 (Simulation time: 5 hr 26 min 52 sec) 
Heartbeat CPU 2 instructions: 1650000001 cycles: 3788406516 heartbeat IPC: 0.39442 cumulative IPC: 0.375581 (Simulation time: 5 hr 27 min 21 sec) 
Heartbeat CPU 3 instructions: 1550000000 cycles: 3805789886 heartbeat IPC: 0.359314 cumulative IPC: 0.354735 (Simulation time: 5 hr 28 min 37 sec) 
Heartbeat CPU 2 instructions: 1660000000 cycles: 3812442395 heartbeat IPC: 0.416045 cumulative IPC: 0.375846 (Simulation time: 5 hr 29 min 11 sec) 
Heartbeat CPU 1 instructions: 1090000001 cycles: 3821144686 heartbeat IPC: 0.258732 cumulative IPC: 0.230686 (Simulation time: 5 hr 29 min 49 sec) 
Heartbeat CPU 3 instructions: 1560000000 cycles: 3830299495 heartbeat IPC: 0.408003 cumulative IPC: 0.355089 (Simulation time: 5 hr 30 min 38 sec) 
Heartbeat CPU 2 instructions: 1670000000 cycles: 3838616679 heartbeat IPC: 0.382054 cumulative IPC: 0.37589 (Simulation time: 5 hr 31 min 19 sec) 
Heartbeat CPU 3 instructions: 1570000001 cycles: 3857919573 heartbeat IPC: 0.362055 cumulative IPC: 0.355141 (Simulation time: 5 hr 32 min 46 sec) 
Heartbeat CPU 0 instructions: 650000002 cycles: 3860179271 heartbeat IPC: 0.12009 cumulative IPC: 0.121255 (Simulation time: 5 hr 32 min 56 sec) 
Heartbeat CPU 1 instructions: 1100000000 cycles: 3860553714 heartbeat IPC: 0.253749 cumulative IPC: 0.230931 (Simulation time: 5 hr 32 min 58 sec) 
Heartbeat CPU 2 instructions: 1680000000 cycles: 3863076596 heartbeat IPC: 0.408832 cumulative IPC: 0.376107 (Simulation time: 5 hr 33 min 10 sec) 
Heartbeat CPU 3 instructions: 1580000000 cycles: 3887717549 heartbeat IPC: 0.335593 cumulative IPC: 0.354986 (Simulation time: 5 hr 35 min 0 sec) 
Heartbeat CPU 2 instructions: 1690000000 cycles: 3888287465 heartbeat IPC: 0.396654 cumulative IPC: 0.376246 (Simulation time: 5 hr 35 min 3 sec) 
Heartbeat CPU 1 instructions: 1110000001 cycles: 3902079596 heartbeat IPC: 0.240814 cumulative IPC: 0.231041 (Simulation time: 5 hr 36 min 4 sec) 
Heartbeat CPU 3 instructions: 1590000000 cycles: 3916084965 heartbeat IPC: 0.352517 cumulative IPC: 0.354967 (Simulation time: 5 hr 37 min 5 sec) 
Heartbeat CPU 2 instructions: 1700000000 cycles: 3918176359 heartbeat IPC: 0.334572 cumulative IPC: 0.375915 (Simulation time: 5 hr 37 min 16 sec) 
Heartbeat CPU 3 instructions: 1600000000 cycles: 3938383826 heartbeat IPC: 0.448453 cumulative IPC: 0.355517 (Simulation time: 5 hr 38 min 50 sec) 
Heartbeat CPU 0 instructions: 660000000 cycles: 3944190297 heartbeat IPC: 0.119032 cumulative IPC: 0.121205 (Simulation time: 5 hr 39 min 13 sec) 
Heartbeat CPU 1 instructions: 1120000000 cycles: 3945752520 heartbeat IPC: 0.228975 cumulative IPC: 0.231017 (Simulation time: 5 hr 39 min 20 sec) 
Heartbeat CPU 2 instructions: 1710000001 cycles: 3949438648 heartbeat IPC: 0.319874 cumulative IPC: 0.375454 (Simulation time: 5 hr 39 min 41 sec) 
Heartbeat CPU 3 instructions: 1610000001 cycles: 3965591653 heartbeat IPC: 0.367541 cumulative IPC: 0.355603 (Simulation time: 5 hr 41 min 1 sec) 
Heartbeat CPU 2 instructions: 1720000000 cycles: 3972724485 heartbeat IPC: 0.429446 cumulative IPC: 0.375783 (Simulation time: 5 hr 41 min 37 sec) 
Heartbeat CPU 1 instructions: 1130000002 cycles: 3988901742 heartbeat IPC: 0.231754 cumulative IPC: 0.231025 (Simulation time: 5 hr 42 min 45 sec) 
Heartbeat CPU 3 instructions: 1620000000 cycles: 3993623498 heartbeat IPC: 0.356737 cumulative IPC: 0.355611 (Simulation time: 5 hr 43 min 7 sec) 
Heartbeat CPU 2 instructions: 1730000000 cycles: 3998512843 heartbeat IPC: 0.387772 cumulative IPC: 0.375863 (Simulation time: 5 hr 43 min 30 sec) 
Heartbeat CPU 3 instructions: 1630000003 cycles: 4019912444 heartbeat IPC: 0.380388 cumulative IPC: 0.355779 (Simulation time: 5 hr 45 min 11 sec) 
Heartbeat CPU 2 instructions: 1740000000 cycles: 4021595548 heartbeat IPC: 0.433225 cumulative IPC: 0.376205 (Simulation time: 5 hr 45 min 18 sec) 
Heartbeat CPU 0 instructions: 670000001 cycles: 4028081404 heartbeat IPC: 0.119202 cumulative IPC: 0.121162 (Simulation time: 5 hr 45 min 48 sec) 
Heartbeat CPU 1 instructions: 1140000000 cycles: 4030800643 heartbeat IPC: 0.23867 cumulative IPC: 0.231108 (Simulation time: 5 hr 46 min 2 sec) 
Heartbeat CPU 2 instructions: 1750000002 cycles: 4047572137 heartbeat IPC: 0.384962 cumulative IPC: 0.376264 (Simulation time: 5 hr 47 min 15 sec) 
Heartbeat CPU 3 instructions: 1640000000 cycles: 4048688963 heartbeat IPC: 0.347505 cumulative IPC: 0.355718 (Simulation time: 5 hr 47 min 22 sec) 
Heartbeat CPU 2 instructions: 1760000000 cycles: 4071969519 heartbeat IPC: 0.40988 cumulative IPC: 0.376473 (Simulation time: 5 hr 49 min 1 sec) 
Heartbeat CPU 1 instructions: 1150000001 cycles: 4076161010 heartbeat IPC: 0.220457 cumulative IPC: 0.230985 (Simulation time: 5 hr 49 min 20 sec) 
Heartbeat CPU 3 instructions: 1650000000 cycles: 4082819487 heartbeat IPC: 0.292993 cumulative IPC: 0.355174 (Simulation time: 5 hr 49 min 50 sec) 
Heartbeat CPU 2 instructions: 1770000002 cycles: 4098946308 heartbeat IPC: 0.370689 cumulative IPC: 0.376433 (Simulation time: 5 hr 51 min 2 sec) 
Heartbeat CPU 3 instructions: 1660000000 cycles: 4111637695 heartbeat IPC: 0.347003 cumulative IPC: 0.355115 (Simulation time: 5 hr 51 min 59 sec) 
Heartbeat CPU 0 instructions: 680000000 cycles: 4111743003 heartbeat IPC: 0.119529 cumulative IPC: 0.121128 (Simulation time: 5 hr 51 min 59 sec) 
Heartbeat CPU 1 instructions: 1160000000 cycles: 4119669143 heartbeat IPC: 0.229842 cumulative IPC: 0.230972 (Simulation time: 5 hr 52 min 35 sec) 
Heartbeat CPU 2 instructions: 1780000000 cycles: 4123647216 heartbeat IPC: 0.404843 cumulative IPC: 0.37661 (Simulation time: 5 hr 52 min 50 sec) 
Heartbeat CPU 3 instructions: 1670000002 cycles: 4144491386 heartbeat IPC: 0.30438 cumulative IPC: 0.354697 (Simulation time: 5 hr 54 min 20 sec) 
Heartbeat CPU 2 instructions: 1790000003 cycles: 4156486200 heartbeat IPC: 0.304516 cumulative IPC: 0.376019 (Simulation time: 5 hr 55 min 14 sec) 
Heartbeat CPU 1 instructions: 1170000003 cycles: 4162323978 heartbeat IPC: 0.23444 cumulative IPC: 0.231009 (Simulation time: 5 hr 55 min 47 sec) 
Heartbeat CPU 3 instructions: 1680000000 cycles: 4170581575 heartbeat IPC: 0.383286 cumulative IPC: 0.354883 (Simulation time: 5 hr 56 min 32 sec) 
Heartbeat CPU 2 instructions: 1800000000 cycles: 4182874863 heartbeat IPC: 0.378951 cumulative IPC: 0.376038 (Simulation time: 5 hr 57 min 40 sec) 
Heartbeat CPU 3 instructions: 1690000003 cycles: 4195126147 heartbeat IPC: 0.407422 cumulative IPC: 0.355202 (Simulation time: 5 hr 58 min 39 sec) 
Heartbeat CPU 0 instructions: 690000000 cycles: 4197532960 heartbeat IPC: 0.116564 cumulative IPC: 0.121031 (Simulation time: 5 hr 58 min 52 sec) 
Heartbeat CPU 2 instructions: 1810000000 cycles: 4207308989 heartbeat IPC: 0.409264 cumulative IPC: 0.376238 (Simulation time: 5 hr 59 min 39 sec) 
Heartbeat CPU 1 instructions: 1180000000 cycles: 4207946043 heartbeat IPC: 0.219192 cumulative IPC: 0.230876 (Simulation time: 5 hr 59 min 43 sec) 
[...]
Heartbeat CPU 2 instructions: 3260000000 cycles: 8083778241 heartbeat IPC: 0.368413 cumulative IPC: 0.37517 (Simulation time: 10 hr 35 min 28 sec) 
Heartbeat CPU 3 instructions: 3080000000 cycles: 8085000409 heartbeat IPC: 0.361841 cumulative IPC: 0.356249 (Simulation time: 10 hr 35 min 35 sec) 
Heartbeat CPU 0 instructions: 1160000000 cycles: 8092023125 heartbeat IPC: 0.118796 cumulative IPC: 0.120861 (Simulation time: 10 hr 36 min 1 sec) 
Heartbeat CPU 1 instructions: 2080000000 cycles: 8103738082 heartbeat IPC: 0.220701 cumulative IPC: 0.230946 (Simulation time: 10 hr 36 min 50 sec) 
Heartbeat CPU 2 instructions: 3270000001 cycles: 8107619175 heartbeat IPC: 0.419447 cumulative IPC: 0.375303 (Simulation time: 10 hr 37 min 6 sec) 
Heartbeat CPU 3 instructions: 3090000001 cycles: 8115687851 heartbeat IPC: 0.325866 cumulative IPC: 0.356132 (Simulation time: 10 hr 37 min 42 sec) 
Heartbeat CPU 2 instructions: 3280000000 cycles: 8132156794 heartbeat IPC: 0.407537 cumulative IPC: 0.375402 (Simulation time: 10 hr 38 min 51 sec) 
Heartbeat CPU 3 instructions: 3100000000 cycles: 8145635485 heartbeat IPC: 0.333916 cumulative IPC: 0.356049 (Simulation time: 10 hr 39 min 46 sec) 
Heartbeat CPU 1 instructions: 2090000002 cycles: 8147710697 heartbeat IPC: 0.227414 cumulative IPC: 0.230926 (Simulation time: 10 hr 39 min 53 sec) 
Heartbeat CPU 2 instructions: 3290000001 cycles: 8155354731 heartbeat IPC: 0.431073 cumulative IPC: 0.375563 (Simulation time: 10 hr 40 min 22 sec) 
Heartbeat CPU 3 instructions: 3110000001 cycles: 8172443872 heartbeat IPC: 0.373018 cumulative IPC: 0.356105 (Simulation time: 10 hr 41 min 40 sec) 
Heartbeat CPU 0 instructions: 1170000002 cycles: 8172669907 heartbeat IPC: 0.123998 cumulative IPC: 0.120892 (Simulation time: 10 hr 41 min 41 sec) 
Heartbeat CPU 2 instructions: 3300000000 cycles: 8179625836 heartbeat IPC: 0.412013 cumulative IPC: 0.375673 (Simulation time: 10 hr 42 min 11 sec) 
Heartbeat CPU 1 instructions: 2100000000 cycles: 8190836988 heartbeat IPC: 0.231877 cumulative IPC: 0.230932 (Simulation time: 10 hr 42 min 56 sec) 
Heartbeat CPU 2 instructions: 3310000000 cycles: 8204012982 heartbeat IPC: 0.410052 cumulative IPC: 0.375777 (Simulation time: 10 hr 43 min 48 sec) 
Heartbeat CPU 3 instructions: 3120000000 cycles: 8211936157 heartbeat IPC: 0.253214 cumulative IPC: 0.355601 (Simulation time: 10 hr 44 min 12 sec) 
Heartbeat CPU 1 instructions: 2110000000 cycles: 8235459586 heartbeat IPC: 0.224102 cumulative IPC: 0.230894 (Simulation time: 10 hr 45 min 49 sec) 
Heartbeat CPU 3 instructions: 3130000001 cycles: 8240666256 heartbeat IPC: 0.348067 cumulative IPC: 0.355575 (Simulation time: 10 hr 46 min 12 sec) 
Heartbeat CPU 2 instructions: 3320000000 cycles: 8243288147 heartbeat IPC: 0.254614 cumulative IPC: 0.375189 (Simulation time: 10 hr 46 min 27 sec) 
Heartbeat CPU 0 instructions: 1180000000 cycles: 8255887776 heartbeat IPC: 0.120166 cumulative IPC: 0.120885 (Simulation time: 10 hr 47 min 28 sec) 
Heartbeat CPU 3 instructions: 3140000000 cycles: 8260632001 heartbeat IPC: 0.500858 cumulative IPC: 0.355932 (Simulation time: 10 hr 47 min 50 sec) 
Heartbeat CPU 2 instructions: 3330000001 cycles: 8264339220 heartbeat IPC: 0.475035 cumulative IPC: 0.375448 (Simulation time: 10 hr 48 min 6 sec) 
Heartbeat CPU 1 instructions: 2120000000 cycles: 8278328613 heartbeat IPC: 0.233269 cumulative IPC: 0.230906 (Simulation time: 10 hr 49 min 5 sec) 
Heartbeat CPU 3 instructions: 3150000002 cycles: 8286879563 heartbeat IPC: 0.380988 cumulative IPC: 0.356013 (Simulation time: 10 hr 49 min 42 sec) 
Heartbeat CPU 2 instructions: 3340000000 cycles: 8288740536 heartbeat IPC: 0.409814 cumulative IPC: 0.375551 (Simulation time: 10 hr 49 min 51 sec) 
Heartbeat CPU 2 instructions: 3350000000 cycles: 8314096415 heartbeat IPC: 0.394386 cumulative IPC: 0.37561 (Simulation time: 10 hr 51 min 37 sec) 
Heartbeat CPU 3 instructions: 3160000000 cycles: 8314644217 heartbeat IPC: 0.36017 cumulative IPC: 0.356027 (Simulation time: 10 hr 51 min 40 sec) 
Heartbeat CPU 1 instructions: 2130000003 cycles: 8320354562 heartbeat IPC: 0.237948 cumulative IPC: 0.230943 (Simulation time: 10 hr 52 min 5 sec) 
Heartbeat CPU 3 instructions: 3170000003 cycles: 8332279582 heartbeat IPC: 0.567043 cumulative IPC: 0.356482 (Simulation time: 10 hr 53 min 4 sec) 
Heartbeat CPU 2 instructions: 3360000000 cycles: 8338497510 heartbeat IPC: 0.409818 cumulative IPC: 0.375712 (Simulation time: 10 hr 53 min 33 sec) 
Heartbeat CPU 0 instructions: 1190000001 cycles: 8339096453 heartbeat IPC: 0.12018 cumulative IPC: 0.120877 (Simulation time: 10 hr 53 min 36 sec) 
Heartbeat CPU 3 instructions: 3180000000 cycles: 8360385110 heartbeat IPC: 0.355802 cumulative IPC: 0.35648 (Simulation time: 10 hr 55 min 1 sec) 
Heartbeat CPU 2 instructions: 3370000000 cycles: 8363595866 heartbeat IPC: 0.398432 cumulative IPC: 0.375781 (Simulation time: 10 hr 55 min 15 sec) 
Heartbeat CPU 1 instructions: 2140000000 cycles: 8365583627 heartbeat IPC: 0.221097 cumulative IPC: 0.230888 (Simulation time: 10 hr 55 min 22 sec) 
Heartbeat CPU 3 instructions: 3190000000 cycles: 8385044664 heartbeat IPC: 0.405522 cumulative IPC: 0.356626 (Simulation time: 10 hr 56 min 48 sec) 
Heartbeat CPU 2 instructions: 3380000000 cycles: 8390903395 heartbeat IPC: 0.366199 cumulative IPC: 0.375749 (Simulation time: 10 hr 57 min 16 sec) 
Heartbeat CPU 1 instructions: 2150000001 cycles: 8406957749 heartbeat IPC: 0.241697 cumulative IPC: 0.230943 (Simulation time: 10 hr 58 min 22 sec) 
Heartbeat CPU 3 instructions: 3200000000 cycles: 8410606508 heartbeat IPC: 0.391208 cumulative IPC: 0.356733 (Simulation time: 10 hr 58 min 36 sec) 
Heartbeat CPU 2 instructions: 3390000000 cycles: 8419096374 heartbeat IPC: 0.354698 cumulative IPC: 0.375678 (Simulation time: 10 hr 59 min 15 sec) 
Heartbeat CPU 0 instructions: 1200000000 cycles: 8420905660 heartbeat IPC: 0.122236 cumulative IPC: 0.120891 (Simulation time: 10 hr 59 min 23 sec) 
Finished CPU 0 instructions: 1000000000 cycles: 8271923421 cumulative IPC: 0.120891 (Simulation time: 10 hr 59 min 23 sec) 

CPU 0 Branch Prediction Accuracy: 88.2177% MPKI: 14.0176

CPU 1 Branch Prediction Accuracy: 97.1919% MPKI: 4.9851

CPU 2 Branch Prediction Accuracy: 94.1445% MPKI: 10.9361

CPU 3 Branch Prediction Accuracy: 97.3486% MPKI: 2.30972

ChampSim completed all CPUs

Total Simulation Statistics (not including warmup)

CPU 0 cumulative IPC: 0.120891 instructions: 1000000000 cycles: 8271923421
L1D TOTAL     ACCESS:  395866455  HIT:  341680360  MISS:   54186095
L1D LOAD      ACCESS:  268882445  HIT:  234385710  MISS:   34496735
L1D RFO       ACCESS:  126984010  HIT:  107294650  MISS:   19689360
L1D PREFETCH  ACCESS:          0  HIT:          0  MISS:          0
L1D WRITEBACK ACCESS:          0  HIT:          0  MISS:          0
L1I TOTAL     ACCESS:  245560015  HIT:  245560013  MISS:          2
L1I LOAD      ACCESS:  245560015  HIT:  245560013  MISS:          2
L1I RFO       ACCESS:          0  HIT:          0  MISS:          0
L1I PREFETCH  ACCESS:          0  HIT:          0  MISS:          0
L1I WRITEBACK ACCESS:          0  HIT:          0  MISS:          0
L2C TOTAL     ACCESS:   86661032  HIT:   46931552  MISS:   39729480
L2C LOAD      ACCESS:   34496724  HIT:   14364839  MISS:   20131885
L2C RFO       ACCESS:   19689360  HIT:     902720  MISS:   18786640
L2C PREFETCH  ACCESS:    5021523  HIT:    4212077  MISS:     809446
L2C WRITEBACK ACCESS:   27453425  HIT:   27451916  MISS:       1509
LLC TOTAL     ACCESS:   90990409  HIT:   41669790  MISS:   49320619
LLC LOAD      ACCESS:   20040805  HIT:    4995150  MISS:   15045655
LLC RFO       ACCESS:   18786635  HIT:     514761  MISS:   18271874
LLC PREFETCH  ACCESS:   25622052  HIT:    9906166  MISS:   15715886
LLC WRITEBACK ACCESS:   26540917  HIT:   26253713  MISS:     287204

CPU 1 cumulative IPC: 0.230987 instructions: 1910710316 cycles: 8271923422
L1D TOTAL     ACCESS:  666400658  HIT:  618700520  MISS:   47700138
L1D LOAD      ACCESS:  367072548  HIT:  325740922  MISS:   41331626
L1D RFO       ACCESS:  299328110  HIT:  292959598  MISS:    6368512
L1D PREFETCH  ACCESS:          0  HIT:          0  MISS:          0
L1D WRITEBACK ACCESS:          0  HIT:          0  MISS:          0
L1I TOTAL     ACCESS:  577261488  HIT:  577172046  MISS:      89442
L1I LOAD      ACCESS:  577261488  HIT:  577172046  MISS:      89442
L1I RFO       ACCESS:          0  HIT:          0  MISS:          0
L1I PREFETCH  ACCESS:          0  HIT:          0  MISS:          0
L1I WRITEBACK ACCESS:          0  HIT:          0  MISS:          0
L2C TOTAL     ACCESS:   74290402  HIT:   32624033  MISS:   41666369
L2C LOAD      ACCESS:   41418917  HIT:    6336414  MISS:   35082503
L2C RFO       ACCESS:    6368425  HIT:     398399  MISS:    5970026
L2C PREFETCH  ACCESS:    6119133  HIT:    5579456  MISS:     539677
L2C WRITEBACK ACCESS:   20383927  HIT:   20309764  MISS:      74163
LLC TOTAL     ACCESS:   82745210  HIT:   36420976  MISS:   46324234
LLC LOAD      ACCESS:   34966539  HIT:   10997858  MISS:   23968681
LLC RFO       ACCESS:    5969230  HIT:    1293269  MISS:    4675961
LLC PREFETCH  ACCESS:   23998104  HIT:    6423281  MISS:   17574823
LLC WRITEBACK ACCESS:   17811337  HIT:   17706568  MISS:     104769

CPU 2 cumulative IPC: 0.3757 instructions: 3107760944 cycles: 8271923422
L1D TOTAL     ACCESS:  652158111  HIT:  533906661  MISS:  118251450
L1D LOAD      ACCESS:  476360147  HIT:  377842731  MISS:   98517416
L1D RFO       ACCESS:  175797964  HIT:  156063930  MISS:   19734034
L1D PREFETCH  ACCESS:          0  HIT:          0  MISS:          0
L1D WRITEBACK ACCESS:          0  HIT:          0  MISS:          0
L1I TOTAL     ACCESS:  711496623  HIT:  711475629  MISS:      20994
L1I LOAD      ACCESS:  711496623  HIT:  711475629  MISS:      20994
L1I RFO       ACCESS:          0  HIT:          0  MISS:          0
L1I PREFETCH  ACCESS:          0  HIT:          0  MISS:          0
L1I WRITEBACK ACCESS:          0  HIT:          0  MISS:          0
L2C TOTAL     ACCESS:  191606155  HIT:   92397957  MISS:   99208198
L2C LOAD      ACCESS:   98529787  HIT:   26737228  MISS:   71792559
L2C RFO       ACCESS:   19732933  HIT:    2116306  MISS:   17616627
L2C PREFETCH  ACCESS:   24351566  HIT:   14578551  MISS:    9773015
L2C WRITEBACK ACCESS:   48991869  HIT:   48965872  MISS:      25997
LLC TOTAL     ACCESS:  238590430  HIT:  160739115  MISS:   77851315
LLC LOAD      ACCESS:   69970218  HIT:   40620041  MISS:   29350177
LLC RFO       ACCESS:   17616409  HIT:    5110116  MISS:   12506293
LLC PREFETCH  ACCESS:  113032502  HIT:   77075004  MISS:   35957498
LLC WRITEBACK ACCESS:   37971301  HIT:   37933954  MISS:      37347

CPU 3 cumulative IPC: 0.356845 instructions: 2951797756 cycles: 8271923422
L1D TOTAL     ACCESS: 1101159237  HIT: 1011082566  MISS:   90076671
L1D LOAD      ACCESS:  391203741  HIT:  301146542  MISS:   90057199
L1D RFO       ACCESS:  709955496  HIT:  709936024  MISS:      19472
L1D PREFETCH  ACCESS:          0  HIT:          0  MISS:          0
L1D WRITEBACK ACCESS:          0  HIT:          0  MISS:          0
L1I TOTAL     ACCESS:  745334366  HIT:  745334366  MISS:          0
L1I LOAD      ACCESS:  745334366  HIT:  745334366  MISS:          0
L1I RFO       ACCESS:          0  HIT:          0  MISS:          0
L1I PREFETCH  ACCESS:          0  HIT:          0  MISS:          0
L1I WRITEBACK ACCESS:          0  HIT:          0  MISS:          0
L2C TOTAL     ACCESS:  143891773  HIT:   55897466  MISS:   87994307
L2C LOAD      ACCESS:   90046745  HIT:   10354025  MISS:   79692720
L2C RFO       ACCESS:      19472  HIT:      16817  MISS:       2655
L2C PREFETCH  ACCESS:   14730413  HIT:    6517608  MISS:    8212805
L2C WRITEBACK ACCESS:   39095143  HIT:   39009016  MISS:      86127
LLC TOTAL     ACCESS:  216795331  HIT:  125266311  MISS:   91529020
LLC LOAD      ACCESS:   77802589  HIT:   30082630  MISS:   47719959
LLC RFO       ACCESS:       2653  HIT:       1880  MISS:        773
LLC PREFETCH  ACCESS:  101719315  HIT:   57923513  MISS:   43795802
LLC WRITEBACK ACCESS:   37270774  HIT:   37258288  MISS:      12486

Region of Interest Statistics

CPU 0 cumulative IPC: 0.120891 instructions: 1000000000 cycles: 8271923421
L1D TOTAL     ACCESS:  395866455  HIT:  341680360  MISS:   54186095
L1D LOAD      ACCESS:  268882445  HIT:  234385710  MISS:   34496735
L1D RFO       ACCESS:  126984010  HIT:  107294650  MISS:   19689360
L1D PREFETCH  ACCESS:          0  HIT:          0  MISS:          0
L1D WRITEBACK ACCESS:          0  HIT:          0  MISS:          0
L1D PREFETCH  REQUESTED:          0  ISSUED:          0  USEFUL:          0  USELESS:          0
L1I TOTAL     ACCESS:  245560015  HIT:  245560013  MISS:          2
L1I LOAD      ACCESS:  245560015  HIT:  245560013  MISS:          2
L1I RFO       ACCESS:          0  HIT:          0  MISS:          0
L1I PREFETCH  ACCESS:          0  HIT:          0  MISS:          0
L1I WRITEBACK ACCESS:          0  HIT:          0  MISS:          0
L1I PREFETCH  REQUESTED:          0  ISSUED:          0  USEFUL:          0  USELESS:          0
L2C TOTAL     ACCESS:   86661032  HIT:   46931552  MISS:   39729480
L2C LOAD      ACCESS:   34496724  HIT:   14364839  MISS:   20131885
L2C RFO       ACCESS:   19689360  HIT:     902720  MISS:   18786640
L2C PREFETCH  ACCESS:    5021523  HIT:    4212077  MISS:     809446
L2C WRITEBACK ACCESS:   27453425  HIT:   27451916  MISS:       1509
L2C PREFETCH  REQUESTED:   39222486  ISSUED:   39222486  USEFUL:     758895  USELESS:     349342
LLC TOTAL     ACCESS:   90990409  HIT:   41669790  MISS:   49320619
LLC LOAD      ACCESS:   20040805  HIT:    4995150  MISS:   15045655
LLC RFO       ACCESS:   18786635  HIT:     514761  MISS:   18271874
LLC PREFETCH  ACCESS:   25622052  HIT:    9906166  MISS:   15715886
LLC WRITEBACK ACCESS:   26540917  HIT:   26253713  MISS:     287204
LLC PREFETCH  REQUESTED:          0  ISSUED:          0  USEFUL:   59349476  USELESS:   67232249
Major fault: 0 Minor fault: 29973

CPU 1 cumulative IPC: 0.230795 instructions: 1000000000 cycles: 4332846364
L1D TOTAL     ACCESS:  348947864  HIT:  323834844  MISS:   25113020
L1D LOAD      ACCESS:  192183045  HIT:  170408623  MISS:   21774422
L1D RFO       ACCESS:  156764819  HIT:  153426221  MISS:    3338598
L1D PREFETCH  ACCESS:          0  HIT:          0  MISS:          0
L1D WRITEBACK ACCESS:          0  HIT:          0  MISS:          0
L1D PREFETCH  REQUESTED:          0  ISSUED:          0  USEFUL:          0  USELESS:          0
L1I TOTAL     ACCESS:  302487432  HIT:  302440427  MISS:      47005
L1I LOAD      ACCESS:  302487432  HIT:  302440427  MISS:      47005
L1I RFO       ACCESS:          0  HIT:          0  MISS:          0
L1I PREFETCH  ACCESS:          0  HIT:          0  MISS:          0
L1I WRITEBACK ACCESS:          0  HIT:          0  MISS:          0
L1I PREFETCH  REQUESTED:          0  ISSUED:          0  USEFUL:          0  USELESS:          0
L2C TOTAL     ACCESS:   39153049  HIT:   17290984  MISS:   21862065
L2C LOAD      ACCESS:   21820276  HIT:    3398435  MISS:   18421841
L2C RFO       ACCESS:    3338549  HIT:     218428  MISS:    3120121
L2C PREFETCH  ACCESS:    3246615  HIT:    2965518  MISS:     281097
L2C WRITEBACK ACCESS:   10747609  HIT:   10708603  MISS:      39006
L2C PREFETCH  REQUESTED:   44525508  ISSUED:   44525497  USEFUL:     293396  USELESS:     357660
LLC TOTAL     ACCESS:   43483324  HIT:   19289449  MISS:   24193875
LLC LOAD      ACCESS:   18361593  HIT:    5839630  MISS:   12521963
LLC RFO       ACCESS:    3119719  HIT:     709321  MISS:    2410398
LLC PREFETCH  ACCESS:   12640869  HIT:    3435043  MISS:    9205826
LLC WRITEBACK ACCESS:    9361143  HIT:    9305455  MISS:      55688
LLC PREFETCH  REQUESTED:          0  ISSUED:          0  USEFUL:   59349476  USELESS:   67232249
Major fault: 0 Minor fault: 36377

CPU 2 cumulative IPC: 0.374372 instructions: 1000000000 cycles: 2671139912
L1D TOTAL     ACCESS:  210995401  HIT:  172434047  MISS:   38561354
L1D LOAD      ACCESS:  153330391  HIT:  120983030  MISS:   32347361
L1D RFO       ACCESS:   57665010  HIT:   51451017  MISS:    6213993
L1D PREFETCH  ACCESS:          0  HIT:          0  MISS:          0
L1D WRITEBACK ACCESS:          0  HIT:          0  MISS:          0
L1D PREFETCH  REQUESTED:          0  ISSUED:          0  USEFUL:          0  USELESS:          0
L1I TOTAL     ACCESS:  227123214  HIT:  227116719  MISS:       6495
L1I LOAD      ACCESS:  227123214  HIT:  227116719  MISS:       6495
L1I RFO       ACCESS:          0  HIT:          0  MISS:          0
L1I PREFETCH  ACCESS:          0  HIT:          0  MISS:          0
L1I WRITEBACK ACCESS:          0  HIT:          0  MISS:          0
L1I PREFETCH  REQUESTED:          0  ISSUED:          0  USEFUL:          0  USELESS:          0
L2C TOTAL     ACCESS:   62522314  HIT:   30098545  MISS:   32423769
L2C LOAD      ACCESS:   32351221  HIT:    8569594  MISS:   23781627
L2C RFO       ACCESS:    6213607  HIT:     690389  MISS:    5523218
L2C PREFETCH  ACCESS:    8003384  HIT:    4892692  MISS:    3110692
L2C WRITEBACK ACCESS:   15954102  HIT:   15945870  MISS:       8232
L2C PREFETCH  REQUESTED:  183641336  ISSUED:  183637374  USEFUL:   10318936  USELESS:     484200
LLC TOTAL     ACCESS:   77540926  HIT:   51899088  MISS:   25641838
LLC LOAD      ACCESS:   23178657  HIT:   13398634  MISS:    9780023
LLC RFO       ACCESS:    5523145  HIT:    1669300  MISS:    3853845
LLC PREFETCH  ACCESS:   36471346  HIT:   24474779  MISS:   11996567
LLC WRITEBACK ACCESS:   12367778  HIT:   12356375  MISS:      11403
LLC PREFETCH  REQUESTED:          0  ISSUED:          0  USEFUL:   59349476  USELESS:   67232249
Major fault: 0 Minor fault: 14132

CPU 3 cumulative IPC: 0.355281 instructions: 1000000003 cycles: 2814673717
L1D TOTAL     ACCESS:  372930970  HIT:  342530652  MISS:   30400318
L1D LOAD      ACCESS:  132254765  HIT:  101860701  MISS:   30394064
L1D RFO       ACCESS:  240676205  HIT:  240669951  MISS:       6254
L1D PREFETCH  ACCESS:          0  HIT:          0  MISS:          0
L1D WRITEBACK ACCESS:          0  HIT:          0  MISS:          0
L1D PREFETCH  REQUESTED:          0  ISSUED:          0  USEFUL:          0  USELESS:          0
L1I TOTAL     ACCESS:  252463983  HIT:  252463983  MISS:          0
L1I LOAD      ACCESS:  252463983  HIT:  252463983  MISS:          0
L1I RFO       ACCESS:          0  HIT:          0  MISS:          0
L1I PREFETCH  ACCESS:          0  HIT:          0  MISS:          0
L1I WRITEBACK ACCESS:          0  HIT:          0  MISS:          0
L1I PREFETCH  REQUESTED:          0  ISSUED:          0  USEFUL:          0  USELESS:          0
L2C TOTAL     ACCESS:   48595217  HIT:   18894704  MISS:   29700513
L2C LOAD      ACCESS:   30390900  HIT:    3412213  MISS:   26978687
L2C RFO       ACCESS:       6254  HIT:       5389  MISS:        865
L2C PREFETCH  ACCESS:    4909644  HIT:    2218132  MISS:    2691512
L2C WRITEBACK ACCESS:   13288419  HIT:   13258970  MISS:      29449
L2C PREFETCH  REQUESTED:  207314559  ISSUED:  207314507  USEFUL:    8590663  USELESS:     295558
LLC TOTAL     ACCESS:   72372704  HIT:   41045849  MISS:   31326855
LLC LOAD      ACCESS:   26339370  HIT:   10040539  MISS:   16298831
LLC RFO       ACCESS:        865  HIT:        605  MISS:        260
LLC PREFETCH  ACCESS:   33356573  HIT:   18333087  MISS:   15023486
LLC WRITEBACK ACCESS:   12675896  HIT:   12671618  MISS:       4278
LLC PREFETCH  REQUESTED:          0  ISSUED:          0  USEFUL:   59349476  USELESS:   67232249
Major fault: 0 Minor fault: 409632

DRAM Statistics
 CHANNEL 0
 RQ ROW_BUFFER_HIT:   24046876  ROW_BUFFER_MISS:  112657696
 DBUS_CONGESTED:  221308788
 WQ ROW_BUFFER_HIT:    5000068  ROW_BUFFER_MISS:   46084924  FULL:          0

 CHANNEL 1
 RQ ROW_BUFFER_HIT:   21854993  ROW_BUFFER_MISS:  105999018
 DBUS_CONGESTED:  221308788
 WQ ROW_BUFFER_HIT:    5170331  ROW_BUFFER_MISS:   45451467  FULL:          0

 AVG_CONGESTED_CYCLE: 13
