Initialize SIGNATURE TABLE
ST_SET: 1
ST_WAY: 256
ST_TAG_BIT: 16
ST_TAG_MASK: ffff

Initialize PATTERN TABLE
PT_SET: 512
PT_WAY: 4
SIG_DELTA_BIT: 7
C_SIG_BIT: 4
C_DELTA_BIT: 4

Initialize PREFETCH FILTER
FILTER_SET: 1024

*** ChampSim Multicore Out-of-Order Simulator ***

Warmup Instructions: 200000000
Simulation Instructions: 1000000000
Number of CPUs: 4
LLC sets: 8192
LLC ways: 16
Off-chip DRAM Size: 8192 MB Channels: 2 Width: 64-bit Data Rate: 1600 MT/s

CPU 0 runs /scratch/user/djimenez/champsim-traces/speccpu2006/xz//473.astar-153B.champsimtrace.xz
CPU 1 runs /scratch/user/djimenez/champsim-traces/speccpu2006/xz//459.GemsFDTD-1320B.champsimtrace.xz
CPU 2 runs /scratch/user/djimenez/champsim-traces/speccpu2006/xz//462.libquantum-714B.champsimtrace.xz
CPU 3 runs /scratch/user/djimenez/champsim-traces/speccpu2006/xz//482.sphinx3-234B.champsimtrace.xz
Heartbeat CPU 3 instructions: 10000003 cycles: 3881300 heartbeat IPC: 2.57646 cumulative IPC: 2.57646 (Simulation time: 0 hr 1 min 11 sec) 
Heartbeat CPU 2 instructions: 10000001 cycles: 5698098 heartbeat IPC: 1.75497 cumulative IPC: 1.75497 (Simulation time: 0 hr 1 min 47 sec) 
Heartbeat CPU 0 instructions: 10000002 cycles: 5811186 heartbeat IPC: 1.72082 cumulative IPC: 1.72082 (Simulation time: 0 hr 1 min 50 sec) 
Heartbeat CPU 1 instructions: 10000000 cycles: 6690824 heartbeat IPC: 1.49458 cumulative IPC: 1.49458 (Simulation time: 0 hr 2 min 10 sec) 
Heartbeat CPU 3 instructions: 20000000 cycles: 7747788 heartbeat IPC: 2.58633 cumulative IPC: 2.58138 (Simulation time: 0 hr 2 min 33 sec) 
Heartbeat CPU 2 instructions: 20000000 cycles: 10676034 heartbeat IPC: 2.00886 cumulative IPC: 1.87335 (Simulation time: 0 hr 3 min 38 sec) 
Heartbeat CPU 0 instructions: 20000000 cycles: 11601409 heartbeat IPC: 1.72705 cumulative IPC: 1.72393 (Simulation time: 0 hr 3 min 59 sec) 
Heartbeat CPU 3 instructions: 30000000 cycles: 11689828 heartbeat IPC: 2.53676 cumulative IPC: 2.56633 (Simulation time: 0 hr 4 min 1 sec) 
Heartbeat CPU 1 instructions: 20000000 cycles: 13431150 heartbeat IPC: 1.48361 cumulative IPC: 1.48908 (Simulation time: 0 hr 4 min 37 sec) 
Heartbeat CPU 2 instructions: 30000003 cycles: 15014116 heartbeat IPC: 2.30517 cumulative IPC: 1.99812 (Simulation time: 0 hr 5 min 9 sec) 
Heartbeat CPU 3 instructions: 40000000 cycles: 15477946 heartbeat IPC: 2.63983 cumulative IPC: 2.58432 (Simulation time: 0 hr 5 min 19 sec) 
Heartbeat CPU 0 instructions: 30000001 cycles: 17388155 heartbeat IPC: 1.72809 cumulative IPC: 1.72531 (Simulation time: 0 hr 5 min 58 sec) 
Heartbeat CPU 2 instructions: 40000000 cycles: 19089286 heartbeat IPC: 2.45388 cumulative IPC: 2.09542 (Simulation time: 0 hr 6 min 34 sec) 
Heartbeat CPU 3 instructions: 50000003 cycles: 19251948 heartbeat IPC: 2.64971 cumulative IPC: 2.59714 (Simulation time: 0 hr 6 min 37 sec) 
Heartbeat CPU 1 instructions: 30000000 cycles: 20179131 heartbeat IPC: 1.48192 cumulative IPC: 1.48668 (Simulation time: 0 hr 6 min 56 sec) 
Heartbeat CPU 3 instructions: 60000000 cycles: 23018232 heartbeat IPC: 2.65514 cumulative IPC: 2.60663 (Simulation time: 0 hr 7 min 54 sec) 
Heartbeat CPU 0 instructions: 40000000 cycles: 23168693 heartbeat IPC: 1.72994 cumulative IPC: 1.72647 (Simulation time: 0 hr 7 min 57 sec) 
Heartbeat CPU 2 instructions: 50000002 cycles: 23896569 heartbeat IPC: 2.08018 cumulative IPC: 2.09235 (Simulation time: 0 hr 8 min 17 sec) 
Heartbeat CPU 3 instructions: 70000000 cycles: 26718115 heartbeat IPC: 2.70279 cumulative IPC: 2.61995 (Simulation time: 0 hr 9 min 26 sec) 
Heartbeat CPU 1 instructions: 40000000 cycles: 26902883 heartbeat IPC: 1.48726 cumulative IPC: 1.48683 (Simulation time: 0 hr 9 min 30 sec) 
Heartbeat CPU 0 instructions: 50000000 cycles: 28923156 heartbeat IPC: 1.73778 cumulative IPC: 1.72872 (Simulation time: 0 hr 10 min 19 sec) 
Heartbeat CPU 2 instructions: 60000000 cycles: 29817891 heartbeat IPC: 1.68881 cumulative IPC: 2.01221 (Simulation time: 0 hr 10 min 42 sec) 
Heartbeat CPU 3 instructions: 80000000 cycles: 30423544 heartbeat IPC: 2.69874 cumulative IPC: 2.62954 (Simulation time: 0 hr 10 min 55 sec) 
Heartbeat CPU 1 instructions: 50000003 cycles: 33548647 heartbeat IPC: 1.50472 cumulative IPC: 1.49037 (Simulation time: 0 hr 12 min 8 sec) 
Heartbeat CPU 3 instructions: 90000000 cycles: 34124224 heartbeat IPC: 2.70221 cumulative IPC: 2.63742 (Simulation time: 0 hr 12 min 22 sec) 
Heartbeat CPU 0 instructions: 60000000 cycles: 34617254 heartbeat IPC: 1.7562 cumulative IPC: 1.73324 (Simulation time: 0 hr 12 min 34 sec) 
Heartbeat CPU 2 instructions: 70000001 cycles: 35644149 heartbeat IPC: 1.71637 cumulative IPC: 1.96386 (Simulation time: 0 hr 12 min 59 sec) 
Heartbeat CPU 3 instructions: 100000000 cycles: 37824941 heartbeat IPC: 2.70218 cumulative IPC: 2.64376 (Simulation time: 0 hr 13 min 58 sec) 
Heartbeat CPU 1 instructions: 60000000 cycles: 40128590 heartbeat IPC: 1.51977 cumulative IPC: 1.49519 (Simulation time: 0 hr 14 min 58 sec) 
Heartbeat CPU 0 instructions: 70000001 cycles: 40241000 heartbeat IPC: 1.77817 cumulative IPC: 1.73952 (Simulation time: 0 hr 15 min 2 sec) 
Heartbeat CPU 2 instructions: 80000000 cycles: 40603388 heartbeat IPC: 2.01644 cumulative IPC: 1.97028 (Simulation time: 0 hr 15 min 12 sec) 
Heartbeat CPU 3 instructions: 110000003 cycles: 41558010 heartbeat IPC: 2.67876 cumulative IPC: 2.6469 (Simulation time: 0 hr 15 min 41 sec) 
Heartbeat CPU 2 instructions: 90000001 cycles: 45011366 heartbeat IPC: 2.26861 cumulative IPC: 1.9995 (Simulation time: 0 hr 17 min 13 sec) 
Heartbeat CPU 3 instructions: 120000000 cycles: 45413691 heartbeat IPC: 2.59357 cumulative IPC: 2.64237 (Simulation time: 0 hr 17 min 24 sec) 
Heartbeat CPU 0 instructions: 80000000 cycles: 45801282 heartbeat IPC: 1.79847 cumulative IPC: 1.74668 (Simulation time: 0 hr 17 min 32 sec) 
Heartbeat CPU 1 instructions: 70000003 cycles: 46707925 heartbeat IPC: 1.51991 cumulative IPC: 1.49868 (Simulation time: 0 hr 17 min 54 sec) 
Heartbeat CPU 2 instructions: 100000000 cycles: 49086088 heartbeat IPC: 2.45415 cumulative IPC: 2.03724 (Simulation time: 0 hr 18 min 54 sec) 
Heartbeat CPU 3 instructions: 130000000 cycles: 49203264 heartbeat IPC: 2.63882 cumulative IPC: 2.6421 (Simulation time: 0 hr 18 min 57 sec) 
Heartbeat CPU 0 instructions: 90000003 cycles: 51322377 heartbeat IPC: 1.81124 cumulative IPC: 1.75362 (Simulation time: 0 hr 19 min 45 sec) 
Heartbeat CPU 3 instructions: 140000000 cycles: 52900562 heartbeat IPC: 2.70468 cumulative IPC: 2.64647 (Simulation time: 0 hr 20 min 18 sec) 
Heartbeat CPU 2 instructions: 110000001 cycles: 53145274 heartbeat IPC: 2.46355 cumulative IPC: 2.0698 (Simulation time: 0 hr 20 min 23 sec) 
Heartbeat CPU 1 instructions: 80000000 cycles: 53369990 heartbeat IPC: 1.50104 cumulative IPC: 1.49897 (Simulation time: 0 hr 20 min 28 sec) 
Heartbeat CPU 3 instructions: 150000001 cycles: 56686006 heartbeat IPC: 2.6417 cumulative IPC: 2.64616 (Simulation time: 0 hr 21 min 37 sec) 
Heartbeat CPU 0 instructions: 100000000 cycles: 56912211 heartbeat IPC: 1.78896 cumulative IPC: 1.75709 (Simulation time: 0 hr 21 min 42 sec) 
Heartbeat CPU 2 instructions: 120000000 cycles: 57169791 heartbeat IPC: 2.48477 cumulative IPC: 2.09901 (Simulation time: 0 hr 21 min 47 sec) 
Heartbeat CPU 1 instructions: 90000001 cycles: 60068811 heartbeat IPC: 1.4928 cumulative IPC: 1.49828 (Simulation time: 0 hr 22 min 45 sec) 
Heartbeat CPU 3 instructions: 160000000 cycles: 60443604 heartbeat IPC: 2.66127 cumulative IPC: 2.6471 (Simulation time: 0 hr 22 min 52 sec) 
Heartbeat CPU 2 instructions: 130000000 cycles: 61194374 heartbeat IPC: 2.48473 cumulative IPC: 2.12438 (Simulation time: 0 hr 23 min 7 sec) 
Heartbeat CPU 0 instructions: 110000000 cycles: 62482439 heartbeat IPC: 1.79526 cumulative IPC: 1.76049 (Simulation time: 0 hr 23 min 36 sec) 
Heartbeat CPU 3 instructions: 170000000 cycles: 64236629 heartbeat IPC: 2.63642 cumulative IPC: 2.64647 (Simulation time: 0 hr 24 min 13 sec) 
Heartbeat CPU 2 instructions: 140000000 cycles: 66178629 heartbeat IPC: 2.00632 cumulative IPC: 2.11549 (Simulation time: 0 hr 24 min 56 sec) 
Heartbeat CPU 1 instructions: 100000000 cycles: 66814866 heartbeat IPC: 1.48235 cumulative IPC: 1.49667 (Simulation time: 0 hr 25 min 10 sec) 
Heartbeat CPU 3 instructions: 180000000 cycles: 68022733 heartbeat IPC: 2.64124 cumulative IPC: 2.64617 (Simulation time: 0 hr 25 min 35 sec) 
Heartbeat CPU 0 instructions: 120000000 cycles: 68077126 heartbeat IPC: 1.78741 cumulative IPC: 1.76271 (Simulation time: 0 hr 25 min 37 sec) 
Heartbeat CPU 2 instructions: 150000000 cycles: 70679530 heartbeat IPC: 2.22178 cumulative IPC: 2.12226 (Simulation time: 0 hr 26 min 27 sec) 
Heartbeat CPU 3 instructions: 190000003 cycles: 71754373 heartbeat IPC: 2.67979 cumulative IPC: 2.64792 (Simulation time: 0 hr 26 min 49 sec) 
Heartbeat CPU 1 instructions: 110000001 cycles: 73559345 heartbeat IPC: 1.48269 cumulative IPC: 1.49539 (Simulation time: 0 hr 27 min 27 sec) 
Heartbeat CPU 0 instructions: 130000002 cycles: 73701394 heartbeat IPC: 1.77801 cumulative IPC: 1.76387 (Simulation time: 0 hr 27 min 30 sec) 
Heartbeat CPU 2 instructions: 160000000 cycles: 74754690 heartbeat IPC: 2.45389 cumulative IPC: 2.14033 (Simulation time: 0 hr 27 min 52 sec) 
Heartbeat CPU 3 instructions: 200000000 cycles: 75479245 heartbeat IPC: 2.68466 cumulative IPC: 2.64973 (Simulation time: 0 hr 28 min 9 sec) 
Heartbeat CPU 2 instructions: 170000003 cycles: 78831150 heartbeat IPC: 2.45311 cumulative IPC: 2.15651 (Simulation time: 0 hr 29 min 21 sec) 
Heartbeat CPU 3 instructions: 210000003 cycles: 79200522 heartbeat IPC: 2.68725 cumulative IPC: 0.126262 (Simulation time: 0 hr 29 min 29 sec) 
Heartbeat CPU 0 instructions: 140000000 cycles: 79299055 heartbeat IPC: 1.78646 cumulative IPC: 1.76547 (Simulation time: 0 hr 29 min 31 sec) 
Heartbeat CPU 1 instructions: 120000000 cycles: 80282595 heartbeat IPC: 1.48738 cumulative IPC: 1.49472 (Simulation time: 0 hr 29 min 58 sec) 
Heartbeat CPU 2 instructions: 180000000 cycles: 82902692 heartbeat IPC: 2.45607 cumulative IPC: 2.17122 (Simulation time: 0 hr 31 min 14 sec) 
Heartbeat CPU 3 instructions: 220000000 cycles: 83062617 heartbeat IPC: 2.58927 cumulative IPC: 0.240782 (Simulation time: 0 hr 31 min 18 sec) 
Heartbeat CPU 1 instructions: 130000002 cycles: 84641329 heartbeat IPC: 2.29424 cumulative IPC: 1.53589 (Simulation time: 0 hr 31 min 57 sec) 
Heartbeat CPU 0 instructions: 150000002 cycles: 84903667 heartbeat IPC: 1.78425 cumulative IPC: 1.76671 (Simulation time: 0 hr 32 min 3 sec) 
Heartbeat CPU 3 instructions: 230000002 cycles: 86743203 heartbeat IPC: 2.71696 cumulative IPC: 0.345848 (Simulation time: 0 hr 32 min 50 sec) 
Heartbeat CPU 2 instructions: 190000000 cycles: 86930776 heartbeat IPC: 2.48257 cumulative IPC: 2.18565 (Simulation time: 0 hr 32 min 55 sec) 
Heartbeat CPU 1 instructions: 140000000 cycles: 88334669 heartbeat IPC: 2.70758 cumulative IPC: 1.58488 (Simulation time: 0 hr 33 min 43 sec) 
Heartbeat CPU 3 instructions: 240000000 cycles: 90431414 heartbeat IPC: 2.71134 cumulative IPC: 0.442324 (Simulation time: 0 hr 34 min 38 sec) 
Heartbeat CPU 0 instructions: 160000000 cycles: 90466742 heartbeat IPC: 1.79757 cumulative IPC: 1.76861 (Simulation time: 0 hr 34 min 39 sec) 
Heartbeat CPU 2 instructions: 200000000 cycles: 91847831 heartbeat IPC: 2.03374 cumulative IPC: 2.17751 (Simulation time: 0 hr 35 min 15 sec) 
Heartbeat CPU 1 instructions: 150000001 cycles: 92023609 heartbeat IPC: 2.71081 cumulative IPC: 1.63002 (Simulation time: 0 hr 35 min 20 sec) 
Heartbeat CPU 3 instructions: 250000000 cycles: 94122534 heartbeat IPC: 2.7092 cumulative IPC: 0.531222 (Simulation time: 0 hr 36 min 14 sec) 
Heartbeat CPU 1 instructions: 160000000 cycles: 95714904 heartbeat IPC: 2.70908 cumulative IPC: 1.67163 (Simulation time: 0 hr 36 min 52 sec) 
Heartbeat CPU 0 instructions: 170000000 cycles: 96117493 heartbeat IPC: 1.76968 cumulative IPC: 1.76867 (Simulation time: 0 hr 37 min 1 sec) 
Heartbeat CPU 2 instructions: 210000002 cycles: 96427836 heartbeat IPC: 2.1834 cumulative IPC: 0.103705 (Simulation time: 0 hr 37 min 8 sec) 
Heartbeat CPU 3 instructions: 260000000 cycles: 97817940 heartbeat IPC: 2.70606 cumulative IPC: 0.613384 (Simulation time: 0 hr 37 min 42 sec) 
Heartbeat CPU 1 instructions: 170000003 cycles: 99408431 heartbeat IPC: 2.70744 cumulative IPC: 1.71012 (Simulation time: 0 hr 38 min 16 sec) 
Heartbeat CPU 2 instructions: 220000000 cycles: 100453380 heartbeat IPC: 2.48414 cumulative IPC: 0.199097 (Simulation time: 0 hr 38 min 41 sec) 
Heartbeat CPU 3 instructions: 270000001 cycles: 101537878 heartbeat IPC: 2.68822 cumulative IPC: 0.689398 (Simulation time: 0 hr 39 min 6 sec) 
Heartbeat CPU 0 instructions: 180000000 cycles: 101784783 heartbeat IPC: 1.76451 cumulative IPC: 1.76844 (Simulation time: 0 hr 39 min 12 sec) 
Heartbeat CPU 1 instructions: 180000000 cycles: 103098947 heartbeat IPC: 2.70965 cumulative IPC: 1.7459 (Simulation time: 0 hr 39 min 44 sec) 
Heartbeat CPU 2 instructions: 230000001 cycles: 104583348 heartbeat IPC: 2.42133 cumulative IPC: 0.286853 (Simulation time: 0 hr 40 min 19 sec) 
Heartbeat CPU 3 instructions: 280000000 cycles: 105267451 heartbeat IPC: 2.68127 cumulative IPC: 0.759969 (Simulation time: 0 hr 40 min 37 sec) 
Heartbeat CPU 1 instructions: 190000001 cycles: 106789572 heartbeat IPC: 2.70957 cumulative IPC: 1.7792 (Simulation time: 0 hr 41 min 20 sec) 
Heartbeat CPU 0 instructions: 190000003 cycles: 107322963 heartbeat IPC: 1.80565 cumulative IPC: 1.77036 (Simulation time: 0 hr 41 min 34 sec) 
Heartbeat CPU 3 instructions: 290000001 cycles: 108962432 heartbeat IPC: 2.70637 cumulative IPC: 0.825973 (Simulation time: 0 hr 42 min 21 sec) 
Heartbeat CPU 2 instructions: 240000000 cycles: 109582484 heartbeat IPC: 2.00035 cumulative IPC: 0.365022 (Simulation time: 0 hr 42 min 37 sec) 
Heartbeat CPU 1 instructions: 200000000 cycles: 110480288 heartbeat IPC: 2.7095 cumulative IPC: 1.81028 (Simulation time: 0 hr 43 min 6 sec) 
Heartbeat CPU 3 instructions: 300000000 cycles: 112821820 heartbeat IPC: 2.59108 cumulative IPC: 0.886353 (Simulation time: 0 hr 44 min 10 sec) 
Heartbeat CPU 0 instructions: 200000000 cycles: 112911215 heartbeat IPC: 1.78947 cumulative IPC: 1.7713 (Simulation time: 0 hr 44 min 12 sec) 

Warmup complete CPU 0 instructions: 200000001 cycles: 112911217 (Simulation time: 0 hr 44 min 12 sec) 
Warmup complete CPU 1 instructions: 206584419 cycles: 112911216 (Simulation time: 0 hr 44 min 12 sec) 
Warmup complete CPU 2 instructions: 247385910 cycles: 112911216 (Simulation time: 0 hr 44 min 12 sec) 
Warmup complete CPU 3 instructions: 300239874 cycles: 112911216 (Simulation time: 0 hr 44 min 12 sec) 

Heartbeat CPU 1 instructions: 210000003 cycles: 115821675 heartbeat IPC: 1.87217 cumulative IPC: 1.17356 (Simulation time: 0 hr 44 min 47 sec) 
Heartbeat CPU 2 instructions: 250000002 cycles: 116329812 heartbeat IPC: 1.48207 cumulative IPC: 0.764668 (Simulation time: 0 hr 44 min 56 sec) 
Heartbeat CPU 1 instructions: 220000000 cycles: 124342834 heartbeat IPC: 1.17355 cumulative IPC: 1.17355 (Simulation time: 0 hr 46 min 51 sec) 
Heartbeat CPU 3 instructions: 310000000 cycles: 124694531 heartbeat IPC: 0.842268 cumulative IPC: 0.828301 (Simulation time: 0 hr 46 min 59 sec) 
Heartbeat CPU 2 instructions: 260000000 cycles: 129843658 heartbeat IPC: 0.739982 cumulative IPC: 0.744966 (Simulation time: 0 hr 48 min 18 sec) 
Heartbeat CPU 1 instructions: 230000002 cycles: 132823325 heartbeat IPC: 1.17918 cumulative IPC: 1.17595 (Simulation time: 0 hr 48 min 59 sec) 
Heartbeat CPU 0 instructions: 210000000 cycles: 133038211 heartbeat IPC: 0.496845 cumulative IPC: 0.496845 (Simulation time: 0 hr 49 min 2 sec) 
Heartbeat CPU 3 instructions: 320000000 cycles: 135762911 heartbeat IPC: 0.903475 cumulative IPC: 0.864712 (Simulation time: 0 hr 49 min 38 sec) 
Heartbeat CPU 1 instructions: 240000000 cycles: 141333520 heartbeat IPC: 1.17506 cumulative IPC: 1.17568 (Simulation time: 0 hr 50 min 50 sec) 
Heartbeat CPU 2 instructions: 270000000 cycles: 144740930 heartbeat IPC: 0.671264 cumulative IPC: 0.710471 (Simulation time: 0 hr 51 min 33 sec) 
Heartbeat CPU 3 instructions: 330000000 cycles: 147730588 heartbeat IPC: 0.835584 cumulative IPC: 0.8547 (Simulation time: 0 hr 52 min 12 sec) 
Heartbeat CPU 1 instructions: 250000000 cycles: 150053706 heartbeat IPC: 1.14676 cumulative IPC: 1.16889 (Simulation time: 0 hr 52 min 37 sec) 
Heartbeat CPU 0 instructions: 220000000 cycles: 152814287 heartbeat IPC: 0.505661 cumulative IPC: 0.501215 (Simulation time: 0 hr 53 min 12 sec) 
Heartbeat CPU 1 instructions: 260000000 cycles: 158730879 heartbeat IPC: 1.15245 cumulative IPC: 1.16578 (Simulation time: 0 hr 54 min 23 sec) 
Heartbeat CPU 3 instructions: 340000000 cycles: 160053603 heartbeat IPC: 0.81149 cumulative IPC: 0.843405 (Simulation time: 0 hr 54 min 37 sec) 
Heartbeat CPU 2 instructions: 280000000 cycles: 163471157 heartbeat IPC: 0.533896 cumulative IPC: 0.645058 (Simulation time: 0 hr 55 min 14 sec) 
Heartbeat CPU 1 instructions: 270000002 cycles: 167422349 heartbeat IPC: 1.15055 cumulative IPC: 1.16335 (Simulation time: 0 hr 55 min 52 sec) 
Heartbeat CPU 3 instructions: 350000002 cycles: 172567474 heartbeat IPC: 0.799113 cumulative IPC: 0.834114 (Simulation time: 0 hr 56 min 45 sec) 
Heartbeat CPU 0 instructions: 230000000 cycles: 174401588 heartbeat IPC: 0.463235 cumulative IPC: 0.487881 (Simulation time: 0 hr 57 min 3 sec) 
Heartbeat CPU 1 instructions: 280000000 cycles: 176113582 heartbeat IPC: 1.15058 cumulative IPC: 1.1616 (Simulation time: 0 hr 57 min 21 sec) 
Heartbeat CPU 2 instructions: 290000000 cycles: 182325191 heartbeat IPC: 0.530391 cumulative IPC: 0.613912 (Simulation time: 0 hr 58 min 35 sec) 
Heartbeat CPU 1 instructions: 290000001 cycles: 184809503 heartbeat IPC: 1.14996 cumulative IPC: 1.16019 (Simulation time: 0 hr 59 min 5 sec) 
Heartbeat CPU 3 instructions: 360000000 cycles: 185100764 heartbeat IPC: 0.797875 cumulative IPC: 0.827822 (Simulation time: 0 hr 59 min 9 sec) 
Heartbeat CPU 1 instructions: 300000000 cycles: 193617099 heartbeat IPC: 1.13538 cumulative IPC: 1.15748 (Simulation time: 1 hr 0 min 48 sec) 
Heartbeat CPU 0 instructions: 240000000 cycles: 194328838 heartbeat IPC: 0.501825 cumulative IPC: 0.491294 (Simulation time: 1 hr 0 min 57 sec) 
Heartbeat CPU 3 instructions: 370000000 cycles: 198465144 heartbeat IPC: 0.748258 cumulative IPC: 0.815394 (Simulation time: 1 hr 1 min 46 sec) 
Heartbeat CPU 1 instructions: 310000003 cycles: 202563803 heartbeat IPC: 1.11773 cumulative IPC: 1.15351 (Simulation time: 1 hr 2 min 29 sec) 
Heartbeat CPU 2 instructions: 300000000 cycles: 203771309 heartbeat IPC: 0.466285 cumulative IPC: 0.579067 (Simulation time: 1 hr 2 min 44 sec) 
Heartbeat CPU 1 instructions: 320000000 cycles: 211445886 heartbeat IPC: 1.12586 cumulative IPC: 1.15102 (Simulation time: 1 hr 4 min 9 sec) 
Heartbeat CPU 3 instructions: 380000000 cycles: 212028141 heartbeat IPC: 0.7373 cumulative IPC: 0.804707 (Simulation time: 1 hr 4 min 16 sec) 
Heartbeat CPU 0 instructions: 250000002 cycles: 215650636 heartbeat IPC: 0.469004 cumulative IPC: 0.486668 (Simulation time: 1 hr 5 min 1 sec) 
Heartbeat CPU 1 instructions: 330000002 cycles: 220342774 heartbeat IPC: 1.12399 cumulative IPC: 1.14878 (Simulation time: 1 hr 5 min 53 sec) 
Heartbeat CPU 2 instructions: 310000003 cycles: 224878913 heartbeat IPC: 0.473763 cumulative IPC: 0.559216 (Simulation time: 1 hr 6 min 45 sec) 
Heartbeat CPU 3 instructions: 390000003 cycles: 225768383 heartbeat IPC: 0.727789 cumulative IPC: 0.795343 (Simulation time: 1 hr 6 min 57 sec) 
Heartbeat CPU 1 instructions: 340000000 cycles: 228957945 heartbeat IPC: 1.16074 cumulative IPC: 1.14967 (Simulation time: 1 hr 7 min 33 sec) 
Heartbeat CPU 0 instructions: 260000000 cycles: 234739383 heartbeat IPC: 0.523869 cumulative IPC: 0.492497 (Simulation time: 1 hr 8 min 38 sec) 
Heartbeat CPU 3 instructions: 400000000 cycles: 236995615 heartbeat IPC: 0.890691 cumulative IPC: 0.80397 (Simulation time: 1 hr 9 min 2 sec) 
Heartbeat CPU 1 instructions: 350000003 cycles: 237482749 heartbeat IPC: 1.17305 cumulative IPC: 1.15127 (Simulation time: 1 hr 9 min 8 sec) 
Heartbeat CPU 2 instructions: 320000000 cycles: 241618756 heartbeat IPC: 0.597377 cumulative IPC: 0.564179 (Simulation time: 1 hr 9 min 53 sec) 
Heartbeat CPU 1 instructions: 360000000 cycles: 246024038 heartbeat IPC: 1.17078 cumulative IPC: 1.15252 (Simulation time: 1 hr 10 min 47 sec) 
Heartbeat CPU 3 instructions: 410000000 cycles: 249252131 heartbeat IPC: 0.815893 cumulative IPC: 0.805042 (Simulation time: 1 hr 11 min 28 sec) 
Heartbeat CPU 0 instructions: 270000003 cycles: 253300908 heartbeat IPC: 0.538749 cumulative IPC: 0.498612 (Simulation time: 1 hr 12 min 11 sec) 
Heartbeat CPU 1 instructions: 370000001 cycles: 254529708 heartbeat IPC: 1.17569 cumulative IPC: 1.15391 (Simulation time: 1 hr 12 min 24 sec) 
Heartbeat CPU 2 instructions: 330000000 cycles: 258184612 heartbeat IPC: 0.603651 cumulative IPC: 0.56868 (Simulation time: 1 hr 13 min 6 sec) 
Heartbeat CPU 3 instructions: 420000000 cycles: 261870256 heartbeat IPC: 0.792511 cumulative IPC: 0.80398 (Simulation time: 1 hr 13 min 45 sec) 
Heartbeat CPU 1 instructions: 380000000 cycles: 263128349 heartbeat IPC: 1.16297 cumulative IPC: 1.15443 (Simulation time: 1 hr 13 min 59 sec) 
Heartbeat CPU 1 instructions: 390000000 cycles: 271793527 heartbeat IPC: 1.15404 cumulative IPC: 1.15441 (Simulation time: 1 hr 15 min 37 sec) 
Heartbeat CPU 0 instructions: 280000000 cycles: 272324082 heartbeat IPC: 0.525674 cumulative IPC: 0.501842 (Simulation time: 1 hr 15 min 43 sec) 
Heartbeat CPU 3 instructions: 430000001 cycles: 274859474 heartbeat IPC: 0.769869 cumulative IPC: 0.801244 (Simulation time: 1 hr 16 min 13 sec) 
Heartbeat CPU 2 instructions: 340000000 cycles: 277659289 heartbeat IPC: 0.513487 cumulative IPC: 0.562156 (Simulation time: 1 hr 16 min 42 sec) 
Heartbeat CPU 1 instructions: 400000000 cycles: 280527183 heartbeat IPC: 1.145 cumulative IPC: 1.15392 (Simulation time: 1 hr 17 min 13 sec) 
Heartbeat CPU 3 instructions: 440000000 cycles: 286513770 heartbeat IPC: 0.858053 cumulative IPC: 0.805058 (Simulation time: 1 hr 18 min 16 sec) 
Heartbeat CPU 1 instructions: 410000002 cycles: 289187941 heartbeat IPC: 1.15463 cumulative IPC: 1.15396 (Simulation time: 1 hr 18 min 41 sec) 
Heartbeat CPU 0 instructions: 290000001 cycles: 291342142 heartbeat IPC: 0.525816 cumulative IPC: 0.504397 (Simulation time: 1 hr 19 min 5 sec) 
Heartbeat CPU 2 instructions: 350000001 cycles: 297428284 heartbeat IPC: 0.505843 cumulative IPC: 0.556122 (Simulation time: 1 hr 20 min 9 sec) 
Heartbeat CPU 1 instructions: 420000000 cycles: 297914297 heartbeat IPC: 1.14595 cumulative IPC: 1.15358 (Simulation time: 1 hr 20 min 14 sec) 
Heartbeat CPU 3 instructions: 450000003 cycles: 299493195 heartbeat IPC: 0.77045 cumulative IPC: 0.802651 (Simulation time: 1 hr 20 min 31 sec) 
Heartbeat CPU 1 instructions: 430000000 cycles: 306577270 heartbeat IPC: 1.15434 cumulative IPC: 1.15361 (Simulation time: 1 hr 21 min 42 sec) 
Heartbeat CPU 0 instructions: 300000000 cycles: 310312941 heartbeat IPC: 0.527126 cumulative IPC: 0.506581 (Simulation time: 1 hr 22 min 23 sec) 
Heartbeat CPU 3 instructions: 460000000 cycles: 312753788 heartbeat IPC: 0.754114 cumulative IPC: 0.79943 (Simulation time: 1 hr 22 min 50 sec) 
Heartbeat CPU 1 instructions: 440000000 cycles: 315385546 heartbeat IPC: 1.1353 cumulative IPC: 1.15282 (Simulation time: 1 hr 23 min 19 sec) 
Heartbeat CPU 2 instructions: 360000000 cycles: 317949677 heartbeat IPC: 0.487296 cumulative IPC: 0.549234 (Simulation time: 1 hr 23 min 47 sec) 
Heartbeat CPU 1 instructions: 450000003 cycles: 324250368 heartbeat IPC: 1.12805 cumulative IPC: 1.15178 (Simulation time: 1 hr 24 min 53 sec) 
Heartbeat CPU 3 instructions: 470000003 cycles: 327636482 heartbeat IPC: 0.671922 cumulative IPC: 0.790592 (Simulation time: 1 hr 25 min 27 sec) 
Heartbeat CPU 0 instructions: 310000002 cycles: 329483154 heartbeat IPC: 0.521643 cumulative IPC: 0.507914 (Simulation time: 1 hr 25 min 48 sec) 
Heartbeat CPU 1 instructions: 460000000 cycles: 333247531 heartbeat IPC: 1.11146 cumulative IPC: 1.15013 (Simulation time: 1 hr 26 min 43 sec) 
Heartbeat CPU 3 instructions: 480000000 cycles: 339428692 heartbeat IPC: 0.848017 cumulative IPC: 0.793582 (Simulation time: 1 hr 27 min 53 sec) 
Heartbeat CPU 2 instructions: 370000003 cycles: 340549532 heartbeat IPC: 0.442481 cumulative IPC: 0.538636 (Simulation time: 1 hr 28 min 5 sec) 
Heartbeat CPU 1 instructions: 470000001 cycles: 342135866 heartbeat IPC: 1.12507 cumulative IPC: 1.14916 (Simulation time: 1 hr 28 min 22 sec) 
Heartbeat CPU 0 instructions: 320000000 cycles: 348963940 heartbeat IPC: 0.513326 cumulative IPC: 0.508361 (Simulation time: 1 hr 29 min 33 sec) 
Heartbeat CPU 1 instructions: 480000000 cycles: 350901552 heartbeat IPC: 1.14081 cumulative IPC: 1.14885 (Simulation time: 1 hr 29 min 55 sec) 
Heartbeat CPU 3 instructions: 490000000 cycles: 353400736 heartbeat IPC: 0.715715 cumulative IPC: 0.789058 (Simulation time: 1 hr 30 min 25 sec) 
Heartbeat CPU 1 instructions: 490000000 cycles: 359595447 heartbeat IPC: 1.15023 cumulative IPC: 1.1489 (Simulation time: 1 hr 31 min 39 sec) 
Heartbeat CPU 2 instructions: 380000000 cycles: 361558828 heartbeat IPC: 0.47598 cumulative IPC: 0.533342 (Simulation time: 1 hr 32 min 2 sec) 
Heartbeat CPU 3 instructions: 500000000 cycles: 367398297 heartbeat IPC: 0.71441 cumulative IPC: 0.784952 (Simulation time: 1 hr 33 min 0 sec) 
Heartbeat CPU 1 instructions: 500000000 cycles: 368330617 heartbeat IPC: 1.1448 cumulative IPC: 1.14876 (Simulation time: 1 hr 33 min 11 sec) 
Heartbeat CPU 0 instructions: 330000003 cycles: 368431320 heartbeat IPC: 0.51368 cumulative IPC: 0.508766 (Simulation time: 1 hr 33 min 12 sec) 
Heartbeat CPU 1 instructions: 510000002 cycles: 377003468 heartbeat IPC: 1.15302 cumulative IPC: 1.1489 (Simulation time: 1 hr 34 min 52 sec) 
Heartbeat CPU 3 instructions: 510000000 cycles: 378837924 heartbeat IPC: 0.874154 cumulative IPC: 0.788789 (Simulation time: 1 hr 35 min 13 sec) 
Heartbeat CPU 2 instructions: 390000000 cycles: 382121113 heartbeat IPC: 0.486327 cumulative IPC: 0.529751 (Simulation time: 1 hr 35 min 55 sec) 
Heartbeat CPU 1 instructions: 520000000 cycles: 385667414 heartbeat IPC: 1.15421 cumulative IPC: 1.14907 (Simulation time: 1 hr 36 min 31 sec) 
Heartbeat CPU 0 instructions: 340000000 cycles: 387457178 heartbeat IPC: 0.5256 cumulative IPC: 0.509933 (Simulation time: 1 hr 36 min 53 sec) 
Heartbeat CPU 3 instructions: 520000000 cycles: 392959361 heartbeat IPC: 0.708143 cumulative IPC: 0.784723 (Simulation time: 1 hr 38 min 4 sec) 
Heartbeat CPU 1 instructions: 530000000 cycles: 394454437 heartbeat IPC: 1.13804 cumulative IPC: 1.14872 (Simulation time: 1 hr 38 min 21 sec) 
Heartbeat CPU 2 instructions: 400000000 cycles: 401937359 heartbeat IPC: 0.504636 cumulative IPC: 0.528029 (Simulation time: 1 hr 39 min 39 sec) 
Heartbeat CPU 0 instructions: 350000001 cycles: 406627985 heartbeat IPC: 0.521626 cumulative IPC: 0.510696 (Simulation time: 1 hr 40 min 21 sec) 
Heartbeat CPU 3 instructions: 530000002 cycles: 407027095 heartbeat IPC: 0.710847 cumulative IPC: 0.781189 (Simulation time: 1 hr 40 min 25 sec) 
Heartbeat CPU 1 instructions: 540000000 cycles: 411649548 heartbeat IPC: 0.581561 cumulative IPC: 1.11608 (Simulation time: 1 hr 41 min 12 sec) 
Heartbeat CPU 3 instructions: 540000000 cycles: 417994031 heartbeat IPC: 0.911831 cumulative IPC: 0.785885 (Simulation time: 1 hr 42 min 15 sec) 
Heartbeat CPU 2 instructions: 410000002 cycles: 420088419 heartbeat IPC: 0.550932 cumulative IPC: 0.529382 (Simulation time: 1 hr 42 min 34 sec) 
Heartbeat CPU 0 instructions: 360000000 cycles: 426130794 heartbeat IPC: 0.512747 cumulative IPC: 0.510824 (Simulation time: 1 hr 43 min 27 sec) 
Heartbeat CPU 1 instructions: 550000000 cycles: 429991232 heartbeat IPC: 0.545206 cumulative IPC: 1.08306 (Simulation time: 1 hr 44 min 3 sec) 
Heartbeat CPU 3 instructions: 550000000 cycles: 430275502 heartbeat IPC: 0.814235 cumulative IPC: 0.786982 (Simulation time: 1 hr 44 min 6 sec) 
Heartbeat CPU 2 instructions: 420000000 cycles: 437877380 heartbeat IPC: 0.562146 cumulative IPC: 0.531176 (Simulation time: 1 hr 45 min 19 sec) 
Heartbeat CPU 3 instructions: 560000000 cycles: 442554180 heartbeat IPC: 0.81442 cumulative IPC: 0.788004 (Simulation time: 1 hr 45 min 58 sec) 
Heartbeat CPU 0 instructions: 370000001 cycles: 445278854 heartbeat IPC: 0.522246 cumulative IPC: 0.511482 (Simulation time: 1 hr 46 min 26 sec) 
Heartbeat CPU 1 instructions: 560000000 cycles: 448049918 heartbeat IPC: 0.55375 cumulative IPC: 1.05454 (Simulation time: 1 hr 46 min 52 sec) 
Heartbeat CPU 3 instructions: 570000003 cycles: 452464327 heartbeat IPC: 1.00907 cumulative IPC: 0.794456 (Simulation time: 1 hr 47 min 35 sec) 
Heartbeat CPU 2 instructions: 430000000 cycles: 455548726 heartbeat IPC: 0.565888 cumulative IPC: 0.532966 (Simulation time: 1 hr 48 min 5 sec) 
Heartbeat CPU 0 instructions: 380000000 cycles: 464086565 heartbeat IPC: 0.531697 cumulative IPC: 0.512564 (Simulation time: 1 hr 49 min 22 sec) 
Heartbeat CPU 3 instructions: 580000000 cycles: 464596692 heartbeat IPC: 0.824241 cumulative IPC: 0.795484 (Simulation time: 1 hr 49 min 27 sec) 
Heartbeat CPU 1 instructions: 570000002 cycles: 466069649 heartbeat IPC: 0.554947 cumulative IPC: 1.02904 (Simulation time: 1 hr 49 min 41 sec) 
Heartbeat CPU 2 instructions: 440000000 cycles: 474341199 heartbeat IPC: 0.532128 cumulative IPC: 0.532922 (Simulation time: 1 hr 50 min 57 sec) 
Heartbeat CPU 3 instructions: 590000003 cycles: 477103527 heartbeat IPC: 0.799563 cumulative IPC: 0.795624 (Simulation time: 1 hr 51 min 20 sec) 
Heartbeat CPU 0 instructions: 390000000 cycles: 482954222 heartbeat IPC: 0.530008 cumulative IPC: 0.513454 (Simulation time: 1 hr 52 min 17 sec) 
Heartbeat CPU 1 instructions: 580000000 cycles: 484090136 heartbeat IPC: 0.554924 cumulative IPC: 1.00603 (Simulation time: 1 hr 52 min 27 sec) 
Heartbeat CPU 3 instructions: 600000000 cycles: 486848405 heartbeat IPC: 1.02618 cumulative IPC: 0.801632 (Simulation time: 1 hr 52 min 54 sec) 
Heartbeat CPU 2 instructions: 450000002 cycles: 493418141 heartbeat IPC: 0.524193 cumulative IPC: 0.532485 (Simulation time: 1 hr 53 min 50 sec) 
Heartbeat CPU 3 instructions: 610000003 cycles: 498804685 heartbeat IPC: 0.836381 cumulative IPC: 0.802709 (Simulation time: 1 hr 54 min 42 sec) 
Heartbeat CPU 0 instructions: 400000000 cycles: 502055501 heartbeat IPC: 0.523525 cumulative IPC: 0.513948 (Simulation time: 1 hr 55 min 17 sec) 
Heartbeat CPU 1 instructions: 590000001 cycles: 502167392 heartbeat IPC: 0.553181 cumulative IPC: 0.984995 (Simulation time: 1 hr 55 min 18 sec) 
Heartbeat CPU 3 instructions: 620000000 cycles: 509042604 heartbeat IPC: 0.976761 cumulative IPC: 0.807207 (Simulation time: 1 hr 56 min 28 sec) 
Heartbeat CPU 2 instructions: 460000000 cycles: 512337193 heartbeat IPC: 0.528568 cumulative IPC: 0.532299 (Simulation time: 1 hr 56 min 58 sec) 
Heartbeat CPU 1 instructions: 600000000 cycles: 520341249 heartbeat IPC: 0.550241 cumulative IPC: 0.965603 (Simulation time: 1 hr 58 min 25 sec) 
Heartbeat CPU 3 instructions: 630000001 cycles: 520699461 heartbeat IPC: 0.857864 cumulative IPC: 0.808655 (Simulation time: 1 hr 58 min 29 sec) 
Heartbeat CPU 0 instructions: 410000002 cycles: 521489821 heartbeat IPC: 0.514554 cumulative IPC: 0.513977 (Simulation time: 1 hr 58 min 36 sec) 
Heartbeat CPU 2 instructions: 470000002 cycles: 530962043 heartbeat IPC: 0.536917 cumulative IPC: 0.532505 (Simulation time: 2 hr 0 min 13 sec) 
Heartbeat CPU 3 instructions: 640000000 cycles: 532451063 heartbeat IPC: 0.850948 cumulative IPC: 0.80984 (Simulation time: 2 hr 0 min 26 sec) 
Heartbeat CPU 1 instructions: 610000002 cycles: 538511812 heartbeat IPC: 0.550341 cumulative IPC: 0.947874 (Simulation time: 2 hr 1 min 30 sec) 
Heartbeat CPU 0 instructions: 420000000 cycles: 540485553 heartbeat IPC: 0.526434 cumulative IPC: 0.51453 (Simulation time: 2 hr 1 min 54 sec) 
Heartbeat CPU 3 instructions: 650000003 cycles: 542792006 heartbeat IPC: 0.96703 cumulative IPC: 0.813621 (Simulation time: 2 hr 2 min 19 sec) 
Heartbeat CPU 2 instructions: 480000000 cycles: 548568000 heartbeat IPC: 0.567989 cumulative IPC: 0.533939 (Simulation time: 2 hr 3 min 20 sec) 
Heartbeat CPU 3 instructions: 660000000 cycles: 555544151 heartbeat IPC: 0.784182 cumulative IPC: 0.812773 (Simulation time: 2 hr 4 min 34 sec) 
Heartbeat CPU 1 instructions: 620000000 cycles: 557725934 heartbeat IPC: 0.52045 cumulative IPC: 0.929411 (Simulation time: 2 hr 5 min 2 sec) 
Heartbeat CPU 0 instructions: 430000003 cycles: 560228384 heartbeat IPC: 0.506513 cumulative IPC: 0.514177 (Simulation time: 2 hr 5 min 32 sec) 
Heartbeat CPU 2 instructions: 490000003 cycles: 566424017 heartbeat IPC: 0.560035 cumulative IPC: 0.534966 (Simulation time: 2 hr 6 min 33 sec) 
Heartbeat CPU 3 instructions: 670000002 cycles: 568621744 heartbeat IPC: 0.764667 cumulative IPC: 0.811393 (Simulation time: 2 hr 6 min 58 sec) 
Heartbeat CPU 1 instructions: 630000000 cycles: 576931049 heartbeat IPC: 0.520695 cumulative IPC: 0.912495 (Simulation time: 2 hr 8 min 23 sec) 
Heartbeat CPU 0 instructions: 440000000 cycles: 579743041 heartbeat IPC: 0.512435 cumulative IPC: 0.514104 (Simulation time: 2 hr 8 min 48 sec) 
Heartbeat CPU 3 instructions: 680000000 cycles: 580981726 heartbeat IPC: 0.809062 cumulative IPC: 0.811331 (Simulation time: 2 hr 8 min 58 sec) 
Heartbeat CPU 2 instructions: 500000000 cycles: 584814054 heartbeat IPC: 0.543773 cumulative IPC: 0.53531 (Simulation time: 2 hr 9 min 39 sec) 
Heartbeat CPU 3 instructions: 690000003 cycles: 591458186 heartbeat IPC: 0.954521 cumulative IPC: 0.814466 (Simulation time: 2 hr 10 min 59 sec) 
Heartbeat CPU 1 instructions: 640000000 cycles: 595666684 heartbeat IPC: 0.533742 cumulative IPC: 0.897795 (Simulation time: 2 hr 11 min 46 sec) 
Heartbeat CPU 0 instructions: 450000000 cycles: 599419922 heartbeat IPC: 0.508211 cumulative IPC: 0.513865 (Simulation time: 2 hr 12 min 25 sec) 
Heartbeat CPU 2 instructions: 510000000 cycles: 603017411 heartbeat IPC: 0.549349 cumulative IPC: 0.535831 (Simulation time: 2 hr 13 min 1 sec) 
Heartbeat CPU 3 instructions: 700000000 cycles: 603416590 heartbeat IPC: 0.836232 cumulative IPC: 0.814996 (Simulation time: 2 hr 13 min 4 sec) 
Heartbeat CPU 1 instructions: 650000000 cycles: 614700759 heartbeat IPC: 0.525374 cumulative IPC: 0.883668 (Simulation time: 2 hr 15 min 4 sec) 
Heartbeat CPU 3 instructions: 710000002 cycles: 615584376 heartbeat IPC: 0.821842 cumulative IPC: 0.815162 (Simulation time: 2 hr 15 min 14 sec) 
Heartbeat CPU 0 instructions: 460000000 cycles: 619085879 heartbeat IPC: 0.508493 cumulative IPC: 0.513657 (Simulation time: 2 hr 15 min 50 sec) 
Heartbeat CPU 2 instructions: 520000000 cycles: 620760466 heartbeat IPC: 0.563601 cumulative IPC: 0.536801 (Simulation time: 2 hr 16 min 9 sec) 
Heartbeat CPU 3 instructions: 720000000 cycles: 628701053 heartbeat IPC: 0.762388 cumulative IPC: 0.81382 (Simulation time: 2 hr 17 min 29 sec) 
Heartbeat CPU 1 instructions: 660000000 cycles: 634216774 heartbeat IPC: 0.5124 cumulative IPC: 0.869769 (Simulation time: 2 hr 18 min 32 sec) 
Heartbeat CPU 2 instructions: 530000001 cycles: 638643287 heartbeat IPC: 0.559196 cumulative IPC: 0.537563 (Simulation time: 2 hr 19 min 18 sec) 
Heartbeat CPU 0 instructions: 470000001 cycles: 639530357 heartbeat IPC: 0.48913 cumulative IPC: 0.512704 (Simulation time: 2 hr 19 min 28 sec) 
Heartbeat CPU 3 instructions: 730000000 cycles: 639642594 heartbeat IPC: 0.913948 cumulative IPC: 0.8159 (Simulation time: 2 hr 19 min 29 sec) 
Heartbeat CPU 3 instructions: 740000000 cycles: 650808022 heartbeat IPC: 0.895622 cumulative IPC: 0.817555 (Simulation time: 2 hr 21 min 26 sec) 
Heartbeat CPU 1 instructions: 670000001 cycles: 652072395 heartbeat IPC: 0.560048 cumulative IPC: 0.859512 (Simulation time: 2 hr 21 min 42 sec) 
Heartbeat CPU 2 instructions: 540000000 cycles: 654655200 heartbeat IPC: 0.624535 cumulative IPC: 0.540134 (Simulation time: 2 hr 22 min 9 sec) 
Heartbeat CPU 0 instructions: 480000000 cycles: 659761927 heartbeat IPC: 0.494277 cumulative IPC: 0.512023 (Simulation time: 2 hr 23 min 4 sec) 
Heartbeat CPU 3 instructions: 750000000 cycles: 661841222 heartbeat IPC: 0.906355 cumulative IPC: 0.81934 (Simulation time: 2 hr 23 min 24 sec) 
Heartbeat CPU 2 instructions: 550000000 cycles: 671061041 heartbeat IPC: 0.609539 cumulative IPC: 0.542174 (Simulation time: 2 hr 24 min 42 sec) 
Heartbeat CPU 3 instructions: 760000000 cycles: 673315655 heartbeat IPC: 0.871503 cumulative IPC: 0.820408 (Simulation time: 2 hr 25 min 3 sec) 
Heartbeat CPU 0 instructions: 490000000 cycles: 681635309 heartbeat IPC: 0.457177 cumulative IPC: 0.509913 (Simulation time: 2 hr 26 min 13 sec) 
Heartbeat CPU 1 instructions: 680000000 cycles: 683260706 heartbeat IPC: 0.320633 cumulative IPC: 0.830045 (Simulation time: 2 hr 26 min 31 sec) 
Heartbeat CPU 3 instructions: 770000002 cycles: 685735846 heartbeat IPC: 0.805141 cumulative IPC: 0.820077 (Simulation time: 2 hr 26 min 58 sec) 
Heartbeat CPU 2 instructions: 560000000 cycles: 688703871 heartbeat IPC: 0.566803 cumulative IPC: 0.542928 (Simulation time: 2 hr 27 min 27 sec) 
Heartbeat CPU 3 instructions: 780000000 cycles: 697894970 heartbeat IPC: 0.822428 cumulative IPC: 0.820126 (Simulation time: 2 hr 28 min 55 sec) 
Heartbeat CPU 1 instructions: 690000000 cycles: 702288395 heartbeat IPC: 0.52555 cumulative IPC: 0.820214 (Simulation time: 2 hr 29 min 40 sec) 
Heartbeat CPU 0 instructions: 500000000 cycles: 704825004 heartbeat IPC: 0.431226 cumulative IPC: 0.506831 (Simulation time: 2 hr 30 min 7 sec) 
Heartbeat CPU 2 instructions: 570000000 cycles: 706092500 heartbeat IPC: 0.575088 cumulative IPC: 0.543871 (Simulation time: 2 hr 30 min 20 sec) 
Heartbeat CPU 3 instructions: 790000000 cycles: 709168955 heartbeat IPC: 0.886998 cumulative IPC: 0.82139 (Simulation time: 2 hr 31 min 0 sec) 
Heartbeat CPU 3 instructions: 800000000 cycles: 719984203 heartbeat IPC: 0.924621 cumulative IPC: 0.823229 (Simulation time: 2 hr 32 min 57 sec) 
Heartbeat CPU 1 instructions: 700000000 cycles: 720115504 heartbeat IPC: 0.560943 cumulative IPC: 0.812602 (Simulation time: 2 hr 32 min 59 sec) 
Heartbeat CPU 2 instructions: 580000000 cycles: 721244921 heartbeat IPC: 0.659961 cumulative IPC: 0.546763 (Simulation time: 2 hr 33 min 11 sec) 
Heartbeat CPU 0 instructions: 510000003 cycles: 725171017 heartbeat IPC: 0.491497 cumulative IPC: 0.506321 (Simulation time: 2 hr 33 min 51 sec) 
Heartbeat CPU 3 instructions: 810000000 cycles: 730771476 heartbeat IPC: 0.927018 cumulative IPC: 0.825041 (Simulation time: 2 hr 34 min 45 sec) 
Heartbeat CPU 2 instructions: 590000002 cycles: 736120188 heartbeat IPC: 0.672257 cumulative IPC: 0.549758 (Simulation time: 2 hr 35 min 42 sec) 
Heartbeat CPU 1 instructions: 710000000 cycles: 738117883 heartbeat IPC: 0.555482 cumulative IPC: 0.805199 (Simulation time: 2 hr 36 min 9 sec) 
Heartbeat CPU 3 instructions: 820000000 cycles: 741655147 heartbeat IPC: 0.918808 cumulative IPC: 0.826664 (Simulation time: 2 hr 36 min 46 sec) 
Heartbeat CPU 0 instructions: 520000000 cycles: 746052420 heartbeat IPC: 0.478895 cumulative IPC: 0.505416 (Simulation time: 2 hr 37 min 33 sec) 
Heartbeat CPU 2 instructions: 600000000 cycles: 748443601 heartbeat IPC: 0.811463 cumulative IPC: 0.554833 (Simulation time: 2 hr 38 min 0 sec) 
Heartbeat CPU 3 instructions: 830000001 cycles: 752367615 heartbeat IPC: 0.933492 cumulative IPC: 0.828454 (Simulation time: 2 hr 38 min 44 sec) 
Heartbeat CPU 1 instructions: 720000000 cycles: 756047107 heartbeat IPC: 0.557749 cumulative IPC: 0.7983 (Simulation time: 2 hr 39 min 27 sec) 
Heartbeat CPU 2 instructions: 610000002 cycles: 760591560 heartbeat IPC: 0.823184 cumulative IPC: 0.559866 (Simulation time: 2 hr 40 min 14 sec) 
Heartbeat CPU 3 instructions: 840000000 cycles: 763298883 heartbeat IPC: 0.914807 cumulative IPC: 0.829905 (Simulation time: 2 hr 40 min 41 sec) 
Heartbeat CPU 0 instructions: 530000001 cycles: 766614044 heartbeat IPC: 0.486343 cumulative IPC: 0.504817 (Simulation time: 2 hr 41 min 18 sec) 
Heartbeat CPU 3 instructions: 850000001 cycles: 774289136 heartbeat IPC: 0.909897 cumulative IPC: 0.831234 (Simulation time: 2 hr 42 min 32 sec) 
Heartbeat CPU 1 instructions: 730000003 cycles: 774673175 heartbeat IPC: 0.536882 cumulative IPC: 0.790942 (Simulation time: 2 hr 42 min 36 sec) 
Heartbeat CPU 2 instructions: 620000000 cycles: 776348125 heartbeat IPC: 0.634656 cumulative IPC: 0.561642 (Simulation time: 2 hr 42 min 51 sec) 
Heartbeat CPU 3 instructions: 860000000 cycles: 786669738 heartbeat IPC: 0.807715 cumulative IPC: 0.830802 (Simulation time: 2 hr 44 min 28 sec) 
Heartbeat CPU 0 instructions: 540000000 cycles: 788249059 heartbeat IPC: 0.462214 cumulative IPC: 0.503452 (Simulation time: 2 hr 44 min 42 sec) 
Heartbeat CPU 2 instructions: 630000000 cycles: 793463189 heartbeat IPC: 0.584281 cumulative IPC: 0.562211 (Simulation time: 2 hr 45 min 31 sec) 
Heartbeat CPU 1 instructions: 740000000 cycles: 793859483 heartbeat IPC: 0.521205 cumulative IPC: 0.783342 (Simulation time: 2 hr 45 min 35 sec) 
Heartbeat CPU 3 instructions: 870000002 cycles: 798104431 heartbeat IPC: 0.874532 cumulative IPC: 0.831532 (Simulation time: 2 hr 46 min 15 sec) 
Heartbeat CPU 2 instructions: 640000000 cycles: 806613843 heartbeat IPC: 0.760418 cumulative IPC: 0.565969 (Simulation time: 2 hr 47 min 40 sec) 
Heartbeat CPU 3 instructions: 880000000 cycles: 809046554 heartbeat IPC: 0.913899 cumulative IPC: 0.832827 (Simulation time: 2 hr 48 min 3 sec) 
Heartbeat CPU 0 instructions: 550000000 cycles: 809639630 heartbeat IPC: 0.467496 cumulative IPC: 0.502348 (Simulation time: 2 hr 48 min 10 sec) 
Heartbeat CPU 1 instructions: 750000003 cycles: 811865370 heartbeat IPC: 0.555374 cumulative IPC: 0.77747 (Simulation time: 2 hr 48 min 33 sec) 
Heartbeat CPU 3 instructions: 890000002 cycles: 819117130 heartbeat IPC: 0.992992 cumulative IPC: 0.835111 (Simulation time: 2 hr 49 min 46 sec) 
Heartbeat CPU 2 instructions: 650000001 cycles: 819606099 heartbeat IPC: 0.769689 cumulative IPC: 0.569714 (Simulation time: 2 hr 49 min 51 sec) 
Heartbeat CPU 1 instructions: 760000000 cycles: 830480272 heartbeat IPC: 0.537204 cumulative IPC: 0.771237 (Simulation time: 2 hr 51 min 35 sec) 
Heartbeat CPU 3 instructions: 900000000 cycles: 830887743 heartbeat IPC: 0.849573 cumulative IPC: 0.835348 (Simulation time: 2 hr 51 min 39 sec) 
Heartbeat CPU 0 instructions: 560000000 cycles: 830963095 heartbeat IPC: 0.468967 cumulative IPC: 0.501357 (Simulation time: 2 hr 51 min 40 sec) 
Heartbeat CPU 2 instructions: 660000000 cycles: 836573478 heartbeat IPC: 0.589366 cumulative IPC: 0.570175 (Simulation time: 2 hr 52 min 30 sec) 
Heartbeat CPU 3 instructions: 910000002 cycles: 843144005 heartbeat IPC: 0.81591 cumulative IPC: 0.835022 (Simulation time: 2 hr 53 min 34 sec) 
Heartbeat CPU 1 instructions: 770000000 cycles: 849793605 heartbeat IPC: 0.517777 cumulative IPC: 0.764594 (Simulation time: 2 hr 54 min 39 sec) 
Heartbeat CPU 2 instructions: 670000000 cycles: 852031878 heartbeat IPC: 0.646897 cumulative IPC: 0.57178 (Simulation time: 2 hr 55 min 2 sec) 
Heartbeat CPU 0 instructions: 570000001 cycles: 852137568 heartbeat IPC: 0.472267 cumulative IPC: 0.500523 (Simulation time: 2 hr 55 min 3 sec) 
Heartbeat CPU 3 instructions: 920000000 cycles: 854746014 heartbeat IPC: 0.86192 cumulative IPC: 0.835442 (Simulation time: 2 hr 55 min 30 sec) 
Heartbeat CPU 2 instructions: 680000000 cycles: 863336009 heartbeat IPC: 0.884632 cumulative IPC: 0.576492 (Simulation time: 2 hr 56 min 59 sec) 
Heartbeat CPU 3 instructions: 930000000 cycles: 864689621 heartbeat IPC: 1.00567 cumulative IPC: 0.837694 (Simulation time: 2 hr 57 min 14 sec) 
Heartbeat CPU 1 instructions: 780000000 cycles: 867688949 heartbeat IPC: 0.558805 cumulative IPC: 0.759714 (Simulation time: 2 hr 57 min 44 sec) 
Heartbeat CPU 0 instructions: 580000000 cycles: 871738026 heartbeat IPC: 0.510192 cumulative IPC: 0.500773 (Simulation time: 2 hr 58 min 23 sec) 
Heartbeat CPU 2 instructions: 690000003 cycles: 874926636 heartbeat IPC: 0.862766 cumulative IPC: 0.580847 (Simulation time: 2 hr 58 min 57 sec) 
Heartbeat CPU 3 instructions: 940000000 cycles: 875473482 heartbeat IPC: 0.927312 cumulative IPC: 0.838961 (Simulation time: 2 hr 59 min 2 sec) 
Heartbeat CPU 1 instructions: 790000000 cycles: 886466915 heartbeat IPC: 0.532539 cumulative IPC: 0.7542 (Simulation time: 3 hr 0 min 41 sec) 
Heartbeat CPU 3 instructions: 950000001 cycles: 887690656 heartbeat IPC: 0.81852 cumulative IPC: 0.838639 (Simulation time: 3 hr 0 min 52 sec) 
Heartbeat CPU 2 instructions: 700000000 cycles: 892793050 heartbeat IPC: 0.559709 cumulative IPC: 0.580362 (Simulation time: 3 hr 1 min 40 sec) 
Heartbeat CPU 0 instructions: 590000003 cycles: 893106165 heartbeat IPC: 0.467987 cumulative IPC: 0.499875 (Simulation time: 3 hr 1 min 43 sec) 
Heartbeat CPU 3 instructions: 960000000 cycles: 899961898 heartbeat IPC: 0.814913 cumulative IPC: 0.838269 (Simulation time: 3 hr 2 min 48 sec) 
Heartbeat CPU 1 instructions: 800000000 cycles: 905520907 heartbeat IPC: 0.524824 cumulative IPC: 0.748686 (Simulation time: 3 hr 3 min 49 sec) 
Heartbeat CPU 2 instructions: 710000002 cycles: 906337432 heartbeat IPC: 0.738314 cumulative IPC: 0.583059 (Simulation time: 3 hr 3 min 58 sec) 
Heartbeat CPU 3 instructions: 970000000 cycles: 910075569 heartbeat IPC: 0.988761 cumulative IPC: 0.840178 (Simulation time: 3 hr 4 min 40 sec) 
Heartbeat CPU 0 instructions: 600000000 cycles: 913430308 heartbeat IPC: 0.492026 cumulative IPC: 0.499676 (Simulation time: 3 hr 5 min 16 sec) 
Heartbeat CPU 2 instructions: 720000000 cycles: 916787950 heartbeat IPC: 0.95689 cumulative IPC: 0.587919 (Simulation time: 3 hr 5 min 53 sec) 
Heartbeat CPU 3 instructions: 980000000 cycles: 920605371 heartbeat IPC: 0.949685 cumulative IPC: 0.841606 (Simulation time: 3 hr 6 min 36 sec) 
Heartbeat CPU 1 instructions: 810000002 cycles: 923160123 heartbeat IPC: 0.566919 cumulative IPC: 0.744729 (Simulation time: 3 hr 7 min 3 sec) 
Heartbeat CPU 2 instructions: 730000000 cycles: 927370606 heartbeat IPC: 0.944942 cumulative IPC: 0.592558 (Simulation time: 3 hr 7 min 51 sec) 
Heartbeat CPU 3 instructions: 990000003 cycles: 931224127 heartbeat IPC: 0.94173 cumulative IPC: 0.842905 (Simulation time: 3 hr 8 min 34 sec) 
Heartbeat CPU 0 instructions: 610000000 cycles: 933607874 heartbeat IPC: 0.4956 cumulative IPC: 0.499576 (Simulation time: 3 hr 9 min 1 sec) 
Heartbeat CPU 2 instructions: 740000000 cycles: 937825731 heartbeat IPC: 0.956469 cumulative IPC: 0.59717 (Simulation time: 3 hr 9 min 48 sec) 
Heartbeat CPU 1 instructions: 820000000 cycles: 940553413 heartbeat IPC: 0.574934 cumulative IPC: 0.74116 (Simulation time: 3 hr 10 min 20 sec) 
Heartbeat CPU 3 instructions: 1000000000 cycles: 941204079 heartbeat IPC: 1.00201 cumulative IPC: 0.844822 (Simulation time: 3 hr 10 min 27 sec) 
Heartbeat CPU 2 instructions: 750000000 cycles: 948446350 heartbeat IPC: 0.941565 cumulative IPC: 0.601548 (Simulation time: 3 hr 11 min 50 sec) 
Heartbeat CPU 3 instructions: 1010000001 cycles: 952089492 heartbeat IPC: 0.918661 cumulative IPC: 0.84578 (Simulation time: 3 hr 12 min 29 sec) 
Heartbeat CPU 0 instructions: 620000000 cycles: 953268600 heartbeat IPC: 0.508628 cumulative IPC: 0.499787 (Simulation time: 3 hr 12 min 41 sec) 
Heartbeat CPU 1 instructions: 830000001 cycles: 955453092 heartbeat IPC: 0.671155 cumulative IPC: 0.739922 (Simulation time: 3 hr 13 min 2 sec) 
Heartbeat CPU 3 instructions: 1020000000 cycles: 964524787 heartbeat IPC: 0.804163 cumulative IPC: 0.845172 (Simulation time: 3 hr 14 min 36 sec) 
Heartbeat CPU 2 instructions: 760000000 cycles: 966070247 heartbeat IPC: 0.567411 cumulative IPC: 0.600842 (Simulation time: 3 hr 14 min 53 sec) 
Heartbeat CPU 1 instructions: 840000000 cycles: 969611539 heartbeat IPC: 0.706292 cumulative IPC: 0.739367 (Simulation time: 3 hr 15 min 29 sec) 
Heartbeat CPU 0 instructions: 630000003 cycles: 974486986 heartbeat IPC: 0.47129 cumulative IPC: 0.499086 (Simulation time: 3 hr 16 min 19 sec) 
Heartbeat CPU 3 instructions: 1030000000 cycles: 975648522 heartbeat IPC: 0.898979 cumulative IPC: 0.845866 (Simulation time: 3 hr 16 min 34 sec) 
Heartbeat CPU 2 instructions: 770000002 cycles: 980324993 heartbeat IPC: 0.701521 cumulative IPC: 0.602497 (Simulation time: 3 hr 17 min 28 sec) 
Heartbeat CPU 1 instructions: 850000000 cycles: 983658314 heartbeat IPC: 0.711907 cumulative IPC: 0.738924 (Simulation time: 3 hr 18 min 9 sec) 
Heartbeat CPU 3 instructions: 1040000000 cycles: 986171306 heartbeat IPC: 0.950319 cumulative IPC: 0.847125 (Simulation time: 3 hr 18 min 39 sec) 
Heartbeat CPU 2 instructions: 780000000 cycles: 990416305 heartbeat IPC: 0.990951 cumulative IPC: 0.606964 (Simulation time: 3 hr 19 min 29 sec) 
Heartbeat CPU 0 instructions: 640000000 cycles: 994384319 heartbeat IPC: 0.50258 cumulative IPC: 0.499164 (Simulation time: 3 hr 20 min 18 sec) 
Heartbeat CPU 3 instructions: 1050000003 cycles: 996573802 heartbeat IPC: 0.961308 cumulative IPC: 0.848469 (Simulation time: 3 hr 20 min 45 sec) 
Heartbeat CPU 1 instructions: 860000000 cycles: 997631484 heartbeat IPC: 0.715657 cumulative IPC: 0.738556 (Simulation time: 3 hr 20 min 57 sec) 
Heartbeat CPU 2 instructions: 790000002 cycles: 1001797472 heartbeat IPC: 0.878645 cumulative IPC: 0.610443 (Simulation time: 3 hr 21 min 44 sec) 
Heartbeat CPU 3 instructions: 1060000000 cycles: 1008493322 heartbeat IPC: 0.83896 cumulative IPC: 0.848342 (Simulation time: 3 hr 22 min 52 sec) 
Heartbeat CPU 1 instructions: 870000003 cycles: 1011785414 heartbeat IPC: 0.706518 cumulative IPC: 0.738052 (Simulation time: 3 hr 23 min 28 sec) 
Heartbeat CPU 0 instructions: 650000000 cycles: 1014761785 heartbeat IPC: 0.490738 cumulative IPC: 0.498974 (Simulation time: 3 hr 23 min 57 sec) 
Heartbeat CPU 2 instructions: 800000000 cycles: 1020221819 heartbeat IPC: 0.54276 cumulative IPC: 0.609068 (Simulation time: 3 hr 24 min 54 sec) 
Heartbeat CPU 3 instructions: 1070000001 cycles: 1020846151 heartbeat IPC: 0.809531 cumulative IPC: 0.847814 (Simulation time: 3 hr 25 min 0 sec) 
Heartbeat CPU 1 instructions: 880000000 cycles: 1025925751 heartbeat IPC: 0.707197 cumulative IPC: 0.737574 (Simulation time: 3 hr 25 min 51 sec) 
Heartbeat CPU 2 instructions: 810000000 cycles: 1033049732 heartbeat IPC: 0.77955 cumulative IPC: 0.611445 (Simulation time: 3 hr 27 min 23 sec) 
Heartbeat CPU 3 instructions: 1080000000 cycles: 1033288162 heartbeat IPC: 0.803729 cumulative IPC: 0.847218 (Simulation time: 3 hr 27 min 28 sec) 
Heartbeat CPU 0 instructions: 660000000 cycles: 1035059999 heartbeat IPC: 0.492654 cumulative IPC: 0.498835 (Simulation time: 3 hr 27 min 52 sec) 
Heartbeat CPU 1 instructions: 890000000 cycles: 1039931343 heartbeat IPC: 0.714001 cumulative IPC: 0.737218 (Simulation time: 3 hr 28 min 51 sec) 
Heartbeat CPU 2 instructions: 820000000 cycles: 1043794685 heartbeat IPC: 0.930669 cumulative IPC: 0.61513 (Simulation time: 3 hr 29 min 41 sec) 
Heartbeat CPU 3 instructions: 1090000000 cycles: 1044959986 heartbeat IPC: 0.856764 cumulative IPC: 0.847338 (Simulation time: 3 hr 29 min 55 sec) 
Heartbeat CPU 1 instructions: 900000000 cycles: 1053914037 heartbeat IPC: 0.71517 cumulative IPC: 0.73689 (Simulation time: 3 hr 31 min 38 sec) 
Heartbeat CPU 2 instructions: 830000000 cycles: 1054446054 heartbeat IPC: 0.938846 cumulative IPC: 0.618792 (Simulation time: 3 hr 31 min 45 sec) 
Heartbeat CPU 0 instructions: 670000001 cycles: 1055107705 heartbeat IPC: 0.49881 cumulative IPC: 0.498834 (Simulation time: 3 hr 31 min 53 sec) 
Heartbeat CPU 3 instructions: 1100000000 cycles: 1055731521 heartbeat IPC: 0.928373 cumulative IPC: 0.848264 (Simulation time: 3 hr 32 min 0 sec) 
Heartbeat CPU 2 instructions: 840000000 cycles: 1065013219 heartbeat IPC: 0.946328 cumulative IPC: 0.622427 (Simulation time: 3 hr 33 min 48 sec) 
Heartbeat CPU 3 instructions: 1110000001 cycles: 1066469060 heartbeat IPC: 0.931312 cumulative IPC: 0.849199 (Simulation time: 3 hr 34 min 5 sec) 
Heartbeat CPU 1 instructions: 910000000 cycles: 1067901263 heartbeat IPC: 0.714938 cumulative IPC: 0.736569 (Simulation time: 3 hr 34 min 22 sec) 
Heartbeat CPU 0 instructions: 680000000 cycles: 1075145361 heartbeat IPC: 0.49906 cumulative IPC: 0.498839 (Simulation time: 3 hr 35 min 46 sec) 
Heartbeat CPU 2 instructions: 850000003 cycles: 1076304590 heartbeat IPC: 0.885632 cumulative IPC: 0.625512 (Simulation time: 3 hr 35 min 58 sec) 
Heartbeat CPU 3 instructions: 1120000000 cycles: 1077536253 heartbeat IPC: 0.903571 cumulative IPC: 0.849823 (Simulation time: 3 hr 36 min 10 sec) 
Heartbeat CPU 1 instructions: 920000000 cycles: 1082022868 heartbeat IPC: 0.708135 cumulative IPC: 0.736154 (Simulation time: 3 hr 36 min 55 sec) 
Heartbeat CPU 3 instructions: 1130000002 cycles: 1090145618 heartbeat IPC: 0.793061 cumulative IPC: 0.84909 (Simulation time: 3 hr 38 min 18 sec) 
Heartbeat CPU 2 instructions: 860000000 cycles: 1094787840 heartbeat IPC: 0.54103 cumulative IPC: 0.623922 (Simulation time: 3 hr 39 min 6 sec) 
Heartbeat CPU 0 instructions: 690000000 cycles: 1096072823 heartbeat IPC: 0.477841 cumulative IPC: 0.498392 (Simulation time: 3 hr 39 min 19 sec) 
Heartbeat CPU 1 instructions: 930000001 cycles: 1096205152 heartbeat IPC: 0.705105 cumulative IPC: 0.735706 (Simulation time: 3 hr 39 min 20 sec) 
Heartbeat CPU 3 instructions: 1140000000 cycles: 1102519322 heartbeat IPC: 0.808165 cumulative IPC: 0.848578 (Simulation time: 3 hr 40 min 27 sec) 
Heartbeat CPU 2 instructions: 870000003 cycles: 1107848622 heartbeat IPC: 0.765651 cumulative IPC: 0.625782 (Simulation time: 3 hr 41 min 29 sec) 
Heartbeat CPU 1 instructions: 940000000 cycles: 1110275096 heartbeat IPC: 0.710735 cumulative IPC: 0.735354 (Simulation time: 3 hr 41 min 56 sec) 
Heartbeat CPU 3 instructions: 1150000000 cycles: 1113220652 heartbeat IPC: 0.934463 cumulative IPC: 0.849497 (Simulation time: 3 hr 42 min 33 sec) 
Heartbeat CPU 0 instructions: 700000000 cycles: 1117107621 heartbeat IPC: 0.475403 cumulative IPC: 0.497911 (Simulation time: 3 hr 43 min 22 sec) 
Heartbeat CPU 2 instructions: 880000000 cycles: 1118013725 heartbeat IPC: 0.983758 cumulative IPC: 0.629403 (Simulation time: 3 hr 43 min 34 sec) 
Heartbeat CPU 1 instructions: 950000002 cycles: 1123599696 heartbeat IPC: 0.750492 cumulative IPC: 0.735554 (Simulation time: 3 hr 44 min 45 sec) 
Heartbeat CPU 3 instructions: 1160000000 cycles: 1123834193 heartbeat IPC: 0.942193 cumulative IPC: 0.85047 (Simulation time: 3 hr 44 min 48 sec) 
Heartbeat CPU 2 instructions: 890000001 cycles: 1128313748 heartbeat IPC: 0.970872 cumulative IPC: 0.632866 (Simulation time: 3 hr 45 min 46 sec) 
Heartbeat CPU 3 instructions: 1170000000 cycles: 1134809946 heartbeat IPC: 0.911099 cumulative IPC: 0.851122 (Simulation time: 3 hr 47 min 13 sec) 
Heartbeat CPU 0 instructions: 710000001 cycles: 1137316584 heartbeat IPC: 0.49483 cumulative IPC: 0.49785 (Simulation time: 3 hr 47 min 46 sec) 
Heartbeat CPU 1 instructions: 960000000 cycles: 1137546625 heartbeat IPC: 0.717004 cumulative IPC: 0.735301 (Simulation time: 3 hr 47 min 49 sec) 
Heartbeat CPU 2 instructions: 900000000 cycles: 1138847538 heartbeat IPC: 0.949326 cumulative IPC: 0.636116 (Simulation time: 3 hr 48 min 6 sec) 
Heartbeat CPU 3 instructions: 1180000000 cycles: 1145744522 heartbeat IPC: 0.91453 cumulative IPC: 0.851793 (Simulation time: 3 hr 49 min 35 sec) 
Heartbeat CPU 2 instructions: 910000000 cycles: 1149625682 heartbeat IPC: 0.927804 cumulative IPC: 0.639148 (Simulation time: 3 hr 50 min 24 sec) 
Heartbeat CPU 1 instructions: 970000003 cycles: 1151547056 heartbeat IPC: 0.714264 cumulative IPC: 0.735018 (Simulation time: 3 hr 50 min 45 sec) 
Heartbeat CPU 3 instructions: 1190000000 cycles: 1156409472 heartbeat IPC: 0.937651 cumulative IPC: 0.85267 (Simulation time: 3 hr 51 min 38 sec) 
Heartbeat CPU 0 instructions: 720000000 cycles: 1157414737 heartbeat IPC: 0.497558 cumulative IPC: 0.497844 (Simulation time: 3 hr 51 min 50 sec) 
Heartbeat CPU 1 instructions: 980000000 cycles: 1165698914 heartbeat IPC: 0.706621 cumulative IPC: 0.734636 (Simulation time: 3 hr 53 min 22 sec) 
Heartbeat CPU 2 instructions: 920000000 cycles: 1167664695 heartbeat IPC: 0.554354 cumulative IPC: 0.637698 (Simulation time: 3 hr 53 min 45 sec) 
Heartbeat CPU 3 instructions: 1200000000 cycles: 1168728036 heartbeat IPC: 0.811783 cumulative IPC: 0.852193 (Simulation time: 3 hr 53 min 56 sec) 
Heartbeat CPU 0 instructions: 730000001 cycles: 1178437368 heartbeat IPC: 0.475678 cumulative IPC: 0.497407 (Simulation time: 3 hr 55 min 52 sec) 
Heartbeat CPU 1 instructions: 990000002 cycles: 1179799418 heartbeat IPC: 0.709195 cumulative IPC: 0.7343 (Simulation time: 3 hr 56 min 13 sec) 
Heartbeat CPU 3 instructions: 1210000000 cycles: 1180530791 heartbeat IPC: 0.84726 cumulative IPC: 0.852139 (Simulation time: 3 hr 56 min 26 sec) 
Heartbeat CPU 2 instructions: 930000001 cycles: 1181378565 heartbeat IPC: 0.729189 cumulative IPC: 0.638872 (Simulation time: 3 hr 56 min 37 sec) 
Heartbeat CPU 2 instructions: 940000000 cycles: 1191490958 heartbeat IPC: 0.988886 cumulative IPC: 0.642154 (Simulation time: 3 hr 58 min 50 sec) 
Heartbeat CPU 3 instructions: 1220000000 cycles: 1191707812 heartbeat IPC: 0.894693 cumulative IPC: 0.85258 (Simulation time: 3 hr 58 min 52 sec) 
Heartbeat CPU 1 instructions: 1000000000 cycles: 1193778027 heartbeat IPC: 0.715379 cumulative IPC: 0.734055 (Simulation time: 3 hr 59 min 23 sec) 
Heartbeat CPU 0 instructions: 740000000 cycles: 1198449540 heartbeat IPC: 0.499696 cumulative IPC: 0.497449 (Simulation time: 4 hr 0 min 19 sec) 
Heartbeat CPU 3 instructions: 1230000000 cycles: 1202540980 heartbeat IPC: 0.923091 cumulative IPC: 0.853281 (Simulation time: 4 hr 1 min 3 sec) 
Heartbeat CPU 2 instructions: 950000003 cycles: 1203212467 heartbeat IPC: 0.853133 cumulative IPC: 0.644422 (Simulation time: 4 hr 1 min 11 sec) 
Heartbeat CPU 1 instructions: 1010000000 cycles: 1207863402 heartbeat IPC: 0.709956 cumulative IPC: 0.733745 (Simulation time: 4 hr 1 min 59 sec) 
Heartbeat CPU 3 instructions: 1240000000 cycles: 1214282292 heartbeat IPC: 0.851694 cumulative IPC: 0.853264 (Simulation time: 4 hr 3 min 5 sec) 
Heartbeat CPU 0 instructions: 750000000 cycles: 1220545618 heartbeat IPC: 0.452569 cumulative IPC: 0.496554 (Simulation time: 4 hr 4 min 7 sec) 
Heartbeat CPU 2 instructions: 960000000 cycles: 1221722344 heartbeat IPC: 0.540252 cumulative IPC: 0.642683 (Simulation time: 4 hr 4 min 18 sec) 
Heartbeat CPU 1 instructions: 1020000000 cycles: 1222016570 heartbeat IPC: 0.706556 cumulative IPC: 0.733398 (Simulation time: 4 hr 4 min 20 sec) 
Heartbeat CPU 3 instructions: 1250000001 cycles: 1226600129 heartbeat IPC: 0.811831 cumulative IPC: 0.852806 (Simulation time: 4 hr 5 min 10 sec) 
Heartbeat CPU 2 instructions: 970000003 cycles: 1233879837 heartbeat IPC: 0.822538 cumulative IPC: 0.644634 (Simulation time: 4 hr 6 min 36 sec) 
Heartbeat CPU 1 instructions: 1030000002 cycles: 1236080559 heartbeat IPC: 0.711036 cumulative IPC: 0.733118 (Simulation time: 4 hr 7 min 1 sec) 
Heartbeat CPU 3 instructions: 1260000000 cycles: 1237295292 heartbeat IPC: 0.935002 cumulative IPC: 0.853587 (Simulation time: 4 hr 7 min 16 sec) 
Heartbeat CPU 0 instructions: 760000000 cycles: 1242381901 heartbeat IPC: 0.457953 cumulative IPC: 0.495807 (Simulation time: 4 hr 8 min 17 sec) 
Heartbeat CPU 2 instructions: 980000000 cycles: 1244024789 heartbeat IPC: 0.985712 cumulative IPC: 0.647693 (Simulation time: 4 hr 8 min 35 sec) 
Heartbeat CPU 3 instructions: 1270000002 cycles: 1248243259 heartbeat IPC: 0.913412 cumulative IPC: 0.854164 (Simulation time: 4 hr 9 min 24 sec) 
Heartbeat CPU 1 instructions: 1040000000 cycles: 1250016363 heartbeat IPC: 0.717576 cumulative IPC: 0.732927 (Simulation time: 4 hr 9 min 43 sec) 
Heartbeat CPU 2 instructions: 990000002 cycles: 1258427515 heartbeat IPC: 0.694313 cumulative IPC: 0.648279 (Simulation time: 4 hr 11 min 4 sec) 
Heartbeat CPU 3 instructions: 1280000000 cycles: 1258953390 heartbeat IPC: 0.933695 cumulative IPC: 0.854908 (Simulation time: 4 hr 11 min 10 sec) 
Heartbeat CPU 0 instructions: 770000000 cycles: 1263720661 heartbeat IPC: 0.468631 cumulative IPC: 0.495304 (Simulation time: 4 hr 11 min 57 sec) 
Heartbeat CPU 1 instructions: 1050000001 cycles: 1264016929 heartbeat IPC: 0.714257 cumulative IPC: 0.7327 (Simulation time: 4 hr 12 min 0 sec) 
Heartbeat CPU 3 instructions: 1290000000 cycles: 1269551111 heartbeat IPC: 0.943599 cumulative IPC: 0.85572 (Simulation time: 4 hr 12 min 55 sec) 
Heartbeat CPU 2 instructions: 1000000000 cycles: 1276134228 heartbeat IPC: 0.564757 cumulative IPC: 0.647008 (Simulation time: 4 hr 13 min 59 sec) 
Heartbeat CPU 1 instructions: 1060000000 cycles: 1278032413 heartbeat IPC: 0.713497 cumulative IPC: 0.732469 (Simulation time: 4 hr 14 min 17 sec) 
Heartbeat CPU 3 instructions: 1300000000 cycles: 1280521483 heartbeat IPC: 0.911546 cumulative IPC: 0.856245 (Simulation time: 4 hr 14 min 44 sec) 
Finished CPU 3 instructions: 1000000000 cycles: 1167843232 cumulative IPC: 0.856279 (Simulation time: 4 hr 14 min 46 sec) 
Heartbeat CPU 0 instructions: 780000000 cycles: 1284833051 heartbeat IPC: 0.473656 cumulative IPC: 0.494914 (Simulation time: 4 hr 15 min 26 sec) 
Heartbeat CPU 3 instructions: 1310000000 cycles: 1291820108 heartbeat IPC: 0.885063 cumulative IPC: 0.856521 (Simulation time: 4 hr 16 min 38 sec) 
Heartbeat CPU 1 instructions: 1070000001 cycles: 1292148409 heartbeat IPC: 0.708416 cumulative IPC: 0.732181 (Simulation time: 4 hr 16 min 42 sec) 
Heartbeat CPU 2 instructions: 1010000001 cycles: 1292584487 heartbeat IPC: 0.607893 cumulative IPC: 0.646462 (Simulation time: 4 hr 16 min 47 sec) 
Heartbeat CPU 3 instructions: 1320000000 cycles: 1302653040 heartbeat IPC: 0.923111 cumulative IPC: 0.857127 (Simulation time: 4 hr 18 min 46 sec) 
Heartbeat CPU 2 instructions: 1020000000 cycles: 1302896054 heartbeat IPC: 0.969785 cumulative IPC: 0.649264 (Simulation time: 4 hr 18 min 49 sec) 
Heartbeat CPU 0 instructions: 790000003 cycles: 1305549265 heartbeat IPC: 0.482714 cumulative IPC: 0.494702 (Simulation time: 4 hr 19 min 20 sec) 
Heartbeat CPU 1 instructions: 1080000000 cycles: 1306251346 heartbeat IPC: 0.709072 cumulative IPC: 0.731908 (Simulation time: 4 hr 19 min 27 sec) 
Heartbeat CPU 2 instructions: 1030000003 cycles: 1313135291 heartbeat IPC: 0.976636 cumulative IPC: 0.652057 (Simulation time: 4 hr 20 min 50 sec) 
Heartbeat CPU 3 instructions: 1330000002 cycles: 1313274372 heartbeat IPC: 0.941502 cumulative IPC: 0.857874 (Simulation time: 4 hr 20 min 52 sec) 
Heartbeat CPU 1 instructions: 1090000001 cycles: 1320288287 heartbeat IPC: 0.712406 cumulative IPC: 0.731682 (Simulation time: 4 hr 22 min 4 sec) 
Heartbeat CPU 3 instructions: 1340000000 cycles: 1325804825 heartbeat IPC: 0.798056 cumulative IPC: 0.857256 (Simulation time: 4 hr 22 min 56 sec) 
Heartbeat CPU 0 instructions: 800000000 cycles: 1327265325 heartbeat IPC: 0.460489 cumulative IPC: 0.49409 (Simulation time: 4 hr 23 min 13 sec) 
Heartbeat CPU 2 instructions: 1040000000 cycles: 1329647693 heartbeat IPC: 0.605605 cumulative IPC: 0.651426 (Simulation time: 4 hr 23 min 35 sec) 
Heartbeat CPU 1 instructions: 1100000000 cycles: 1334556364 heartbeat IPC: 0.700865 cumulative IPC: 0.731322 (Simulation time: 4 hr 24 min 23 sec) 
Heartbeat CPU 3 instructions: 1350000002 cycles: 1337071051 heartbeat IPC: 0.887609 cumulative IPC: 0.857535 (Simulation time: 4 hr 24 min 50 sec) 
Heartbeat CPU 2 instructions: 1050000001 cycles: 1345459694 heartbeat IPC: 0.632431 cumulative IPC: 0.651183 (Simulation time: 4 hr 26 min 17 sec) 
Heartbeat CPU 0 instructions: 810000001 cycles: 1348636294 heartbeat IPC: 0.467925 cumulative IPC: 0.493637 (Simulation time: 4 hr 26 min 52 sec) 
Heartbeat CPU 1 instructions: 1110000001 cycles: 1348703770 heartbeat IPC: 0.706843 cumulative IPC: 0.731041 (Simulation time: 4 hr 26 min 53 sec) 
Heartbeat CPU 3 instructions: 1360000000 cycles: 1348753218 heartbeat IPC: 0.856005 cumulative IPC: 0.857521 (Simulation time: 4 hr 26 min 54 sec) 
Heartbeat CPU 2 instructions: 1060000000 cycles: 1355656900 heartbeat IPC: 0.980661 cumulative IPC: 0.653886 (Simulation time: 4 hr 28 min 12 sec) 
Heartbeat CPU 3 instructions: 1370000002 cycles: 1359785296 heartbeat IPC: 0.906448 cumulative IPC: 0.857954 (Simulation time: 4 hr 28 min 58 sec) 
Heartbeat CPU 1 instructions: 1120000000 cycles: 1362776577 heartbeat IPC: 0.71059 cumulative IPC: 0.730811 (Simulation time: 4 hr 29 min 33 sec) 
Heartbeat CPU 2 instructions: 1070000002 cycles: 1366022109 heartbeat IPC: 0.964766 cumulative IPC: 0.656458 (Simulation time: 4 hr 30 min 10 sec) 
Heartbeat CPU 0 instructions: 820000000 cycles: 1369627377 heartbeat IPC: 0.476393 cumulative IPC: 0.493349 (Simulation time: 4 hr 30 min 46 sec) 
Heartbeat CPU 3 instructions: 1380000000 cycles: 1370656635 heartbeat IPC: 0.91985 cumulative IPC: 0.858489 (Simulation time: 4 hr 30 min 58 sec) 
Heartbeat CPU 1 instructions: 1130000001 cycles: 1376945499 heartbeat IPC: 0.70577 cumulative IPC: 0.730531 (Simulation time: 4 hr 32 min 2 sec) 
Heartbeat CPU 3 instructions: 1390000000 cycles: 1382601229 heartbeat IPC: 0.837199 cumulative IPC: 0.858288 (Simulation time: 4 hr 33 min 1 sec) 
Heartbeat CPU 2 instructions: 1080000000 cycles: 1384088153 heartbeat IPC: 0.553524 cumulative IPC: 0.654995 (Simulation time: 4 hr 33 min 16 sec) 
Heartbeat CPU 1 instructions: 1140000000 cycles: 1391199676 heartbeat IPC: 0.701549 cumulative IPC: 0.730207 (Simulation time: 4 hr 34 min 31 sec) 
Heartbeat CPU 0 instructions: 830000003 cycles: 1391643885 heartbeat IPC: 0.454205 cumulative IPC: 0.492675 (Simulation time: 4 hr 34 min 36 sec) 
Heartbeat CPU 3 instructions: 1400000000 cycles: 1394433402 heartbeat IPC: 0.845153 cumulative IPC: 0.858167 (Simulation time: 4 hr 35 min 7 sec) 
Heartbeat CPU 2 instructions: 1090000002 cycles: 1398159037 heartbeat IPC: 0.710688 cumulative IPC: 0.655604 (Simulation time: 4 hr 35 min 51 sec) 
Heartbeat CPU 3 instructions: 1410000001 cycles: 1405136311 heartbeat IPC: 0.934326 cumulative IPC: 0.858798 (Simulation time: 4 hr 37 min 17 sec) 
Heartbeat CPU 1 instructions: 1150000000 cycles: 1405346311 heartbeat IPC: 0.706882 cumulative IPC: 0.729952 (Simulation time: 4 hr 37 min 20 sec) 
Heartbeat CPU 2 instructions: 1100000000 cycles: 1408703590 heartbeat IPC: 0.948357 cumulative IPC: 0.657987 (Simulation time: 4 hr 37 min 59 sec) 
Heartbeat CPU 0 instructions: 840000000 cycles: 1411899358 heartbeat IPC: 0.493694 cumulative IPC: 0.492691 (Simulation time: 4 hr 38 min 43 sec) 
Heartbeat CPU 3 instructions: 1420000000 cycles: 1415982666 heartbeat IPC: 0.921969 cumulative IPC: 0.859324 (Simulation time: 4 hr 39 min 33 sec) 
Heartbeat CPU 2 instructions: 1110000000 cycles: 1419191295 heartbeat IPC: 0.953497 cumulative IPC: 0.660359 (Simulation time: 4 hr 40 min 12 sec) 
Heartbeat CPU 1 instructions: 1160000000 cycles: 1419287489 heartbeat IPC: 0.7173 cumulative IPC: 0.729817 (Simulation time: 4 hr 40 min 13 sec) 
Heartbeat CPU 3 instructions: 1430000001 cycles: 1426669922 heartbeat IPC: 0.935694 cumulative IPC: 0.859945 (Simulation time: 4 hr 41 min 41 sec) 
Heartbeat CPU 2 instructions: 1120000000 cycles: 1429384091 heartbeat IPC: 0.981085 cumulative IPC: 0.662842 (Simulation time: 4 hr 42 min 13 sec) 
Heartbeat CPU 0 instructions: 850000001 cycles: 1431780023 heartbeat IPC: 0.503001 cumulative IPC: 0.492847 (Simulation time: 4 hr 42 min 41 sec) 
Heartbeat CPU 1 instructions: 1170000000 cycles: 1433407161 heartbeat IPC: 0.708232 cumulative IPC: 0.729586 (Simulation time: 4 hr 43 min 0 sec) 
Heartbeat CPU 3 instructions: 1440000000 cycles: 1436920507 heartbeat IPC: 0.975554 cumulative IPC: 0.86084 (Simulation time: 4 hr 43 min 43 sec) 
Heartbeat CPU 2 instructions: 1130000000 cycles: 1439619963 heartbeat IPC: 0.976956 cumulative IPC: 0.665266 (Simulation time: 4 hr 44 min 14 sec) 
Heartbeat CPU 1 instructions: 1180000000 cycles: 1446629618 heartbeat IPC: 0.756289 cumulative IPC: 0.729851 (Simulation time: 4 hr 45 min 29 sec) 
Heartbeat CPU 3 instructions: 1450000001 cycles: 1448508123 heartbeat IPC: 0.86299 cumulative IPC: 0.860859 (Simulation time: 4 hr 45 min 48 sec) 
Heartbeat CPU 0 instructions: 860000000 cycles: 1453000218 heartbeat IPC: 0.471249 cumulative IPC: 0.492505 (Simulation time: 4 hr 46 min 31 sec) 
Heartbeat CPU 2 instructions: 1140000000 cycles: 1456964482 heartbeat IPC: 0.576551 cumulative IPC: 0.664121 (Simulation time: 4 hr 47 min 13 sec) 
Heartbeat CPU 3 instructions: 1460000000 cycles: 1460705968 heartbeat IPC: 0.819817 cumulative IPC: 0.860487 (Simulation time: 4 hr 47 min 50 sec) 
Heartbeat CPU 1 instructions: 1190000001 cycles: 1460840856 heartbeat IPC: 0.703669 cumulative IPC: 0.729575 (Simulation time: 4 hr 47 min 52 sec) 
Heartbeat CPU 2 instructions: 1150000002 cycles: 1471696213 heartbeat IPC: 0.678807 cumulative IPC: 0.66428 (Simulation time: 4 hr 49 min 48 sec) 
Heartbeat CPU 3 instructions: 1470000000 cycles: 1472235033 heartbeat IPC: 0.867373 cumulative IPC: 0.860546 (Simulation time: 4 hr 49 min 54 sec) 
Heartbeat CPU 0 instructions: 870000001 cycles: 1474684328 heartbeat IPC: 0.461167 cumulative IPC: 0.492006 (Simulation time: 4 hr 50 min 21 sec) 
Heartbeat CPU 1 instructions: 1200000000 cycles: 1474905747 heartbeat IPC: 0.71099 cumulative IPC: 0.729383 (Simulation time: 4 hr 50 min 23 sec) 
Heartbeat CPU 2 instructions: 1160000000 cycles: 1482207785 heartbeat IPC: 0.951332 cumulative IPC: 0.666484 (Simulation time: 4 hr 51 min 49 sec) 
Heartbeat CPU 3 instructions: 1480000000 cycles: 1482907874 heartbeat IPC: 0.936958 cumulative IPC: 0.861141 (Simulation time: 4 hr 51 min 57 sec) 
Finished CPU 1 instructions: 1000000000 cycles: 1371196814 cumulative IPC: 0.72929 (Simulation time: 4 hr 52 min 11 sec) 
Heartbeat CPU 1 instructions: 1210000003 cycles: 1488870195 heartbeat IPC: 0.716104 cumulative IPC: 0.729248 (Simulation time: 4 hr 53 min 6 sec) 
Heartbeat CPU 2 instructions: 1170000003 cycles: 1492799822 heartbeat IPC: 0.944106 cumulative IPC: 0.668615 (Simulation time: 4 hr 53 min 51 sec) 
Heartbeat CPU 3 instructions: 1490000000 cycles: 1493649736 heartbeat IPC: 0.930937 cumulative IPC: 0.861684 (Simulation time: 4 hr 54 min 1 sec) 
Heartbeat CPU 0 instructions: 880000000 cycles: 1494988006 heartbeat IPC: 0.492522 cumulative IPC: 0.492013 (Simulation time: 4 hr 54 min 16 sec) 
Heartbeat CPU 1 instructions: 1220000000 cycles: 1502797386 heartbeat IPC: 0.71802 cumulative IPC: 0.729136 (Simulation time: 4 hr 55 min 46 sec) 
Heartbeat CPU 2 instructions: 1180000000 cycles: 1503337500 heartbeat IPC: 0.948975 cumulative IPC: 0.67074 (Simulation time: 4 hr 55 min 53 sec) 
Heartbeat CPU 3 instructions: 1500000000 cycles: 1504376053 heartbeat IPC: 0.932286 cumulative IPC: 0.862228 (Simulation time: 4 hr 56 min 4 sec) 
Heartbeat CPU 2 instructions: 1190000000 cycles: 1513928216 heartbeat IPC: 0.944223 cumulative IPC: 0.672807 (Simulation time: 4 hr 57 min 48 sec) 
Heartbeat CPU 3 instructions: 1510000002 cycles: 1515148976 heartbeat IPC: 0.928253 cumulative IPC: 0.862735 (Simulation time: 4 hr 58 min 1 sec) 
Heartbeat CPU 0 instructions: 890000001 cycles: 1515863734 heartbeat IPC: 0.479025 cumulative IPC: 0.49182 (Simulation time: 4 hr 58 min 8 sec) 
Heartbeat CPU 1 instructions: 1230000001 cycles: 1516794889 heartbeat IPC: 0.714413 cumulative IPC: 0.728989 (Simulation time: 4 hr 58 min 18 sec) 
Heartbeat CPU 3 instructions: 1520000000 cycles: 1527510335 heartbeat IPC: 0.808972 cumulative IPC: 0.862266 (Simulation time: 5 hr 0 min 3 sec) 
Heartbeat CPU 2 instructions: 1200000000 cycles: 1530805448 heartbeat IPC: 0.592514 cumulative IPC: 0.671851 (Simulation time: 5 hr 0 min 35 sec) 
Heartbeat CPU 1 instructions: 1240000000 cycles: 1530939673 heartbeat IPC: 0.706974 cumulative IPC: 0.728769 (Simulation time: 5 hr 0 min 37 sec) 
Heartbeat CPU 0 instructions: 900000000 cycles: 1539028437 heartbeat IPC: 0.431691 cumulative IPC: 0.490843 (Simulation time: 5 hr 1 min 55 sec) 
Heartbeat CPU 3 instructions: 1530000001 cycles: 1540682785 heartbeat IPC: 0.75916 cumulative IPC: 0.861314 (Simulation time: 5 hr 2 min 13 sec) 
Heartbeat CPU 1 instructions: 1250000003 cycles: 1545060990 heartbeat IPC: 0.708149 cumulative IPC: 0.728566 (Simulation time: 5 hr 3 min 0 sec) 
Heartbeat CPU 2 instructions: 1210000000 cycles: 1546212631 heartbeat IPC: 0.649048 cumulative IPC: 0.671606 (Simulation time: 5 hr 3 min 13 sec) 
Heartbeat CPU 3 instructions: 1540000000 cycles: 1552966468 heartbeat IPC: 0.814088 cumulative IPC: 0.860911 (Simulation time: 5 hr 4 min 28 sec) 
Heartbeat CPU 2 instructions: 1220000000 cycles: 1556510495 heartbeat IPC: 0.971075 cumulative IPC: 0.673742 (Simulation time: 5 hr 5 min 10 sec) 
Heartbeat CPU 1 instructions: 1260000000 cycles: 1559039056 heartbeat IPC: 0.715406 cumulative IPC: 0.728439 (Simulation time: 5 hr 5 min 39 sec) 
Heartbeat CPU 0 instructions: 910000003 cycles: 1561026111 heartbeat IPC: 0.454594 cumulative IPC: 0.490293 (Simulation time: 5 hr 6 min 2 sec) 
Heartbeat CPU 3 instructions: 1550000003 cycles: 1563464930 heartbeat IPC: 0.952521 cumulative IPC: 0.861575 (Simulation time: 5 hr 6 min 30 sec) 
Heartbeat CPU 2 instructions: 1230000001 cycles: 1567150357 heartbeat IPC: 0.939862 cumulative IPC: 0.675689 (Simulation time: 5 hr 7 min 11 sec) 
Heartbeat CPU 1 instructions: 1270000003 cycles: 1573087858 heartbeat IPC: 0.711805 cumulative IPC: 0.728279 (Simulation time: 5 hr 8 min 10 sec) 
Heartbeat CPU 3 instructions: 1560000000 cycles: 1575778544 heartbeat IPC: 0.812109 cumulative IPC: 0.861158 (Simulation time: 5 hr 8 min 37 sec) 
Heartbeat CPU 0 instructions: 920000000 cycles: 1583311825 heartbeat IPC: 0.448718 cumulative IPC: 0.489662 (Simulation time: 5 hr 9 min 52 sec) 
Heartbeat CPU 2 instructions: 1240000000 cycles: 1585722986 heartbeat IPC: 0.538427 cumulative IPC: 0.673959 (Simulation time: 5 hr 10 min 15 sec) 
Heartbeat CPU 1 instructions: 1280000000 cycles: 1587257620 heartbeat IPC: 0.705728 cumulative IPC: 0.728062 (Simulation time: 5 hr 10 min 30 sec) 
Heartbeat CPU 3 instructions: 1570000001 cycles: 1589968882 heartbeat IPC: 0.704705 cumulative IPC: 0.859655 (Simulation time: 5 hr 10 min 57 sec) 
Finished CPU 2 instructions: 1000000000 cycles: 1484080975 cumulative IPC: 0.673818 (Simulation time: 5 hr 12 min 10 sec) 
Heartbeat CPU 2 instructions: 1250000002 cycles: 1599843829 heartbeat IPC: 0.708173 cumulative IPC: 0.674284 (Simulation time: 5 hr 12 min 38 sec) 
Heartbeat CPU 1 instructions: 1290000000 cycles: 1601628909 heartbeat IPC: 0.695832 cumulative IPC: 0.727751 (Simulation time: 5 hr 12 min 56 sec) 
Heartbeat CPU 3 instructions: 1580000000 cycles: 1604394779 heartbeat IPC: 0.693198 cumulative IPC: 0.858045 (Simulation time: 5 hr 13 min 19 sec) 
Heartbeat CPU 0 instructions: 930000001 cycles: 1604751804 heartbeat IPC: 0.466418 cumulative IPC: 0.489328 (Simulation time: 5 hr 13 min 22 sec) 
Heartbeat CPU 2 instructions: 1260000000 cycles: 1610864966 heartbeat IPC: 0.907347 cumulative IPC: 0.675998 (Simulation time: 5 hr 14 min 22 sec) 
Heartbeat CPU 3 instructions: 1590000001 cycles: 1617994225 heartbeat IPC: 0.735324 cumulative IPC: 0.856936 (Simulation time: 5 hr 15 min 27 sec) 
Heartbeat CPU 1 instructions: 1300000000 cycles: 1620820918 heartbeat IPC: 0.52105 cumulative IPC: 0.72512 (Simulation time: 5 hr 15 min 58 sec) 
Heartbeat CPU 2 instructions: 1270000003 cycles: 1621850218 heartbeat IPC: 0.910312 cumulative IPC: 0.677704 (Simulation time: 5 hr 16 min 9 sec) 
Heartbeat CPU 0 instructions: 940000000 cycles: 1625814503 heartbeat IPC: 0.474773 cumulative IPC: 0.489126 (Simulation time: 5 hr 16 min 43 sec) 
Heartbeat CPU 3 instructions: 1600000000 cycles: 1630323602 heartbeat IPC: 0.811071 cumulative IPC: 0.856564 (Simulation time: 5 hr 17 min 29 sec) 
Heartbeat CPU 2 instructions: 1280000000 cycles: 1632956846 heartbeat IPC: 0.900363 cumulative IPC: 0.679331 (Simulation time: 5 hr 17 min 57 sec) 
Heartbeat CPU 1 instructions: 1310000001 cycles: 1640101934 heartbeat IPC: 0.518645 cumulative IPC: 0.722513 (Simulation time: 5 hr 19 min 2 sec) 
Heartbeat CPU 3 instructions: 1610000001 cycles: 1642376194 heartbeat IPC: 0.829697 cumulative IPC: 0.856352 (Simulation time: 5 hr 19 min 29 sec) 
Heartbeat CPU 2 instructions: 1290000001 cycles: 1644153605 heartbeat IPC: 0.893116 cumulative IPC: 0.680894 (Simulation time: 5 hr 19 min 47 sec) 
Heartbeat CPU 0 instructions: 950000000 cycles: 1647063474 heartbeat IPC: 0.470611 cumulative IPC: 0.488869 (Simulation time: 5 hr 20 min 15 sec) 
Heartbeat CPU 1 instructions: 1320000000 cycles: 1654729225 heartbeat IPC: 0.683654 cumulative IPC: 0.722145 (Simulation time: 5 hr 21 min 25 sec) 
Heartbeat CPU 3 instructions: 1620000000 cycles: 1656695535 heartbeat IPC: 0.698356 cumulative IPC: 0.854886 (Simulation time: 5 hr 21 min 44 sec) 
Heartbeat CPU 2 instructions: 1300000000 cycles: 1661372775 heartbeat IPC: 0.580748 cumulative IPC: 0.679781 (Simulation time: 5 hr 22 min 25 sec) 
Heartbeat CPU 0 instructions: 960000000 cycles: 1669477149 heartbeat IPC: 0.446156 cumulative IPC: 0.488254 (Simulation time: 5 hr 23 min 41 sec) 
Heartbeat CPU 1 instructions: 1330000001 cycles: 1669837213 heartbeat IPC: 0.661902 cumulative IPC: 0.72156 (Simulation time: 5 hr 23 min 44 sec) 
Heartbeat CPU 3 instructions: 1630000003 cycles: 1670891273 heartbeat IPC: 0.704437 cumulative IPC: 0.853516 (Simulation time: 5 hr 23 min 54 sec) 
Heartbeat CPU 2 instructions: 1310000000 cycles: 1675619755 heartbeat IPC: 0.701903 cumulative IPC: 0.679982 (Simulation time: 5 hr 24 min 43 sec) 
Heartbeat CPU 3 instructions: 1640000000 cycles: 1681823181 heartbeat IPC: 0.914753 cumulative IPC: 0.853942 (Simulation time: 5 hr 25 min 59 sec) 
Heartbeat CPU 1 instructions: 1340000000 cycles: 1684735708 heartbeat IPC: 0.671209 cumulative IPC: 0.721083 (Simulation time: 5 hr 26 min 37 sec) 
Heartbeat CPU 2 instructions: 1320000000 cycles: 1686762405 heartbeat IPC: 0.897453 cumulative IPC: 0.681522 (Simulation time: 5 hr 27 min 0 sec) 
Heartbeat CPU 0 instructions: 970000000 cycles: 1690118820 heartbeat IPC: 0.484457 cumulative IPC: 0.488205 (Simulation time: 5 hr 27 min 35 sec) 
Heartbeat CPU 3 instructions: 1650000002 cycles: 1692947004 heartbeat IPC: 0.898972 cumulative IPC: 0.854259 (Simulation time: 5 hr 28 min 4 sec) 
Heartbeat CPU 2 instructions: 1330000000 cycles: 1699390335 heartbeat IPC: 0.791895 cumulative IPC: 0.6824 (Simulation time: 5 hr 29 min 4 sec) 
Heartbeat CPU 3 instructions: 1660000000 cycles: 1704406464 heartbeat IPC: 0.872641 cumulative IPC: 0.854392 (Simulation time: 5 hr 29 min 41 sec) 
Heartbeat CPU 1 instructions: 1350000000 cycles: 1707910313 heartbeat IPC: 0.431507 cumulative IPC: 0.716875 (Simulation time: 5 hr 30 min 16 sec) 
Heartbeat CPU 0 instructions: 980000000 cycles: 1711991420 heartbeat IPC: 0.457193 cumulative IPC: 0.48778 (Simulation time: 5 hr 31 min 0 sec) 
Heartbeat CPU 1 instructions: 1360000000 cycles: 1717272397 heartbeat IPC: 1.06814 cumulative IPC: 0.718925 (Simulation time: 5 hr 31 min 55 sec) 
Heartbeat CPU 3 instructions: 1670000000 cycles: 1717683832 heartbeat IPC: 0.753161 cumulative IPC: 0.853554 (Simulation time: 5 hr 32 min 0 sec) 
Heartbeat CPU 2 instructions: 1340000000 cycles: 1720131164 heartbeat IPC: 0.482141 cumulative IPC: 0.679816 (Simulation time: 5 hr 32 min 25 sec) 
Heartbeat CPU 1 instructions: 1370000003 cycles: 1726614740 heartbeat IPC: 1.0704 cumulative IPC: 0.72096 (Simulation time: 5 hr 33 min 34 sec) 
Heartbeat CPU 3 instructions: 1680000000 cycles: 1730747425 heartbeat IPC: 0.765486 cumulative IPC: 0.852843 (Simulation time: 5 hr 34 min 18 sec) 
Heartbeat CPU 0 instructions: 990000000 cycles: 1733574120 heartbeat IPC: 0.463334 cumulative IPC: 0.487455 (Simulation time: 5 hr 34 min 50 sec) 
[...]
Heartbeat CPU 3 instructions: 1920000000 cycles: 2053417601 heartbeat IPC: 0.70652 cumulative IPC: 0.83471 (Simulation time: 6 hr 26 min 26 sec) 
Heartbeat CPU 1 instructions: 1730000002 cycles: 2057965987 heartbeat IPC: 1.07257 cumulative IPC: 0.783225 (Simulation time: 6 hr 27 min 9 sec) 
Heartbeat CPU 3 instructions: 1930000001 cycles: 2066693104 heartbeat IPC: 0.753267 cumulative IPC: 0.834157 (Simulation time: 6 hr 28 min 26 sec) 
Heartbeat CPU 0 instructions: 1140000000 cycles: 2068178769 heartbeat IPC: 0.458673 cumulative IPC: 0.480753 (Simulation time: 6 hr 28 min 38 sec) 
Heartbeat CPU 2 instructions: 1520000000 cycles: 2070027245 heartbeat IPC: 0.473336 cumulative IPC: 0.65025 (Simulation time: 6 hr 28 min 54 sec) 
Heartbeat CPU 1 instructions: 1740000000 cycles: 2072148710 heartbeat IPC: 0.705083 cumulative IPC: 0.782659 (Simulation time: 6 hr 29 min 11 sec) 
Heartbeat CPU 3 instructions: 1940000000 cycles: 2077977766 heartbeat IPC: 0.886158 cumulative IPC: 0.834455 (Simulation time: 6 hr 29 min 59 sec) 
Heartbeat CPU 2 instructions: 1530000002 cycles: 2088781955 heartbeat IPC: 0.533199 cumulative IPC: 0.649139 (Simulation time: 6 hr 31 min 31 sec) 
Heartbeat CPU 3 instructions: 1950000000 cycles: 2089070579 heartbeat IPC: 0.901485 cumulative IPC: 0.834832 (Simulation time: 6 hr 31 min 34 sec) 
Heartbeat CPU 1 instructions: 1750000002 cycles: 2089485343 heartbeat IPC: 0.576813 cumulative IPC: 0.780854 (Simulation time: 6 hr 31 min 38 sec) 
Heartbeat CPU 0 instructions: 1150000002 cycles: 2089995422 heartbeat IPC: 0.458366 cumulative IPC: 0.480506 (Simulation time: 6 hr 31 min 42 sec) 
Heartbeat CPU 3 instructions: 1960000000 cycles: 2100357978 heartbeat IPC: 0.885944 cumulative IPC: 0.835122 (Simulation time: 6 hr 33 min 11 sec) 
Heartbeat CPU 2 instructions: 1540000000 cycles: 2106920449 heartbeat IPC: 0.551314 cumulative IPC: 0.648249 (Simulation time: 6 hr 34 min 11 sec) 
Heartbeat CPU 1 instructions: 1760000000 cycles: 2107428798 heartbeat IPC: 0.557306 cumulative IPC: 0.778843 (Simulation time: 6 hr 34 min 15 sec) 
Heartbeat CPU 0 instructions: 1160000000 cycles: 2112004458 heartbeat IPC: 0.454359 cumulative IPC: 0.480218 (Simulation time: 6 hr 34 min 55 sec) 
Heartbeat CPU 3 instructions: 1970000002 cycles: 2112455085 heartbeat IPC: 0.826644 cumulative IPC: 0.83507 (Simulation time: 6 hr 35 min 0 sec) 
Heartbeat CPU 3 instructions: 1980000000 cycles: 2124579486 heartbeat IPC: 0.824783 cumulative IPC: 0.835009 (Simulation time: 6 hr 36 min 48 sec) 
Heartbeat CPU 2 instructions: 1550000001 cycles: 2125316393 heartbeat IPC: 0.543598 cumulative IPC: 0.647292 (Simulation time: 6 hr 36 min 55 sec) 
Heartbeat CPU 1 instructions: 1770000001 cycles: 2126155318 heartbeat IPC: 0.534002 cumulative IPC: 0.776565 (Simulation time: 6 hr 37 min 2 sec) 
Heartbeat CPU 0 instructions: 1170000001 cycles: 2133856062 heartbeat IPC: 0.457632 cumulative IPC: 0.479974 (Simulation time: 6 hr 38 min 14 sec) 
Heartbeat CPU 3 instructions: 1990000000 cycles: 2135808938 heartbeat IPC: 0.890515 cumulative IPC: 0.835317 (Simulation time: 6 hr 38 min 35 sec) 
Heartbeat CPU 2 instructions: 1560000000 cycles: 2138408517 heartbeat IPC: 0.763818 cumulative IPC: 0.648045 (Simulation time: 6 hr 39 min 0 sec) 
Heartbeat CPU 1 instructions: 1780000000 cycles: 2143716887 heartbeat IPC: 0.569425 cumulative IPC: 0.774774 (Simulation time: 6 hr 39 min 51 sec) 
*** Reached end of trace for Core: 3 Repeating trace: /scratch/user/djimenez/champsim-traces/speccpu2006/xz//482.sphinx3-234B.champsimtrace.xz
Heartbeat CPU 3 instructions: 2000000000 cycles: 2146828113 heartbeat IPC: 0.907509 cumulative IPC: 0.835708 (Simulation time: 6 hr 40 min 23 sec) 
Heartbeat CPU 2 instructions: 1570000003 cycles: 2150327933 heartbeat IPC: 0.838968 cumulative IPC: 0.649162 (Simulation time: 6 hr 40 min 57 sec) 
Heartbeat CPU 0 instructions: 1180000000 cycles: 2154849747 heartbeat IPC: 0.476334 cumulative IPC: 0.479936 (Simulation time: 6 hr 41 min 41 sec) 
Heartbeat CPU 3 instructions: 2010000003 cycles: 2158450070 heartbeat IPC: 0.860441 cumulative IPC: 0.835848 (Simulation time: 6 hr 42 min 18 sec) 
Heartbeat CPU 1 instructions: 1790000001 cycles: 2161057644 heartbeat IPC: 0.576676 cumulative IPC: 0.773097 (Simulation time: 6 hr 42 min 46 sec) 
Heartbeat CPU 2 instructions: 1580000000 cycles: 2161393645 heartbeat IPC: 0.903692 cumulative IPC: 0.650537 (Simulation time: 6 hr 42 min 49 sec) 
Heartbeat CPU 3 instructions: 2020000000 cycles: 2169563704 heartbeat IPC: 0.899795 cumulative IPC: 0.836194 (Simulation time: 6 hr 44 min 15 sec) 
Heartbeat CPU 2 instructions: 1590000000 cycles: 2171571013 heartbeat IPC: 0.982572 cumulative IPC: 0.652179 (Simulation time: 6 hr 44 min 36 sec) 
Heartbeat CPU 0 instructions: 1190000003 cycles: 2175348127 heartbeat IPC: 0.487844 cumulative IPC: 0.480015 (Simulation time: 6 hr 45 min 17 sec) 
Heartbeat CPU 1 instructions: 1800000000 cycles: 2178225047 heartbeat IPC: 0.582499 cumulative IPC: 0.771513 (Simulation time: 6 hr 45 min 47 sec) 
Heartbeat CPU 3 instructions: 2030000002 cycles: 2180146778 heartbeat IPC: 0.944905 cumulative IPC: 0.83675 (Simulation time: 6 hr 46 min 9 sec) 
Heartbeat CPU 2 instructions: 1600000000 cycles: 2182190271 heartbeat IPC: 0.941685 cumulative IPC: 0.653664 (Simulation time: 6 hr 46 min 29 sec) 
Heartbeat CPU 3 instructions: 2040000000 cycles: 2191136680 heartbeat IPC: 0.909926 cumulative IPC: 0.837137 (Simulation time: 6 hr 47 min 57 sec) 
Heartbeat CPU 2 instructions: 1610000001 cycles: 2194139163 heartbeat IPC: 0.836898 cumulative IPC: 0.654716 (Simulation time: 6 hr 48 min 26 sec) 
Heartbeat CPU 1 instructions: 1810000000 cycles: 2195617345 heartbeat IPC: 0.574967 cumulative IPC: 0.769871 (Simulation time: 6 hr 48 min 40 sec) 
Heartbeat CPU 0 instructions: 1200000000 cycles: 2196394581 heartbeat IPC: 0.475139 cumulative IPC: 0.479965 (Simulation time: 6 hr 48 min 48 sec) 
Finished CPU 0 instructions: 1000000003 cycles: 2083483378 cumulative IPC: 0.479965 (Simulation time: 6 hr 48 min 48 sec) 

CPU 0 Branch Prediction Accuracy: 94.694% MPKI: 5.48768

CPU 1 Branch Prediction Accuracy: 99.639% MPKI: 0.0633054

CPU 2 Branch Prediction Accuracy: 97.8565% MPKI: 3.53324

CPU 3 Branch Prediction Accuracy: 96.587% MPKI: 2.92392

ChampSim completed all CPUs

Total Simulation Statistics (not including warmup)

CPU 0 cumulative IPC: 0.479965 instructions: 1000000003 cycles: 2083483378
L1D TOTAL     ACCESS:  348361894  HIT:  342525646  MISS:    5836248
L1D LOAD      ACCESS:  218124828  HIT:  213019713  MISS:    5105115
L1D RFO       ACCESS:  130237066  HIT:  129505933  MISS:     731133
L1D PREFETCH  ACCESS:          0  HIT:          0  MISS:          0
L1D WRITEBACK ACCESS:          0  HIT:          0  MISS:          0
L1I TOTAL     ACCESS:  275428791  HIT:  275428791  MISS:          0
L1I LOAD      ACCESS:  275428791  HIT:  275428791  MISS:          0
L1I RFO       ACCESS:          0  HIT:          0  MISS:          0
L1I PREFETCH  ACCESS:          0  HIT:          0  MISS:          0
L1I WRITEBACK ACCESS:          0  HIT:          0  MISS:          0
L2C TOTAL     ACCESS:    9266818  HIT:    6872681  MISS:    2394137
L2C LOAD      ACCESS:    5104839  HIT:    3264034  MISS:    1840805
L2C RFO       ACCESS:     731131  HIT:     355812  MISS:     375319
L2C PREFETCH  ACCESS:    1417901  HIT:    1240664  MISS:     177237
L2C WRITEBACK ACCESS:    2012947  HIT:    2012171  MISS:        776
LLC TOTAL     ACCESS:    7654452  HIT:    3547799  MISS:    4106653
LLC LOAD      ACCESS:    1839387  HIT:     720842  MISS:    1118545
LLC RFO       ACCESS:     375319  HIT:      18902  MISS:     356417
LLC PREFETCH  ACCESS:    4000359  HIT:    2180725  MISS:    1819634
LLC WRITEBACK ACCESS:    1439387  HIT:     627330  MISS:     812057

CPU 1 cumulative IPC: 0.769799 instructions: 1603863194 cycles: 2083483379
L1D TOTAL     ACCESS:  722678937  HIT:  697292468  MISS:   25386469
L1D LOAD      ACCESS:  611268738  HIT:  586048376  MISS:   25220362
L1D RFO       ACCESS:  111410199  HIT:  111244092  MISS:     166107
L1D PREFETCH  ACCESS:          0  HIT:          0  MISS:          0
L1D WRITEBACK ACCESS:          0  HIT:          0  MISS:          0
L1I TOTAL     ACCESS:  402795884  HIT:  402795200  MISS:        684
L1I LOAD      ACCESS:  402795884  HIT:  402795200  MISS:        684
L1I RFO       ACCESS:          0  HIT:          0  MISS:          0
L1I PREFETCH  ACCESS:          0  HIT:          0  MISS:          0
L1I WRITEBACK ACCESS:          0  HIT:          0  MISS:          0
L2C TOTAL     ACCESS:   54272433  HIT:   29526450  MISS:   24745983
L2C LOAD      ACCESS:   25219921  HIT:   14874736  MISS:   10345185
L2C RFO       ACCESS:     165968  HIT:        512  MISS:     165456
L2C PREFETCH  ACCESS:   18618250  HIT:    4384720  MISS:   14233530
L2C WRITEBACK ACCESS:   10268294  HIT:   10266482  MISS:       1812
LLC TOTAL     ACCESS:  141810187  HIT:  120055284  MISS:   21754903
LLC LOAD      ACCESS:   10189065  HIT:    8610719  MISS:    1578346
LLC RFO       ACCESS:     165455  HIT:      99677  MISS:      65778
LLC PREFETCH  ACCESS:  121239572  HIT:  101150273  MISS:   20089299
LLC WRITEBACK ACCESS:   10216095  HIT:   10194615  MISS:      21480

CPU 2 cumulative IPC: 0.654913 instructions: 1364500548 cycles: 2083483379
L1D TOTAL     ACCESS:  221214318  HIT:  185307303  MISS:   35907015
L1D LOAD      ACCESS:  154845359  HIT:  118938600  MISS:   35906759
L1D RFO       ACCESS:   66368959  HIT:   66368703  MISS:        256
L1D PREFETCH  ACCESS:          0  HIT:          0  MISS:          0
L1D WRITEBACK ACCESS:          0  HIT:          0  MISS:          0
L1I TOTAL     ACCESS:  386019546  HIT:  386019524  MISS:         22
L1I LOAD      ACCESS:  386019546  HIT:  386019524  MISS:         22
L1I RFO       ACCESS:          0  HIT:          0  MISS:          0
L1I PREFETCH  ACCESS:          0  HIT:          0  MISS:          0
L1I WRITEBACK ACCESS:          0  HIT:          0  MISS:          0
L2C TOTAL     ACCESS:   63693797  HIT:   27786711  MISS:   35907086
L2C LOAD      ACCESS:   35906781  HIT:    8987140  MISS:   26919641
L2C RFO       ACCESS:        256  HIT:          0  MISS:        256
L2C PREFETCH  ACCESS:    8992086  HIT:       4897  MISS:    8987189
L2C WRITEBACK ACCESS:   18794674  HIT:   18794674  MISS:          0
LLC TOTAL     ACCESS:  133787199  HIT:   97879577  MISS:   35907622
LLC LOAD      ACCESS:   20327801  HIT:   16470609  MISS:    3857192
LLC RFO       ACCESS:        256  HIT:          0  MISS:        256
LLC PREFETCH  ACCESS:   94664581  HIT:   62614407  MISS:   32050174
LLC WRITEBACK ACCESS:   18794561  HIT:   18794561  MISS:          0

CPU 3 cumulative IPC: 0.837403 instructions: 1744714216 cycles: 2083483379
L1D TOTAL     ACCESS:  301767491  HIT:  274716002  MISS:   27051489
L1D LOAD      ACCESS:  269971239  HIT:  243885085  MISS:   26086154
L1D RFO       ACCESS:   31796252  HIT:   30830917  MISS:     965335
L1D PREFETCH  ACCESS:          0  HIT:          0  MISS:          0
L1D WRITEBACK ACCESS:          0  HIT:          0  MISS:          0
L1I TOTAL     ACCESS:  451854145  HIT:  451852970  MISS:       1175
L1I LOAD      ACCESS:  451854145  HIT:  451852970  MISS:       1175
L1I RFO       ACCESS:          0  HIT:          0  MISS:          0
L1I PREFETCH  ACCESS:          0  HIT:          0  MISS:          0
L1I WRITEBACK ACCESS:          0  HIT:          0  MISS:          0
L2C TOTAL     ACCESS:   42519005  HIT:   19879710  MISS:   22639295
L2C LOAD      ACCESS:   26087312  HIT:   14513469  MISS:   11573843
L2C RFO       ACCESS:     965274  HIT:     199270  MISS:     766004
L2C PREFETCH  ACCESS:   13743337  HIT:    3447015  MISS:   10296322
L2C WRITEBACK ACCESS:    1723082  HIT:    1719956  MISS:       3126
LLC TOTAL     ACCESS:  107828327  HIT:   84204842  MISS:   23623485
LLC LOAD      ACCESS:   11208850  HIT:    8232292  MISS:    2976558
LLC RFO       ACCESS:     765985  HIT:     129360  MISS:     636625
LLC PREFETCH  ACCESS:   94453833  HIT:   74447776  MISS:   20006057
LLC WRITEBACK ACCESS:    1399659  HIT:    1395414  MISS:       4245

Region of Interest Statistics

CPU 0 cumulative IPC: 0.479965 instructions: 1000000003 cycles: 2083483378
L1D TOTAL     ACCESS:  348361894  HIT:  342525646  MISS:    5836248
L1D LOAD      ACCESS:  218124828  HIT:  213019713  MISS:    5105115
L1D RFO       ACCESS:  130237066  HIT:  129505933  MISS:     731133
L1D PREFETCH  ACCESS:          0  HIT:          0  MISS:          0
L1D WRITEBACK ACCESS:          0  HIT:          0  MISS:          0
L1D PREFETCH  REQUESTED:          0  ISSUED:          0  USEFUL:          0  USELESS:          0
L1I TOTAL     ACCESS:  275428791  HIT:  275428791  MISS:          0
L1I LOAD      ACCESS:  275428791  HIT:  275428791  MISS:          0
L1I RFO       ACCESS:          0  HIT:          0  MISS:          0
L1I PREFETCH  ACCESS:          0  HIT:          0  MISS:          0
L1I WRITEBACK ACCESS:          0  HIT:          0  MISS:          0
L1I PREFETCH  REQUESTED:          0  ISSUED:          0  USEFUL:          0  USELESS:          0
L2C TOTAL     ACCESS:    9266818  HIT:    6872681  MISS:    2394137
L2C LOAD      ACCESS:    5104839  HIT:    3264034  MISS:    1840805
L2C RFO       ACCESS:     731131  HIT:     355812  MISS:     375319
L2C PREFETCH  ACCESS:    1417901  HIT:    1240664  MISS:     177237
L2C WRITEBACK ACCESS:    2012947  HIT:    2012171  MISS:        776
L2C PREFETCH  REQUESTED:    6212558  ISSUED:    6212558  USEFUL:      89841  USELESS:     128752
LLC TOTAL     ACCESS:    7654452  HIT:    3547799  MISS:    4106653
LLC LOAD      ACCESS:    1839387  HIT:     720842  MISS:    1118545
LLC RFO       ACCESS:     375319  HIT:      18902  MISS:     356417
LLC PREFETCH  ACCESS:    4000359  HIT:    2180725  MISS:    1819634
LLC WRITEBACK ACCESS:    1439387  HIT:     627330  MISS:     812057
LLC PREFETCH  REQUESTED:          0  ISSUED:          0  USEFUL:   35011344  USELESS:   51379296
Major fault: 0 Minor fault: 6414

CPU 1 cumulative IPC: 0.72929 instructions: 1000000000 cycles: 1371196814
L1D TOTAL     ACCESS:  489724943  HIT:  475966432  MISS:   13758511
L1D LOAD      ACCESS:  422542611  HIT:  408784656  MISS:   13757955
L1D RFO       ACCESS:   67182332  HIT:   67181776  MISS:        556
L1D PREFETCH  ACCESS:          0  HIT:          0  MISS:          0
L1D WRITEBACK ACCESS:          0  HIT:          0  MISS:          0
L1D PREFETCH  REQUESTED:          0  ISSUED:          0  USEFUL:          0  USELESS:          0
L1I TOTAL     ACCESS:  251083341  HIT:  251083054  MISS:        287
L1I LOAD      ACCESS:  251083341  HIT:  251083054  MISS:        287
L1I RFO       ACCESS:          0  HIT:          0  MISS:          0
L1I PREFETCH  ACCESS:          0  HIT:          0  MISS:          0
L1I WRITEBACK ACCESS:          0  HIT:          0  MISS:          0
L1I PREFETCH  REQUESTED:          0  ISSUED:          0  USEFUL:          0  USELESS:          0
L2C TOTAL     ACCESS:   30537719  HIT:   17466701  MISS:   13071018
L2C LOAD      ACCESS:   13757343  HIT:    8040602  MISS:    5716741
L2C RFO       ACCESS:        453  HIT:        416  MISS:         37
L2C PREFETCH  ACCESS:   11144944  HIT:    3791485  MISS:    7353459
L2C WRITEBACK ACCESS:    5634979  HIT:    5634198  MISS:        781
L2C PREFETCH  REQUESTED:  155823406  ISSUED:  153684969  USEFUL:   15128983  USELESS:     658952
LLC TOTAL     ACCESS:   75909303  HIT:   64009176  MISS:   11900127
LLC LOAD      ACCESS:    5661870  HIT:    4741961  MISS:     919909
LLC RFO       ACCESS:         37  HIT:          5  MISS:         32
LLC PREFETCH  ACCESS:   64640156  HIT:   53660457  MISS:   10979699
LLC WRITEBACK ACCESS:    5607240  HIT:    5606753  MISS:        487
LLC PREFETCH  REQUESTED:          0  ISSUED:          0  USEFUL:   35011344  USELESS:   51379296
Major fault: 0 Minor fault: 179955

CPU 2 cumulative IPC: 0.673818 instructions: 1000000000 cycles: 1484080975
L1D TOTAL     ACCESS:  162515944  HIT:  136284723  MISS:   26231221
L1D LOAD      ACCESS:  113766766  HIT:   87535734  MISS:   26231032
L1D RFO       ACCESS:   48749178  HIT:   48748989  MISS:        189
L1D PREFETCH  ACCESS:          0  HIT:          0  MISS:          0
L1D WRITEBACK ACCESS:          0  HIT:          0  MISS:          0
L1D PREFETCH  REQUESTED:          0  ISSUED:          0  USEFUL:          0  USELESS:          0
L1I TOTAL     ACCESS:  287893628  HIT:  287893613  MISS:         15
L1I LOAD      ACCESS:  287893628  HIT:  287893613  MISS:         15
L1I RFO       ACCESS:          0  HIT:          0  MISS:          0
L1I PREFETCH  ACCESS:          0  HIT:          0  MISS:          0
L1I WRITEBACK ACCESS:          0  HIT:          0  MISS:          0
L1I PREFETCH  REQUESTED:          0  ISSUED:          0  USEFUL:          0  USELESS:          0
L2C TOTAL     ACCESS:   46583842  HIT:   20352575  MISS:   26231267
L2C LOAD      ACCESS:   26231048  HIT:    6688653  MISS:   19542395
L2C RFO       ACCESS:        189  HIT:          0  MISS:        189
L2C PREFETCH  ACCESS:    6692898  HIT:       4215  MISS:    6688683
L2C WRITEBACK ACCESS:   13659707  HIT:   13659707  MISS:          0
L2C PREFETCH  REQUESTED:  280524208  ISSUED:  280524208  USEFUL:   12804431  USELESS:         64
LLC TOTAL     ACCESS:   99136959  HIT:   72905294  MISS:   26231665
LLC LOAD      ACCESS:   14661036  HIT:   12060674  MISS:    2600362
LLC RFO       ACCESS:        189  HIT:          0  MISS:        189
LLC PREFETCH  ACCESS:   70815803  HIT:   47184689  MISS:   23631114
LLC WRITEBACK ACCESS:   13659931  HIT:   13659931  MISS:          0
LLC PREFETCH  REQUESTED:          0  ISSUED:          0  USEFUL:   35011344  USELESS:   51379296
Major fault: 0 Minor fault: 8200

CPU 3 cumulative IPC: 0.856279 instructions: 1000000000 cycles: 1167843232
L1D TOTAL     ACCESS:  172525367  HIT:  157119912  MISS:   15405455
L1D LOAD      ACCESS:  154771329  HIT:  139905338  MISS:   14865991
L1D RFO       ACCESS:   17754038  HIT:   17214574  MISS:     539464
L1D PREFETCH  ACCESS:          0  HIT:          0  MISS:          0
L1D WRITEBACK ACCESS:          0  HIT:          0  MISS:          0
L1D PREFETCH  REQUESTED:          0  ISSUED:          0  USEFUL:          0  USELESS:          0
L1I TOTAL     ACCESS:  259083926  HIT:  259083303  MISS:        623
L1I LOAD      ACCESS:  259083926  HIT:  259083303  MISS:        623
L1I RFO       ACCESS:          0  HIT:          0  MISS:          0
L1I PREFETCH  ACCESS:          0  HIT:          0  MISS:          0
L1I WRITEBACK ACCESS:          0  HIT:          0  MISS:          0
L1I PREFETCH  REQUESTED:          0  ISSUED:          0  USEFUL:          0  USELESS:          0
L2C TOTAL     ACCESS:   24269562  HIT:   11363421  MISS:   12906141
L2C LOAD      ACCESS:   14866602  HIT:    8411121  MISS:    6455481
L2C RFO       ACCESS:     539435  HIT:     111644  MISS:     427791
L2C PREFETCH  ACCESS:    7883166  HIT:    1862035  MISS:    6021131
L2C WRITEBACK ACCESS:     980359  HIT:     978621  MISS:       1738
L2C PREFETCH  REQUESTED:  133196134  ISSUED:  133187456  USEFUL:   11597032  USELESS:     491311
LLC TOTAL     ACCESS:   62721700  HIT:   49489563  MISS:   13232137
LLC LOAD      ACCESS:    6267056  HIT:    4659520  MISS:    1607536
LLC RFO       ACCESS:     427780  HIT:      77712  MISS:     350068
LLC PREFETCH  ACCESS:   55227297  HIT:   43954664  MISS:   11272633
LLC WRITEBACK ACCESS:     799567  HIT:     797667  MISS:       1900
LLC PREFETCH  REQUESTED:          0  ISSUED:          0  USEFUL:   35011344  USELESS:   51379296
Major fault: 0 Minor fault: 4493

DRAM Statistics
 CHANNEL 0
 RQ ROW_BUFFER_HIT:   21254139  ROW_BUFFER_MISS:   20996906
 DBUS_CONGESTED:   76255757
 WQ ROW_BUFFER_HIT:    1938868  ROW_BUFFER_MISS:   13845875  FULL:          0

 CHANNEL 1
 RQ ROW_BUFFER_HIT:   21232892  ROW_BUFFER_MISS:   21070295
 DBUS_CONGESTED:   76255757
 WQ ROW_BUFFER_HIT:    1917546  ROW_BUFFER_MISS:   13802657  FULL:          0

 AVG_CONGESTED_CYCLE: 13
