Initialize SIGNATURE TABLE
ST_SET: 1
ST_WAY: 256
ST_TAG_BIT: 16
ST_TAG_MASK: ffff

Initialize PATTERN TABLE
PT_SET: 512
PT_WAY: 4
SIG_DELTA_BIT: 7
C_SIG_BIT: 4
C_DELTA_BIT: 4

Initialize PREFETCH FILTER
FILTER_SET: 1024

*** ChampSim Multicore Out-of-Order Simulator ***

Warmup Instructions: 200000000
Simulation Instructions: 1000000000
Number of CPUs: 4
LLC sets: 8192
LLC ways: 16
Off-chip DRAM Size: 8192 MB Channels: 2 Width: 64-bit Data Rate: 1600 MT/s

CPU 0 runs /scratch/user/djimenez/champsim-traces/speccpu2006/xz//433.milc-274B.champsimtrace.xz
CPU 1 runs /scratch/user/djimenez/champsim-traces/speccpu2006/xz//410.bwaves-1963B.champsimtrace.xz
CPU 2 runs /scratch/user/djimenez/champsim-traces/speccpu2006/xz//481.wrf-816B.champsimtrace.xz
CPU 3 runs /scratch/user/djimenez/champsim-traces/speccpu2006/xz//473.astar-42B.champsimtrace.xz
Heartbeat CPU 0 instructions: 10000002 cycles: 3372228 heartbeat IPC: 2.9654 cumulative IPC: 2.9654 (Simulation time: 0 hr 1 min 15 sec) 
Heartbeat CPU 2 instructions: 10000002 cycles: 4856378 heartbeat IPC: 2.05915 cumulative IPC: 2.05915 (Simulation time: 0 hr 1 min 49 sec) 
Heartbeat CPU 1 instructions: 10000002 cycles: 6623578 heartbeat IPC: 1.50976 cumulative IPC: 1.50976 (Simulation time: 0 hr 2 min 35 sec) 
Heartbeat CPU 0 instructions: 20000000 cycles: 6743676 heartbeat IPC: 2.96608 cumulative IPC: 2.96574 (Simulation time: 0 hr 2 min 38 sec) 
Heartbeat CPU 3 instructions: 10000003 cycles: 7167328 heartbeat IPC: 1.39522 cumulative IPC: 1.39522 (Simulation time: 0 hr 2 min 47 sec) 
Heartbeat CPU 2 instructions: 20000000 cycles: 8797786 heartbeat IPC: 2.53716 cumulative IPC: 2.2733 (Simulation time: 0 hr 3 min 26 sec) 
Heartbeat CPU 0 instructions: 30000003 cycles: 10116363 heartbeat IPC: 2.965 cumulative IPC: 2.96549 (Simulation time: 0 hr 3 min 58 sec) 
Heartbeat CPU 2 instructions: 30000001 cycles: 12454678 heartbeat IPC: 2.73456 cumulative IPC: 2.40873 (Simulation time: 0 hr 4 min 55 sec) 
Heartbeat CPU 1 instructions: 20000000 cycles: 13246484 heartbeat IPC: 1.50991 cumulative IPC: 1.50983 (Simulation time: 0 hr 5 min 14 sec) 
Heartbeat CPU 0 instructions: 40000000 cycles: 13490014 heartbeat IPC: 2.96415 cumulative IPC: 2.96516 (Simulation time: 0 hr 5 min 19 sec) 
Heartbeat CPU 3 instructions: 20000000 cycles: 13950226 heartbeat IPC: 1.4743 cumulative IPC: 1.43367 (Simulation time: 0 hr 5 min 30 sec) 
Heartbeat CPU 2 instructions: 40000000 cycles: 16035026 heartbeat IPC: 2.79302 cumulative IPC: 2.49454 (Simulation time: 0 hr 6 min 23 sec) 
Heartbeat CPU 0 instructions: 50000003 cycles: 16861805 heartbeat IPC: 2.96578 cumulative IPC: 2.96528 (Simulation time: 0 hr 6 min 44 sec) 
Heartbeat CPU 2 instructions: 50000002 cycles: 19692517 heartbeat IPC: 2.73412 cumulative IPC: 2.53904 (Simulation time: 0 hr 7 min 47 sec) 
Heartbeat CPU 1 instructions: 30000001 cycles: 19869395 heartbeat IPC: 1.50991 cumulative IPC: 1.50986 (Simulation time: 0 hr 7 min 51 sec) 
Heartbeat CPU 0 instructions: 60000000 cycles: 20234394 heartbeat IPC: 2.96508 cumulative IPC: 2.96525 (Simulation time: 0 hr 7 min 59 sec) 
Heartbeat CPU 3 instructions: 30000000 cycles: 20803673 heartbeat IPC: 1.45912 cumulative IPC: 1.44205 (Simulation time: 0 hr 8 min 8 sec) 
Heartbeat CPU 2 instructions: 60000000 cycles: 23646571 heartbeat IPC: 2.52905 cumulative IPC: 2.53737 (Simulation time: 0 hr 9 min 0 sec) 
Heartbeat CPU 1 instructions: 40000000 cycles: 26492757 heartbeat IPC: 1.50981 cumulative IPC: 1.50985 (Simulation time: 0 hr 9 min 49 sec) 
Heartbeat CPU 3 instructions: 40000000 cycles: 27799830 heartbeat IPC: 1.42936 cumulative IPC: 1.43886 (Simulation time: 0 hr 10 min 14 sec) 
Heartbeat CPU 2 instructions: 70000001 cycles: 28072450 heartbeat IPC: 2.25944 cumulative IPC: 2.49355 (Simulation time: 0 hr 10 min 19 sec) 
Heartbeat CPU 0 instructions: 70000000 cycles: 28577367 heartbeat IPC: 1.19861 cumulative IPC: 2.44949 (Simulation time: 0 hr 10 min 30 sec) 
Heartbeat CPU 0 instructions: 80000000 cycles: 31973692 heartbeat IPC: 2.94436 cumulative IPC: 2.50206 (Simulation time: 0 hr 11 min 44 sec) 
Heartbeat CPU 1 instructions: 50000001 cycles: 33116147 heartbeat IPC: 1.5098 cumulative IPC: 1.50984 (Simulation time: 0 hr 12 min 8 sec) 
Heartbeat CPU 2 instructions: 80000000 cycles: 33421886 heartbeat IPC: 1.86936 cumulative IPC: 2.39364 (Simulation time: 0 hr 12 min 14 sec) 
Heartbeat CPU 3 instructions: 50000002 cycles: 34745742 heartbeat IPC: 1.4397 cumulative IPC: 1.43903 (Simulation time: 0 hr 12 min 40 sec) 
Heartbeat CPU 0 instructions: 90000001 cycles: 35368496 heartbeat IPC: 2.94568 cumulative IPC: 2.54464 (Simulation time: 0 hr 12 min 53 sec) 
Heartbeat CPU 0 instructions: 100000000 cycles: 38758787 heartbeat IPC: 2.9496 cumulative IPC: 2.58006 (Simulation time: 0 hr 14 min 1 sec) 
Heartbeat CPU 2 instructions: 90000001 cycles: 39180289 heartbeat IPC: 1.73659 cumulative IPC: 2.29707 (Simulation time: 0 hr 14 min 9 sec) 
Heartbeat CPU 1 instructions: 60000000 cycles: 39739700 heartbeat IPC: 1.50976 cumulative IPC: 1.50983 (Simulation time: 0 hr 14 min 20 sec) 
Heartbeat CPU 3 instructions: 60000000 cycles: 41632825 heartbeat IPC: 1.45199 cumulative IPC: 1.44117 (Simulation time: 0 hr 15 min 0 sec) 
Heartbeat CPU 0 instructions: 110000001 cycles: 42154838 heartbeat IPC: 2.9446 cumulative IPC: 2.60943 (Simulation time: 0 hr 15 min 11 sec) 
Heartbeat CPU 2 instructions: 100000000 cycles: 43609657 heartbeat IPC: 2.25766 cumulative IPC: 2.29307 (Simulation time: 0 hr 15 min 42 sec) 
Heartbeat CPU 0 instructions: 120000000 cycles: 45568041 heartbeat IPC: 2.9298 cumulative IPC: 2.63342 (Simulation time: 0 hr 16 min 23 sec) 
Heartbeat CPU 1 instructions: 70000003 cycles: 46365370 heartbeat IPC: 1.50928 cumulative IPC: 1.50975 (Simulation time: 0 hr 16 min 40 sec) 
Heartbeat CPU 2 instructions: 110000003 cycles: 47918548 heartbeat IPC: 2.32078 cumulative IPC: 2.29556 (Simulation time: 0 hr 17 min 13 sec) 
Heartbeat CPU 3 instructions: 70000001 cycles: 48536475 heartbeat IPC: 1.44851 cumulative IPC: 1.44221 (Simulation time: 0 hr 17 min 27 sec) 
Heartbeat CPU 0 instructions: 130000000 cycles: 48969999 heartbeat IPC: 2.93948 cumulative IPC: 2.65469 (Simulation time: 0 hr 17 min 37 sec) 
Heartbeat CPU 2 instructions: 120000000 cycles: 52165168 heartbeat IPC: 2.35481 cumulative IPC: 2.30039 (Simulation time: 0 hr 18 min 49 sec) 
Heartbeat CPU 0 instructions: 140000000 cycles: 52367629 heartbeat IPC: 2.94323 cumulative IPC: 2.67341 (Simulation time: 0 hr 18 min 54 sec) 
Heartbeat CPU 1 instructions: 80000000 cycles: 52988889 heartbeat IPC: 1.50977 cumulative IPC: 1.50975 (Simulation time: 0 hr 19 min 8 sec) 
Heartbeat CPU 3 instructions: 80000000 cycles: 55504581 heartbeat IPC: 1.43511 cumulative IPC: 1.44132 (Simulation time: 0 hr 20 min 3 sec) 
Heartbeat CPU 0 instructions: 150000001 cycles: 55764169 heartbeat IPC: 2.94417 cumulative IPC: 2.6899 (Simulation time: 0 hr 20 min 9 sec) 
Heartbeat CPU 2 instructions: 130000003 cycles: 57201355 heartbeat IPC: 1.98563 cumulative IPC: 2.27267 (Simulation time: 0 hr 20 min 41 sec) 
Heartbeat CPU 0 instructions: 160000000 cycles: 59158332 heartbeat IPC: 2.94623 cumulative IPC: 2.70461 (Simulation time: 0 hr 21 min 29 sec) 
Heartbeat CPU 1 instructions: 90000003 cycles: 59612632 heartbeat IPC: 1.50972 cumulative IPC: 1.50975 (Simulation time: 0 hr 21 min 38 sec) 
Heartbeat CPU 2 instructions: 140000000 cycles: 61667016 heartbeat IPC: 2.23931 cumulative IPC: 2.27026 (Simulation time: 0 hr 22 min 23 sec) 
Heartbeat CPU 0 instructions: 170000002 cycles: 62548314 heartbeat IPC: 2.94987 cumulative IPC: 2.7179 (Simulation time: 0 hr 22 min 47 sec) 
Heartbeat CPU 3 instructions: 90000003 cycles: 62615539 heartbeat IPC: 1.40628 cumulative IPC: 1.43734 (Simulation time: 0 hr 22 min 50 sec) 
Heartbeat CPU 2 instructions: 150000003 cycles: 65312819 heartbeat IPC: 2.74288 cumulative IPC: 2.29664 (Simulation time: 0 hr 23 min 58 sec) 
Heartbeat CPU 0 instructions: 180000000 cycles: 65931895 heartbeat IPC: 2.95545 cumulative IPC: 2.73009 (Simulation time: 0 hr 24 min 12 sec) 
Heartbeat CPU 1 instructions: 100000000 cycles: 66235152 heartbeat IPC: 1.51 cumulative IPC: 1.50977 (Simulation time: 0 hr 24 min 18 sec) 
Heartbeat CPU 2 instructions: 160000000 cycles: 69112435 heartbeat IPC: 2.63184 cumulative IPC: 2.31507 (Simulation time: 0 hr 25 min 22 sec) 
Heartbeat CPU 0 instructions: 190000000 cycles: 69326349 heartbeat IPC: 2.94598 cumulative IPC: 2.74066 (Simulation time: 0 hr 25 min 27 sec) 
Heartbeat CPU 3 instructions: 100000000 cycles: 69519483 heartbeat IPC: 1.44845 cumulative IPC: 1.43845 (Simulation time: 0 hr 25 min 31 sec) 
Heartbeat CPU 2 instructions: 170000002 cycles: 72609476 heartbeat IPC: 2.85956 cumulative IPC: 2.34129 (Simulation time: 0 hr 26 min 44 sec) 
Heartbeat CPU 0 instructions: 200000000 cycles: 72721164 heartbeat IPC: 2.94567 cumulative IPC: 2.75023 (Simulation time: 0 hr 26 min 47 sec) 
Heartbeat CPU 1 instructions: 110000001 cycles: 72858488 heartbeat IPC: 1.50981 cumulative IPC: 1.50978 (Simulation time: 0 hr 26 min 50 sec) 
Heartbeat CPU 3 instructions: 110000000 cycles: 76441149 heartbeat IPC: 1.44474 cumulative IPC: 1.43902 (Simulation time: 0 hr 28 min 12 sec) 
Heartbeat CPU 2 instructions: 180000000 cycles: 76527497 heartbeat IPC: 2.55231 cumulative IPC: 2.3521 (Simulation time: 0 hr 28 min 14 sec) 
Heartbeat CPU 0 instructions: 210000000 cycles: 76683299 heartbeat IPC: 2.52389 cumulative IPC: 0.130406 (Simulation time: 0 hr 28 min 17 sec) 
Heartbeat CPU 1 instructions: 120000000 cycles: 79488354 heartbeat IPC: 1.50833 cumulative IPC: 1.50966 (Simulation time: 0 hr 29 min 20 sec) 
Heartbeat CPU 0 instructions: 220000000 cycles: 80416172 heartbeat IPC: 2.6789 cumulative IPC: 0.248706 (Simulation time: 0 hr 29 min 40 sec) 
Heartbeat CPU 2 instructions: 190000002 cycles: 82138180 heartbeat IPC: 1.78231 cumulative IPC: 2.31318 (Simulation time: 0 hr 30 min 18 sec) 
Heartbeat CPU 3 instructions: 120000000 cycles: 83591444 heartbeat IPC: 1.39854 cumulative IPC: 1.43555 (Simulation time: 0 hr 30 min 50 sec) 
Heartbeat CPU 0 instructions: 230000002 cycles: 84182738 heartbeat IPC: 2.65494 cumulative IPC: 0.356368 (Simulation time: 0 hr 31 min 3 sec) 
Heartbeat CPU 1 instructions: 130000001 cycles: 86112260 heartbeat IPC: 1.50968 cumulative IPC: 1.50966 (Simulation time: 0 hr 31 min 42 sec) 
Heartbeat CPU 2 instructions: 200000000 cycles: 87722161 heartbeat IPC: 1.79084 cumulative IPC: 2.27993 (Simulation time: 0 hr 32 min 14 sec) 
Heartbeat CPU 0 instructions: 240000000 cycles: 88733497 heartbeat IPC: 2.19744 cumulative IPC: 0.450788 (Simulation time: 0 hr 32 min 34 sec) 
Heartbeat CPU 3 instructions: 130000000 cycles: 90605630 heartbeat IPC: 1.42568 cumulative IPC: 1.43479 (Simulation time: 0 hr 33 min 14 sec) 
Heartbeat CPU 0 instructions: 250000002 cycles: 92667938 heartbeat IPC: 2.54166 cumulative IPC: 0.539561 (Simulation time: 0 hr 34 min 3 sec) 
Heartbeat CPU 1 instructions: 140000000 cycles: 92736171 heartbeat IPC: 1.50968 cumulative IPC: 1.50966 (Simulation time: 0 hr 34 min 4 sec) 
Heartbeat CPU 2 instructions: 210000000 cycles: 93279650 heartbeat IPC: 1.79937 cumulative IPC: 0.107205 (Simulation time: 0 hr 34 min 15 sec) 
Heartbeat CPU 0 instructions: 260000000 cycles: 96604315 heartbeat IPC: 2.54041 cumulative IPC: 0.62109 (Simulation time: 0 hr 35 min 19 sec) 
Heartbeat CPU 3 instructions: 140000000 cycles: 97459849 heartbeat IPC: 1.45896 cumulative IPC: 1.43649 (Simulation time: 0 hr 35 min 36 sec) 
Heartbeat CPU 2 instructions: 220000000 cycles: 98889336 heartbeat IPC: 1.78263 cumulative IPC: 0.202246 (Simulation time: 0 hr 36 min 30 sec) 
Heartbeat CPU 1 instructions: 150000003 cycles: 99359479 heartbeat IPC: 1.50982 cumulative IPC: 1.50967 (Simulation time: 0 hr 36 min 49 sec) 
Heartbeat CPU 0 instructions: 270000001 cycles: 100474613 heartbeat IPC: 2.58378 cumulative IPC: 0.696693 (Simulation time: 0 hr 37 min 37 sec) 
Heartbeat CPU 0 instructions: 280000000 cycles: 103810209 heartbeat IPC: 2.99796 cumulative IPC: 0.770637 (Simulation time: 0 hr 40 min 7 sec) 
Heartbeat CPU 3 instructions: 150000001 cycles: 104371101 heartbeat IPC: 1.44692 cumulative IPC: 1.43718 (Simulation time: 0 hr 40 min 26 sec) 
Heartbeat CPU 2 instructions: 230000002 cycles: 104480353 heartbeat IPC: 1.78858 cumulative IPC: 0.287135 (Simulation time: 0 hr 40 min 28 sec) 
Heartbeat CPU 1 instructions: 160000000 cycles: 105982767 heartbeat IPC: 1.50982 cumulative IPC: 1.50968 (Simulation time: 0 hr 41 min 1 sec) 
Heartbeat CPU 0 instructions: 290000000 cycles: 107145902 heartbeat IPC: 2.99788 cumulative IPC: 0.839976 (Simulation time: 0 hr 41 min 27 sec) 
Heartbeat CPU 2 instructions: 240000000 cycles: 109745936 heartbeat IPC: 1.89912 cumulative IPC: 0.364478 (Simulation time: 0 hr 42 min 25 sec) 
Heartbeat CPU 0 instructions: 300000000 cycles: 110482701 heartbeat IPC: 2.99688 cumulative IPC: 0.905119 (Simulation time: 0 hr 42 min 42 sec) 
Heartbeat CPU 3 instructions: 160000000 cycles: 111258894 heartbeat IPC: 1.45184 cumulative IPC: 1.43809 (Simulation time: 0 hr 42 min 59 sec) 
Heartbeat CPU 1 instructions: 170000000 cycles: 112606581 heartbeat IPC: 1.5097 cumulative IPC: 1.50968 (Simulation time: 0 hr 43 min 30 sec) 
Heartbeat CPU 0 instructions: 310000001 cycles: 113819383 heartbeat IPC: 2.99699 cumulative IPC: 0.966443 (Simulation time: 0 hr 43 min 56 sec) 
Heartbeat CPU 2 instructions: 250000001 cycles: 113819947 heartbeat IPC: 2.45458 cumulative IPC: 0.43929 (Simulation time: 0 hr 43 min 56 sec) 
Heartbeat CPU 0 instructions: 320000000 cycles: 117157088 heartbeat IPC: 2.99607 cumulative IPC: 1.02427 (Simulation time: 0 hr 45 min 12 sec) 
Heartbeat CPU 2 instructions: 260000000 cycles: 117893391 heartbeat IPC: 2.45492 cumulative IPC: 0.508934 (Simulation time: 0 hr 45 min 29 sec) 
Heartbeat CPU 3 instructions: 170000003 cycles: 118230169 heartbeat IPC: 1.43446 cumulative IPC: 1.43787 (Simulation time: 0 hr 45 min 37 sec) 
Heartbeat CPU 1 instructions: 180000000 cycles: 119230154 heartbeat IPC: 1.50976 cumulative IPC: 1.50969 (Simulation time: 0 hr 46 min 0 sec) 
Heartbeat CPU 0 instructions: 330000000 cycles: 120495639 heartbeat IPC: 2.99531 cumulative IPC: 1.07888 (Simulation time: 0 hr 46 min 28 sec) 
Heartbeat CPU 2 instructions: 270000003 cycles: 121969480 heartbeat IPC: 2.45333 cumulative IPC: 0.573914 (Simulation time: 0 hr 47 min 2 sec) 
Heartbeat CPU 0 instructions: 340000000 cycles: 123832400 heartbeat IPC: 2.99692 cumulative IPC: 1.13056 (Simulation time: 0 hr 47 min 44 sec) 
Heartbeat CPU 3 instructions: 180000000 cycles: 125246635 heartbeat IPC: 1.42522 cumulative IPC: 1.43716 (Simulation time: 0 hr 48 min 16 sec) 
Heartbeat CPU 1 instructions: 190000001 cycles: 125853300 heartbeat IPC: 1.50986 cumulative IPC: 1.50969 (Simulation time: 0 hr 48 min 30 sec) 
Heartbeat CPU 2 instructions: 280000000 cycles: 126048354 heartbeat IPC: 2.45166 cumulative IPC: 0.634677 (Simulation time: 0 hr 48 min 34 sec) 
Heartbeat CPU 0 instructions: 350000002 cycles: 127168941 heartbeat IPC: 2.99712 cumulative IPC: 1.17953 (Simulation time: 0 hr 49 min 0 sec) 
Heartbeat CPU 0 instructions: 360000000 cycles: 130509535 heartbeat IPC: 2.99348 cumulative IPC: 1.22596 (Simulation time: 0 hr 50 min 14 sec) 
Heartbeat CPU 2 instructions: 290000000 cycles: 130990785 heartbeat IPC: 2.0233 cumulative IPC: 0.687071 (Simulation time: 0 hr 50 min 25 sec) 
Heartbeat CPU 3 instructions: 190000000 cycles: 132290699 heartbeat IPC: 1.41964 cumulative IPC: 1.43623 (Simulation time: 0 hr 50 min 54 sec) 
Heartbeat CPU 1 instructions: 200000000 cycles: 132477346 heartbeat IPC: 1.50965 cumulative IPC: 1.50969 (Simulation time: 0 hr 50 min 58 sec) 
Heartbeat CPU 0 instructions: 370000001 cycles: 133845049 heartbeat IPC: 2.99804 cumulative IPC: 1.27013 (Simulation time: 0 hr 51 min 29 sec) 
Heartbeat CPU 2 instructions: 300000000 cycles: 136317701 heartbeat IPC: 1.87726 cumulative IPC: 0.73358 (Simulation time: 0 hr 52 min 20 sec) 
Heartbeat CPU 1 instructions: 210000001 cycles: 139099874 heartbeat IPC: 1.51 cumulative IPC: 0.0718908 (Simulation time: 0 hr 53 min 11 sec) 
Heartbeat CPU 3 instructions: 200000000 cycles: 139214268 heartbeat IPC: 1.44434 cumulative IPC: 1.43663 (Simulation time: 0 hr 53 min 13 sec) 

Warmup complete CPU 0 instructions: 377369992 cycles: 139214269 (Simulation time: 0 hr 53 min 13 sec) 
Warmup complete CPU 1 instructions: 210172779 cycles: 139214269 (Simulation time: 0 hr 53 min 13 sec) 
Warmup complete CPU 2 instructions: 305431014 cycles: 139214269 (Simulation time: 0 hr 53 min 13 sec) 
Warmup complete CPU 3 instructions: 200000003 cycles: 139214269 (Simulation time: 0 hr 53 min 13 sec) 

Heartbeat CPU 2 instructions: 310000000 cycles: 144701643 heartbeat IPC: 1.19276 cumulative IPC: 0.832636 (Simulation time: 0 hr 54 min 8 sec) 
Heartbeat CPU 0 instructions: 380000000 cycles: 145945562 heartbeat IPC: 0.826411 cumulative IPC: 0.390714 (Simulation time: 0 hr 54 min 22 sec) 
Heartbeat CPU 1 instructions: 220000000 cycles: 149587949 heartbeat IPC: 0.953464 cumulative IPC: 0.947323 (Simulation time: 0 hr 55 min 3 sec) 
Heartbeat CPU 2 instructions: 320000000 cycles: 155839471 heartbeat IPC: 0.897841 cumulative IPC: 0.876319 (Simulation time: 0 hr 56 min 13 sec) 
Heartbeat CPU 0 instructions: 390000001 cycles: 157316071 heartbeat IPC: 0.879468 cumulative IPC: 0.697721 (Simulation time: 0 hr 56 min 30 sec) 
Heartbeat CPU 1 instructions: 230000002 cycles: 159007343 heartbeat IPC: 1.06164 cumulative IPC: 1.00173 (Simulation time: 0 hr 56 min 49 sec) 
Heartbeat CPU 2 instructions: 330000000 cycles: 163772621 heartbeat IPC: 1.26053 cumulative IPC: 1.00043 (Simulation time: 0 hr 57 min 46 sec) 
Heartbeat CPU 1 instructions: 240000000 cycles: 168407614 heartbeat IPC: 1.0638 cumulative IPC: 1.02171 (Simulation time: 0 hr 58 min 44 sec) 
Heartbeat CPU 0 instructions: 400000000 cycles: 169102305 heartbeat IPC: 0.848447 cumulative IPC: 0.757159 (Simulation time: 0 hr 58 min 52 sec) 
Heartbeat CPU 2 instructions: 340000000 cycles: 171118977 heartbeat IPC: 1.36122 cumulative IPC: 1.08351 (Simulation time: 0 hr 59 min 17 sec) 
Heartbeat CPU 3 instructions: 210000000 cycles: 173994910 heartbeat IPC: 0.287516 cumulative IPC: 0.287516 (Simulation time: 0 hr 59 min 52 sec) 
Heartbeat CPU 1 instructions: 250000001 cycles: 177804807 heartbeat IPC: 1.06415 cumulative IPC: 1.03205 (Simulation time: 1 hr 0 min 39 sec) 
Heartbeat CPU 2 instructions: 350000001 cycles: 178479017 heartbeat IPC: 1.35869 cumulative IPC: 1.13509 (Simulation time: 1 hr 0 min 48 sec) 
Heartbeat CPU 0 instructions: 410000003 cycles: 180443005 heartbeat IPC: 0.88178 cumulative IPC: 0.791439 (Simulation time: 1 hr 1 min 9 sec) 
Heartbeat CPU 1 instructions: 260000000 cycles: 187703558 heartbeat IPC: 1.01023 cumulative IPC: 1.02759 (Simulation time: 1 hr 2 min 25 sec) 
Heartbeat CPU 2 instructions: 360000000 cycles: 188816049 heartbeat IPC: 0.967396 cumulative IPC: 1.10014 (Simulation time: 1 hr 2 min 37 sec) 
Heartbeat CPU 0 instructions: 420000000 cycles: 193219808 heartbeat IPC: 0.782668 cumulative IPC: 0.789364 (Simulation time: 1 hr 3 min 22 sec) 
Heartbeat CPU 1 instructions: 270000001 cycles: 197462762 heartbeat IPC: 1.02467 cumulative IPC: 1.0271 (Simulation time: 1 hr 4 min 9 sec) 
Heartbeat CPU 2 instructions: 370000003 cycles: 198954073 heartbeat IPC: 0.986386 cumulative IPC: 1.08084 (Simulation time: 1 hr 4 min 26 sec) 
Heartbeat CPU 3 instructions: 220000000 cycles: 203592587 heartbeat IPC: 0.337864 cumulative IPC: 0.310664 (Simulation time: 1 hr 5 min 21 sec) 
Heartbeat CPU 0 instructions: 430000001 cycles: 204859563 heartbeat IPC: 0.859125 cumulative IPC: 0.801733 (Simulation time: 1 hr 5 min 36 sec) 
Heartbeat CPU 1 instructions: 280000000 cycles: 206708500 heartbeat IPC: 1.08158 cumulative IPC: 1.03457 (Simulation time: 1 hr 5 min 58 sec) 
Heartbeat CPU 2 instructions: 380000000 cycles: 208277116 heartbeat IPC: 1.07261 cumulative IPC: 1.07973 (Simulation time: 1 hr 6 min 17 sec) 
Heartbeat CPU 0 instructions: 440000000 cycles: 215772544 heartbeat IPC: 0.91634 cumulative IPC: 0.81807 (Simulation time: 1 hr 7 min 45 sec) 
Heartbeat CPU 1 instructions: 290000001 cycles: 215918023 heartbeat IPC: 1.08583 cumulative IPC: 1.04072 (Simulation time: 1 hr 7 min 47 sec) 
Heartbeat CPU 2 instructions: 390000000 cycles: 217593003 heartbeat IPC: 1.07344 cumulative IPC: 1.07898 (Simulation time: 1 hr 8 min 7 sec) 
Heartbeat CPU 1 instructions: 300000000 cycles: 225264342 heartbeat IPC: 1.06994 cumulative IPC: 1.04389 (Simulation time: 1 hr 9 min 38 sec) 
Heartbeat CPU 0 instructions: 450000001 cycles: 226706394 heartbeat IPC: 0.914591 cumulative IPC: 0.830132 (Simulation time: 1 hr 9 min 55 sec) 
Heartbeat CPU 2 instructions: 400000000 cycles: 226843156 heartbeat IPC: 1.08106 cumulative IPC: 1.0792 (Simulation time: 1 hr 9 min 57 sec) 
Heartbeat CPU 3 instructions: 230000000 cycles: 233653112 heartbeat IPC: 0.332662 cumulative IPC: 0.317666 (Simulation time: 1 hr 11 min 18 sec) 
Heartbeat CPU 1 instructions: 310000000 cycles: 234604774 heartbeat IPC: 1.07061 cumulative IPC: 1.04651 (Simulation time: 1 hr 11 min 30 sec) 
Heartbeat CPU 2 instructions: 410000001 cycles: 236114905 heartbeat IPC: 1.07855 cumulative IPC: 1.07914 (Simulation time: 1 hr 11 min 48 sec) 
Heartbeat CPU 0 instructions: 460000000 cycles: 237571452 heartbeat IPC: 0.920382 cumulative IPC: 0.840101 (Simulation time: 1 hr 12 min 5 sec) 
Heartbeat CPU 1 instructions: 320000000 cycles: 243943939 heartbeat IPC: 1.07076 cumulative IPC: 1.04867 (Simulation time: 1 hr 13 min 21 sec) 
Heartbeat CPU 2 instructions: 420000000 cycles: 245410969 heartbeat IPC: 1.07572 cumulative IPC: 1.07884 (Simulation time: 1 hr 13 min 38 sec) 
Heartbeat CPU 0 instructions: 470000000 cycles: 248425633 heartbeat IPC: 0.921304 cumulative IPC: 0.848172 (Simulation time: 1 hr 14 min 14 sec) 
Heartbeat CPU 1 instructions: 330000000 cycles: 253264997 heartbeat IPC: 1.07284 cumulative IPC: 1.05065 (Simulation time: 1 hr 15 min 12 sec) 
Heartbeat CPU 2 instructions: 430000001 cycles: 254682569 heartbeat IPC: 1.07856 cumulative IPC: 1.07882 (Simulation time: 1 hr 15 min 29 sec) 
Heartbeat CPU 0 instructions: 480000000 cycles: 258989113 heartbeat IPC: 0.946658 cumulative IPC: 0.856858 (Simulation time: 1 hr 16 min 21 sec) 
Heartbeat CPU 3 instructions: 240000000 cycles: 262119299 heartbeat IPC: 0.351294 cumulative IPC: 0.325455 (Simulation time: 1 hr 16 min 58 sec) 
Heartbeat CPU 1 instructions: 340000000 cycles: 262536252 heartbeat IPC: 1.0786 cumulative IPC: 1.05275 (Simulation time: 1 hr 17 min 3 sec) 
Heartbeat CPU 2 instructions: 440000000 cycles: 263943245 heartbeat IPC: 1.07983 cumulative IPC: 1.07889 (Simulation time: 1 hr 17 min 20 sec) 
Heartbeat CPU 0 instructions: 490000001 cycles: 269666794 heartbeat IPC: 0.936533 cumulative IPC: 0.863379 (Simulation time: 1 hr 18 min 25 sec) 
Heartbeat CPU 1 instructions: 350000000 cycles: 271812510 heartbeat IPC: 1.07802 cumulative IPC: 1.05452 (Simulation time: 1 hr 18 min 49 sec) 
Heartbeat CPU 2 instructions: 450000003 cycles: 273219900 heartbeat IPC: 1.07798 cumulative IPC: 1.07883 (Simulation time: 1 hr 19 min 4 sec) 
Heartbeat CPU 0 instructions: 500000000 cycles: 280548321 heartbeat IPC: 0.918989 cumulative IPC: 0.867661 (Simulation time: 1 hr 20 min 17 sec) 
Heartbeat CPU 1 instructions: 360000000 cycles: 281319886 heartbeat IPC: 1.05181 cumulative IPC: 1.05434 (Simulation time: 1 hr 20 min 25 sec) 
Heartbeat CPU 2 instructions: 460000000 cycles: 282829034 heartbeat IPC: 1.04068 cumulative IPC: 1.07627 (Simulation time: 1 hr 20 min 41 sec) 
Heartbeat CPU 2 instructions: 470000001 cycles: 290537787 heartbeat IPC: 1.29723 cumulative IPC: 1.08753 (Simulation time: 1 hr 21 min 57 sec) 
Heartbeat CPU 1 instructions: 370000002 cycles: 290964252 heartbeat IPC: 1.03688 cumulative IPC: 1.05323 (Simulation time: 1 hr 22 min 1 sec) 
Heartbeat CPU 0 instructions: 510000002 cycles: 293622321 heartbeat IPC: 0.764877 cumulative IPC: 0.858958 (Simulation time: 1 hr 22 min 26 sec) 
Heartbeat CPU 3 instructions: 250000001 cycles: 294536108 heartbeat IPC: 0.308482 cumulative IPC: 0.321912 (Simulation time: 1 hr 22 min 35 sec) 
Heartbeat CPU 2 instructions: 480000000 cycles: 299999296 heartbeat IPC: 1.05691 cumulative IPC: 1.08573 (Simulation time: 1 hr 23 min 27 sec) 
Heartbeat CPU 1 instructions: 380000000 cycles: 300689266 heartbeat IPC: 1.02828 cumulative IPC: 1.05172 (Simulation time: 1 hr 23 min 34 sec) 
Heartbeat CPU 2 instructions: 490000000 cycles: 309011635 heartbeat IPC: 1.10959 cumulative IPC: 1.087 (Simulation time: 1 hr 25 min 6 sec) 
Heartbeat CPU 1 instructions: 390000000 cycles: 310187599 heartbeat IPC: 1.05282 cumulative IPC: 1.05179 (Simulation time: 1 hr 25 min 19 sec) 
Heartbeat CPU 0 instructions: 520000000 cycles: 310348113 heartbeat IPC: 0.597879 cumulative IPC: 0.833441 (Simulation time: 1 hr 25 min 20 sec) 
Heartbeat CPU 2 instructions: 500000000 cycles: 318140063 heartbeat IPC: 1.09548 cumulative IPC: 1.08743 (Simulation time: 1 hr 26 min 41 sec) 
Heartbeat CPU 1 instructions: 400000000 cycles: 319645721 heartbeat IPC: 1.05729 cumulative IPC: 1.05207 (Simulation time: 1 hr 26 min 56 sec) 
Heartbeat CPU 2 instructions: 510000000 cycles: 327244576 heartbeat IPC: 1.09836 cumulative IPC: 1.08796 (Simulation time: 1 hr 28 min 13 sec) 
Heartbeat CPU 1 instructions: 410000001 cycles: 329143136 heartbeat IPC: 1.05292 cumulative IPC: 1.05212 (Simulation time: 1 hr 28 min 32 sec) 
Heartbeat CPU 0 instructions: 530000000 cycles: 334218807 heartbeat IPC: 0.418924 cumulative IPC: 0.7827 (Simulation time: 1 hr 29 min 24 sec) 
Heartbeat CPU 2 instructions: 520000000 cycles: 336338423 heartbeat IPC: 1.09964 cumulative IPC: 1.0885 (Simulation time: 1 hr 29 min 45 sec) 
Heartbeat CPU 1 instructions: 420000000 cycles: 338711897 heartbeat IPC: 1.04507 cumulative IPC: 1.05178 (Simulation time: 1 hr 30 min 9 sec) 
Heartbeat CPU 3 instructions: 260000000 cycles: 338776719 heartbeat IPC: 0.226037 cumulative IPC: 0.300658 (Simulation time: 1 hr 30 min 10 sec) 
Heartbeat CPU 2 instructions: 530000001 cycles: 345457258 heartbeat IPC: 1.09663 cumulative IPC: 1.08886 (Simulation time: 1 hr 31 min 18 sec) 
Heartbeat CPU 1 instructions: 430000002 cycles: 348193578 heartbeat IPC: 1.05467 cumulative IPC: 1.05191 (Simulation time: 1 hr 31 min 46 sec) 
Heartbeat CPU 2 instructions: 540000000 cycles: 354390621 heartbeat IPC: 1.1194 cumulative IPC: 1.09012 (Simulation time: 1 hr 32 min 50 sec) 
Heartbeat CPU 1 instructions: 440000000 cycles: 357760206 heartbeat IPC: 1.0453 cumulative IPC: 1.05162 (Simulation time: 1 hr 33 min 24 sec) 
Heartbeat CPU 0 instructions: 540000000 cycles: 358163507 heartbeat IPC: 0.417629 cumulative IPC: 0.742775 (Simulation time: 1 hr 33 min 28 sec) 
Heartbeat CPU 2 instructions: 550000001 cycles: 362721994 heartbeat IPC: 1.20028 cumulative IPC: 1.09423 (Simulation time: 1 hr 34 min 14 sec) 
Heartbeat CPU 1 instructions: 450000001 cycles: 367135867 heartbeat IPC: 1.06659 cumulative IPC: 1.05224 (Simulation time: 1 hr 34 min 59 sec) 
Heartbeat CPU 2 instructions: 560000000 cycles: 371057122 heartbeat IPC: 1.19974 cumulative IPC: 1.09802 (Simulation time: 1 hr 35 min 39 sec) 
Heartbeat CPU 1 instructions: 460000000 cycles: 376676686 heartbeat IPC: 1.04813 cumulative IPC: 1.05207 (Simulation time: 1 hr 36 min 37 sec) 
Heartbeat CPU 3 instructions: 270000003 cycles: 377762230 heartbeat IPC: 0.256506 cumulative IPC: 0.293442 (Simulation time: 1 hr 36 min 48 sec) 
Heartbeat CPU 2 instructions: 570000003 cycles: 379358484 heartbeat IPC: 1.20462 cumulative IPC: 1.10171 (Simulation time: 1 hr 37 min 5 sec) 
Heartbeat CPU 0 instructions: 550000002 cycles: 382262336 heartbeat IPC: 0.414958 cumulative IPC: 0.710271 (Simulation time: 1 hr 37 min 36 sec) 
Heartbeat CPU 1 instructions: 470000000 cycles: 386285739 heartbeat IPC: 1.04069 cumulative IPC: 1.05163 (Simulation time: 1 hr 38 min 18 sec) 
Heartbeat CPU 2 instructions: 580000000 cycles: 387662007 heartbeat IPC: 1.20431 cumulative IPC: 1.10514 (Simulation time: 1 hr 38 min 32 sec) 
Heartbeat CPU 1 instructions: 480000000 cycles: 396140705 heartbeat IPC: 1.01472 cumulative IPC: 1.05021 (Simulation time: 1 hr 39 min 53 sec) 
Heartbeat CPU 2 instructions: 590000003 cycles: 399509897 heartbeat IPC: 0.844032 cumulative IPC: 1.09325 (Simulation time: 1 hr 40 min 28 sec) 
Heartbeat CPU 0 instructions: 560000000 cycles: 403608203 heartbeat IPC: 0.468475 cumulative IPC: 0.69075 (Simulation time: 1 hr 41 min 12 sec) 
Heartbeat CPU 1 instructions: 490000001 cycles: 406044220 heartbeat IPC: 1.00974 cumulative IPC: 1.04871 (Simulation time: 1 hr 41 min 38 sec) 
Heartbeat CPU 3 instructions: 280000000 cycles: 407033761 heartbeat IPC: 0.341629 cumulative IPC: 0.298709 (Simulation time: 1 hr 41 min 48 sec) 
Heartbeat CPU 2 instructions: 600000000 cycles: 410914499 heartbeat IPC: 0.876839 cumulative IPC: 1.08417 (Simulation time: 1 hr 42 min 30 sec) 
Heartbeat CPU 0 instructions: 570000003 cycles: 414596040 heartbeat IPC: 0.910097 cumulative IPC: 0.699502 (Simulation time: 1 hr 43 min 9 sec) 
Heartbeat CPU 1 instructions: 500000000 cycles: 415648523 heartbeat IPC: 1.0412 cumulative IPC: 1.04845 (Simulation time: 1 hr 43 min 20 sec) 
Heartbeat CPU 2 instructions: 610000001 cycles: 422332614 heartbeat IPC: 0.875801 cumulative IPC: 1.07577 (Simulation time: 1 hr 44 min 30 sec) 
Heartbeat CPU 1 instructions: 510000001 cycles: 425381058 heartbeat IPC: 1.02748 cumulative IPC: 1.04774 (Simulation time: 1 hr 45 min 2 sec) 
Heartbeat CPU 0 instructions: 580000000 cycles: 425586106 heartbeat IPC: 0.909912 cumulative IPC: 0.707577 (Simulation time: 1 hr 45 min 4 sec) 
Heartbeat CPU 2 instructions: 620000000 cycles: 433256496 heartbeat IPC: 0.915425 cumulative IPC: 1.06981 (Simulation time: 1 hr 46 min 25 sec) 
Heartbeat CPU 1 instructions: 520000000 cycles: 434544732 heartbeat IPC: 1.09127 cumulative IPC: 1.04909 (Simulation time: 1 hr 46 min 39 sec) 
Heartbeat CPU 0 instructions: 590000000 cycles: 437088277 heartbeat IPC: 0.869401 cumulative IPC: 0.713825 (Simulation time: 1 hr 47 min 6 sec) 
Heartbeat CPU 2 instructions: 630000001 cycles: 441231259 heartbeat IPC: 1.25396 cumulative IPC: 1.07467 (Simulation time: 1 hr 47 min 51 sec) 
Heartbeat CPU 3 instructions: 290000000 cycles: 441663709 heartbeat IPC: 0.288767 cumulative IPC: 0.29757 (Simulation time: 1 hr 47 min 56 sec) 
Heartbeat CPU 1 instructions: 530000001 cycles: 444072899 heartbeat IPC: 1.04952 cumulative IPC: 1.0491 (Simulation time: 1 hr 48 min 24 sec) 
Heartbeat CPU 2 instructions: 640000000 cycles: 448553954 heartbeat IPC: 1.36562 cumulative IPC: 1.08156 (Simulation time: 1 hr 49 min 15 sec) 
Heartbeat CPU 0 instructions: 600000000 cycles: 448718094 heartbeat IPC: 0.859859 cumulative IPC: 0.719313 (Simulation time: 1 hr 49 min 17 sec) 
Heartbeat CPU 1 instructions: 540000000 cycles: 453252286 heartbeat IPC: 1.0894 cumulative IPC: 1.05028 (Simulation time: 1 hr 50 min 8 sec) 
Heartbeat CPU 2 instructions: 650000002 cycles: 455875635 heartbeat IPC: 1.36581 cumulative IPC: 1.08813 (Simulation time: 1 hr 50 min 38 sec) 
Heartbeat CPU 0 instructions: 610000000 cycles: 460179825 heartbeat IPC: 0.872469 cumulative IPC: 0.724782 (Simulation time: 1 hr 51 min 19 sec) 
Heartbeat CPU 1 instructions: 550000002 cycles: 462626631 heartbeat IPC: 1.06674 cumulative IPC: 1.05076 (Simulation time: 1 hr 51 min 42 sec) 
Heartbeat CPU 2 instructions: 660000000 cycles: 467436915 heartbeat IPC: 0.864956 cumulative IPC: 1.08027 (Simulation time: 1 hr 52 min 28 sec) 
Heartbeat CPU 1 instructions: 560000000 cycles: 471876284 heartbeat IPC: 1.08112 cumulative IPC: 1.0516 (Simulation time: 1 hr 53 min 15 sec) 
Heartbeat CPU 0 instructions: 620000000 cycles: 472131232 heartbeat IPC: 0.836722 cumulative IPC: 0.7288 (Simulation time: 1 hr 53 min 17 sec) 
Heartbeat CPU 2 instructions: 670000000 cycles: 476947162 heartbeat IPC: 1.0515 cumulative IPC: 1.07946 (Simulation time: 1 hr 54 min 10 sec) 
Heartbeat CPU 3 instructions: 300000000 cycles: 479270318 heartbeat IPC: 0.265911 cumulative IPC: 0.294069 (Simulation time: 1 hr 54 min 36 sec) 
Heartbeat CPU 1 instructions: 570000000 cycles: 481098522 heartbeat IPC: 1.08434 cumulative IPC: 1.05248 (Simulation time: 1 hr 54 min 56 sec) 
Heartbeat CPU 0 instructions: 630000003 cycles: 483316333 heartbeat IPC: 0.894047 cumulative IPC: 0.734172 (Simulation time: 1 hr 55 min 20 sec) 
Heartbeat CPU 2 instructions: 680000000 cycles: 486186375 heartbeat IPC: 1.08234 cumulative IPC: 1.07954 (Simulation time: 1 hr 55 min 52 sec) 
Heartbeat CPU 1 instructions: 580000000 cycles: 490222728 heartbeat IPC: 1.09599 cumulative IPC: 1.05361 (Simulation time: 1 hr 56 min 36 sec) 
Heartbeat CPU 0 instructions: 640000000 cycles: 494372776 heartbeat IPC: 0.90445 cumulative IPC: 0.739473 (Simulation time: 1 hr 57 min 24 sec) 
Heartbeat CPU 2 instructions: 690000001 cycles: 495458648 heartbeat IPC: 1.07848 cumulative IPC: 1.07951 (Simulation time: 1 hr 57 min 36 sec) 
Heartbeat CPU 1 instructions: 590000000 cycles: 499345942 heartbeat IPC: 1.0961 cumulative IPC: 1.05469 (Simulation time: 1 hr 58 min 22 sec) 
Heartbeat CPU 2 instructions: 700000000 cycles: 504751341 heartbeat IPC: 1.07611 cumulative IPC: 1.07942 (Simulation time: 1 hr 59 min 24 sec) 
Heartbeat CPU 0 instructions: 650000000 cycles: 505522905 heartbeat IPC: 0.896851 cumulative IPC: 0.744263 (Simulation time: 1 hr 59 min 33 sec) 
Heartbeat CPU 1 instructions: 600000000 cycles: 508505894 heartbeat IPC: 1.09171 cumulative IPC: 1.05561 (Simulation time: 2 hr 0 min 8 sec) 
Heartbeat CPU 2 instructions: 710000000 cycles: 514001772 heartbeat IPC: 1.08103 cumulative IPC: 1.07946 (Simulation time: 2 hr 1 min 12 sec) 
Heartbeat CPU 0 instructions: 660000000 cycles: 516605037 heartbeat IPC: 0.902353 cumulative IPC: 0.748905 (Simulation time: 2 hr 1 min 42 sec) 
Heartbeat CPU 1 instructions: 610000000 cycles: 517596358 heartbeat IPC: 1.10005 cumulative IPC: 1.05668 (Simulation time: 2 hr 1 min 54 sec) 
Heartbeat CPU 3 instructions: 310000001 cycles: 518992797 heartbeat IPC: 0.251747 cumulative IPC: 0.289642 (Simulation time: 2 hr 2 min 10 sec) 
Heartbeat CPU 2 instructions: 720000000 cycles: 523236684 heartbeat IPC: 1.08285 cumulative IPC: 1.07954 (Simulation time: 2 hr 2 min 59 sec) 
Heartbeat CPU 1 instructions: 620000000 cycles: 526728362 heartbeat IPC: 1.09505 cumulative IPC: 1.05758 (Simulation time: 2 hr 3 min 40 sec) 
Heartbeat CPU 0 instructions: 670000000 cycles: 527626768 heartbeat IPC: 0.907299 cumulative IPC: 0.7534 (Simulation time: 2 hr 3 min 50 sec) 
Heartbeat CPU 2 instructions: 730000000 cycles: 532522905 heartbeat IPC: 1.07686 cumulative IPC: 1.07948 (Simulation time: 2 hr 4 min 44 sec) 
Heartbeat CPU 1 instructions: 630000002 cycles: 535963252 heartbeat IPC: 1.08285 cumulative IPC: 1.05817 (Simulation time: 2 hr 5 min 24 sec) 
Heartbeat CPU 0 instructions: 680000000 cycles: 538534422 heartbeat IPC: 0.916787 cumulative IPC: 0.757863 (Simulation time: 2 hr 5 min 53 sec) 
Heartbeat CPU 2 instructions: 740000000 cycles: 541790224 heartbeat IPC: 1.07906 cumulative IPC: 1.07947 (Simulation time: 2 hr 6 min 32 sec) 
Heartbeat CPU 1 instructions: 640000000 cycles: 545083486 heartbeat IPC: 1.09646 cumulative IPC: 1.05903 (Simulation time: 2 hr 7 min 10 sec) 
Heartbeat CPU 0 instructions: 690000000 cycles: 549416417 heartbeat IPC: 0.918949 cumulative IPC: 0.762136 (Simulation time: 2 hr 8 min 2 sec) 
Heartbeat CPU 2 instructions: 750000003 cycles: 551042300 heartbeat IPC: 1.08084 cumulative IPC: 1.0795 (Simulation time: 2 hr 8 min 21 sec) 
Heartbeat CPU 1 instructions: 650000000 cycles: 554473594 heartbeat IPC: 1.06495 cumulative IPC: 1.05916 (Simulation time: 2 hr 8 min 58 sec) 
Heartbeat CPU 3 instructions: 320000000 cycles: 555127706 heartbeat IPC: 0.276741 cumulative IPC: 0.288522 (Simulation time: 2 hr 9 min 5 sec) 
Heartbeat CPU 2 instructions: 760000000 cycles: 559831659 heartbeat IPC: 1.13774 cumulative IPC: 1.08072 (Simulation time: 2 hr 10 min 2 sec) 
Heartbeat CPU 0 instructions: 700000000 cycles: 561286489 heartbeat IPC: 0.842455 cumulative IPC: 0.764395 (Simulation time: 2 hr 10 min 19 sec) 
Heartbeat CPU 1 instructions: 660000000 cycles: 564178693 heartbeat IPC: 1.03039 cumulative IPC: 1.05851 (Simulation time: 2 hr 10 min 53 sec) 
Heartbeat CPU 2 instructions: 770000001 cycles: 567939372 heartbeat IPC: 1.23339 cumulative IPC: 1.08361 (Simulation time: 2 hr 11 min 36 sec) 
Heartbeat CPU 0 instructions: 710000001 cycles: 573197415 heartbeat IPC: 0.839565 cumulative IPC: 0.766458 (Simulation time: 2 hr 12 min 34 sec) 
Heartbeat CPU 1 instructions: 670000003 cycles: 573675375 heartbeat IPC: 1.053 cumulative IPC: 1.05839 (Simulation time: 2 hr 12 min 40 sec) 
Heartbeat CPU 2 instructions: 780000000 cycles: 577567864 heartbeat IPC: 1.03858 cumulative IPC: 1.08262 (Simulation time: 2 hr 13 min 26 sec) 
Heartbeat CPU 1 instructions: 680000000 cycles: 583017450 heartbeat IPC: 1.07043 cumulative IPC: 1.05864 (Simulation time: 2 hr 14 min 31 sec) 
Heartbeat CPU 0 instructions: 720000000 cycles: 584253387 heartbeat IPC: 0.904488 cumulative IPC: 0.769887 (Simulation time: 2 hr 14 min 46 sec) 
Heartbeat CPU 3 instructions: 330000001 cycles: 584864599 heartbeat IPC: 0.336283 cumulative IPC: 0.291709 (Simulation time: 2 hr 14 min 53 sec) 
Heartbeat CPU 2 instructions: 790000002 cycles: 586545621 heartbeat IPC: 1.11386 cumulative IPC: 1.08324 (Simulation time: 2 hr 15 min 13 sec) 
Heartbeat CPU 1 instructions: 690000003 cycles: 592431480 heartbeat IPC: 1.06224 cumulative IPC: 1.05871 (Simulation time: 2 hr 16 min 24 sec) 
Heartbeat CPU 2 instructions: 800000000 cycles: 595800647 heartbeat IPC: 1.08049 cumulative IPC: 1.08319 (Simulation time: 2 hr 16 min 59 sec) 
Heartbeat CPU 0 instructions: 730000000 cycles: 600485213 heartbeat IPC: 0.616074 cumulative IPC: 0.764475 (Simulation time: 2 hr 17 min 47 sec) 
Heartbeat CPU 1 instructions: 700000000 cycles: 604268106 heartbeat IPC: 0.844835 cumulative IPC: 1.05327 (Simulation time: 2 hr 18 min 27 sec) 
Heartbeat CPU 2 instructions: 810000001 cycles: 605458114 heartbeat IPC: 1.03547 cumulative IPC: 1.0822 (Simulation time: 2 hr 18 min 41 sec) 
Heartbeat CPU 1 instructions: 710000001 cycles: 614125416 heartbeat IPC: 1.01448 cumulative IPC: 1.05246 (Simulation time: 2 hr 20 min 21 sec) 
Heartbeat CPU 2 instructions: 820000000 cycles: 614535802 heartbeat IPC: 1.1016 cumulative IPC: 1.08257 (Simulation time: 2 hr 20 min 26 sec) 
Heartbeat CPU 0 instructions: 740000000 cycles: 614734641 heartbeat IPC: 0.701783 cumulative IPC: 0.762596 (Simulation time: 2 hr 20 min 28 sec) 
Heartbeat CPU 3 instructions: 340000000 cycles: 621538722 heartbeat IPC: 0.272672 cumulative IPC: 0.290261 (Simulation time: 2 hr 21 min 48 sec) 
Heartbeat CPU 1 instructions: 720000000 cycles: 623333462 heartbeat IPC: 1.08601 cumulative IPC: 1.0531 (Simulation time: 2 hr 22 min 10 sec) 
Heartbeat CPU 2 instructions: 830000001 cycles: 623453436 heartbeat IPC: 1.12137 cumulative IPC: 1.08328 (Simulation time: 2 hr 22 min 11 sec) 
Heartbeat CPU 0 instructions: 750000003 cycles: 624764252 heartbeat IPC: 0.997048 cumulative IPC: 0.767439 (Simulation time: 2 hr 22 min 27 sec) 
Heartbeat CPU 2 instructions: 840000000 cycles: 631830521 heartbeat IPC: 1.19373 cumulative IPC: 1.08516 (Simulation time: 2 hr 23 min 50 sec) 
Heartbeat CPU 1 instructions: 730000001 cycles: 632406057 heartbeat IPC: 1.10222 cumulative IPC: 1.05401 (Simulation time: 2 hr 23 min 57 sec) 
Heartbeat CPU 0 instructions: 760000000 cycles: 635483972 heartbeat IPC: 0.93286 cumulative IPC: 0.771012 (Simulation time: 2 hr 24 min 34 sec) 
Heartbeat CPU 2 instructions: 850000002 cycles: 639987553 heartbeat IPC: 1.22594 cumulative IPC: 1.08746 (Simulation time: 2 hr 25 min 25 sec) 
Heartbeat CPU 1 instructions: 740000000 cycles: 641332341 heartbeat IPC: 1.12029 cumulative IPC: 1.05518 (Simulation time: 2 hr 25 min 40 sec) 
Heartbeat CPU 0 instructions: 770000001 cycles: 646333533 heartbeat IPC: 0.921696 cumulative IPC: 0.774236 (Simulation time: 2 hr 26 min 35 sec) 
Heartbeat CPU 2 instructions: 860000000 cycles: 648034375 heartbeat IPC: 1.24273 cumulative IPC: 1.08991 (Simulation time: 2 hr 26 min 54 sec) 
Heartbeat CPU 1 instructions: 750000003 cycles: 649656626 heartbeat IPC: 1.2013 cumulative IPC: 1.05757 (Simulation time: 2 hr 27 min 12 sec) 
Heartbeat CPU 2 instructions: 870000002 cycles: 656062645 heartbeat IPC: 1.2456 cumulative IPC: 1.09233 (Simulation time: 2 hr 28 min 22 sec) 
Heartbeat CPU 0 instructions: 780000000 cycles: 657435982 heartbeat IPC: 0.900702 cumulative IPC: 0.776945 (Simulation time: 2 hr 28 min 36 sec) 
Heartbeat CPU 3 instructions: 350000000 cycles: 657762621 heartbeat IPC: 0.276061 cumulative IPC: 0.289269 (Simulation time: 2 hr 28 min 40 sec) 
Heartbeat CPU 1 instructions: 760000000 cycles: 658757371 heartbeat IPC: 1.09881 cumulative IPC: 1.05829 (Simulation time: 2 hr 28 min 50 sec) 
Heartbeat CPU 2 instructions: 880000000 cycles: 666250490 heartbeat IPC: 0.981562 cumulative IPC: 1.09019 (Simulation time: 2 hr 30 min 4 sec) 
Heartbeat CPU 1 instructions: 770000001 cycles: 668612940 heartbeat IPC: 1.01465 cumulative IPC: 1.05748 (Simulation time: 2 hr 30 min 28 sec) 
Heartbeat CPU 0 instructions: 790000000 cycles: 670295068 heartbeat IPC: 0.77766 cumulative IPC: 0.776963 (Simulation time: 2 hr 30 min 46 sec) 
Heartbeat CPU 2 instructions: 890000000 cycles: 677666412 heartbeat IPC: 0.87597 cumulative IPC: 1.08565 (Simulation time: 2 hr 32 min 2 sec) 
Heartbeat CPU 1 instructions: 780000000 cycles: 677947545 heartbeat IPC: 1.07128 cumulative IPC: 1.05772 (Simulation time: 2 hr 32 min 5 sec) 
Heartbeat CPU 0 instructions: 800000000 cycles: 682679906 heartbeat IPC: 0.807439 cumulative IPC: 0.777657 (Simulation time: 2 hr 32 min 52 sec) 
Heartbeat CPU 1 instructions: 790000000 cycles: 687556889 heartbeat IPC: 1.04065 cumulative IPC: 1.05742 (Simulation time: 2 hr 33 min 37 sec) 
Heartbeat CPU 2 instructions: 900000000 cycles: 689104633 heartbeat IPC: 0.874262 cumulative IPC: 1.08125 (Simulation time: 2 hr 33 min 52 sec) 
Heartbeat CPU 0 instructions: 810000003 cycles: 693742733 heartbeat IPC: 0.903928 cumulative IPC: 0.780176 (Simulation time: 2 hr 34 min 40 sec) 
Heartbeat CPU 1 instructions: 800000000 cycles: 695511844 heartbeat IPC: 1.25708 cumulative IPC: 1.06027 (Simulation time: 2 hr 34 min 58 sec) 
Heartbeat CPU 2 instructions: 910000000 cycles: 700352114 heartbeat IPC: 0.889088 cumulative IPC: 1.0774 (Simulation time: 2 hr 35 min 48 sec) 
Heartbeat CPU 3 instructions: 360000000 cycles: 700626080 heartbeat IPC: 0.233299 cumulative IPC: 0.284996 (Simulation time: 2 hr 35 min 51 sec) 
Heartbeat CPU 0 instructions: 820000000 cycles: 703894928 heartbeat IPC: 0.985008 cumulative IPC: 0.783859 (Simulation time: 2 hr 36 min 25 sec) 
Heartbeat CPU 1 instructions: 810000000 cycles: 704484264 heartbeat IPC: 1.11453 cumulative IPC: 1.06113 (Simulation time: 2 hr 36 min 31 sec) 
Heartbeat CPU 2 instructions: 920000000 cycles: 709636309 heartbeat IPC: 1.0771 cumulative IPC: 1.07739 (Simulation time: 2 hr 37 min 27 sec) 
Heartbeat CPU 1 instructions: 820000000 cycles: 714404608 heartbeat IPC: 1.00803 cumulative IPC: 1.06022 (Simulation time: 2 hr 38 min 18 sec) 
Heartbeat CPU 0 instructions: 830000002 cycles: 715304443 heartbeat IPC: 0.876462 cumulative IPC: 0.785693 (Simulation time: 2 hr 38 min 28 sec) 
Heartbeat CPU 2 instructions: 930000001 cycles: 717003165 heartbeat IPC: 1.35743 cumulative IPC: 1.08096 (Simulation time: 2 hr 38 min 47 sec) 
Heartbeat CPU 1 instructions: 830000001 cycles: 724288160 heartbeat IPC: 1.01178 cumulative IPC: 1.0594 (Simulation time: 2 hr 40 min 7 sec) 
Heartbeat CPU 2 instructions: 940000000 cycles: 724346669 heartbeat IPC: 1.36175 cumulative IPC: 1.08449 (Simulation time: 2 hr 40 min 8 sec) 
Heartbeat CPU 0 instructions: 840000000 cycles: 726685624 heartbeat IPC: 0.878643 cumulative IPC: 0.787494 (Simulation time: 2 hr 40 min 34 sec) 
Heartbeat CPU 2 instructions: 950000000 cycles: 733894457 heartbeat IPC: 1.04736 cumulative IPC: 1.08389 (Simulation time: 2 hr 41 min 47 sec) 
Heartbeat CPU 1 instructions: 840000000 cycles: 734214306 heartbeat IPC: 1.00744 cumulative IPC: 1.05853 (Simulation time: 2 hr 41 min 50 sec) 
Heartbeat CPU 0 instructions: 850000001 cycles: 738175654 heartbeat IPC: 0.87032 cumulative IPC: 0.789083 (Simulation time: 2 hr 42 min 31 sec) 
Heartbeat CPU 3 instructions: 370000000 cycles: 741732518 heartbeat IPC: 0.243271 cumulative IPC: 0.282149 (Simulation time: 2 hr 43 min 8 sec) 
Heartbeat CPU 1 instructions: 850000002 cycles: 743758082 heartbeat IPC: 1.0478 cumulative IPC: 1.05836 (Simulation time: 2 hr 43 min 31 sec) 
Heartbeat CPU 2 instructions: 960000000 cycles: 744149274 heartbeat IPC: 0.975151 cumulative IPC: 1.08205 (Simulation time: 2 hr 43 min 36 sec) 
Heartbeat CPU 0 instructions: 860000000 cycles: 749056759 heartbeat IPC: 0.919024 cumulative IPC: 0.791401 (Simulation time: 2 hr 44 min 34 sec) 
Heartbeat CPU 1 instructions: 860000000 cycles: 752897189 heartbeat IPC: 1.0942 cumulative IPC: 1.0589 (Simulation time: 2 hr 45 min 21 sec) 
Heartbeat CPU 2 instructions: 970000000 cycles: 753433283 heartbeat IPC: 1.07712 cumulative IPC: 1.08197 (Simulation time: 2 hr 45 min 27 sec) 
Heartbeat CPU 0 instructions: 870000001 cycles: 761011578 heartbeat IPC: 0.836483 cumulative IPC: 0.792268 (Simulation time: 2 hr 46 min 58 sec) 
Heartbeat CPU 1 instructions: 870000001 cycles: 762526356 heartbeat IPC: 1.03851 cumulative IPC: 1.05858 (Simulation time: 2 hr 47 min 15 sec) 
Heartbeat CPU 2 instructions: 980000000 cycles: 762682904 heartbeat IPC: 1.08113 cumulative IPC: 1.08196 (Simulation time: 2 hr 47 min 17 sec) 
Heartbeat CPU 3 instructions: 380000000 cycles: 771482641 heartbeat IPC: 0.336133 cumulative IPC: 0.284689 (Simulation time: 2 hr 48 min 56 sec) 
Heartbeat CPU 2 instructions: 990000001 cycles: 772057296 heartbeat IPC: 1.06674 cumulative IPC: 1.08174 (Simulation time: 2 hr 49 min 3 sec) 
Heartbeat CPU 1 instructions: 880000000 cycles: 772297640 heartbeat IPC: 1.02341 cumulative IPC: 1.05804 (Simulation time: 2 hr 49 min 6 sec) 
Heartbeat CPU 0 instructions: 880000000 cycles: 778825600 heartbeat IPC: 0.561355 cumulative IPC: 0.785837 (Simulation time: 2 hr 50 min 19 sec) 
Heartbeat CPU 2 instructions: 1000000000 cycles: 781440891 heartbeat IPC: 1.06569 cumulative IPC: 1.0815 (Simulation time: 2 hr 50 min 48 sec) 
Heartbeat CPU 1 instructions: 890000002 cycles: 782035746 heartbeat IPC: 1.02689 cumulative IPC: 1.05757 (Simulation time: 2 hr 50 min 55 sec) 
Heartbeat CPU 2 instructions: 1010000003 cycles: 790841329 heartbeat IPC: 1.06378 cumulative IPC: 1.08125 (Simulation time: 2 hr 52 min 32 sec) 
Heartbeat CPU 1 instructions: 900000000 cycles: 791615524 heartbeat IPC: 1.04387 cumulative IPC: 1.05737 (Simulation time: 2 hr 52 min 40 sec) 
Heartbeat CPU 0 instructions: 890000002 cycles: 796971055 heartbeat IPC: 0.551102 cumulative IPC: 0.779361 (Simulation time: 2 hr 53 min 39 sec) 
Heartbeat CPU 2 instructions: 1020000000 cycles: 800185530 heartbeat IPC: 1.07018 cumulative IPC: 1.08109 (Simulation time: 2 hr 54 min 15 sec) 
Heartbeat CPU 1 instructions: 910000001 cycles: 801197439 heartbeat IPC: 1.04363 cumulative IPC: 1.05717 (Simulation time: 2 hr 54 min 26 sec) 
Heartbeat CPU 3 instructions: 390000000 cycles: 809070231 heartbeat IPC: 0.266045 cumulative IPC: 0.283643 (Simulation time: 2 hr 55 min 53 sec) 
Heartbeat CPU 2 instructions: 1030000001 cycles: 809548002 heartbeat IPC: 1.06809 cumulative IPC: 1.08091 (Simulation time: 2 hr 55 min 59 sec) 
Heartbeat CPU 1 instructions: 920000000 cycles: 810767297 heartbeat IPC: 1.04495 cumulative IPC: 1.05699 (Simulation time: 2 hr 56 min 13 sec) 
Heartbeat CPU 0 instructions: 900000000 cycles: 815008703 heartbeat IPC: 0.554396 cumulative IPC: 0.773356 (Simulation time: 2 hr 57 min 3 sec) 
Heartbeat CPU 2 instructions: 1040000000 cycles: 818931586 heartbeat IPC: 1.06569 cumulative IPC: 1.0807 (Simulation time: 2 hr 57 min 48 sec) 
Heartbeat CPU 1 instructions: 930000000 cycles: 820288612 heartbeat IPC: 1.05028 cumulative IPC: 1.0569 (Simulation time: 2 hr 58 min 3 sec) 
Heartbeat CPU 0 instructions: 910000000 cycles: 827001886 heartbeat IPC: 0.833807 cumulative IPC: 0.774411 (Simulation time: 2 hr 59 min 15 sec) 
Heartbeat CPU 2 instructions: 1050000001 cycles: 828712777 heartbeat IPC: 1.02237 cumulative IPC: 1.07987 (Simulation time: 2 hr 59 min 35 sec) 
Heartbeat CPU 1 instructions: 940000000 cycles: 829908072 heartbeat IPC: 1.03956 cumulative IPC: 1.05666 (Simulation time: 2 hr 59 min 49 sec) 
Heartbeat CPU 2 instructions: 1060000000 cycles: 836376035 heartbeat IPC: 1.30493 cumulative IPC: 1.08234 (Simulation time: 3 hr 1 min 5 sec) 
Heartbeat CPU 0 instructions: 920000000 cycles: 839270542 heartbeat IPC: 0.815085 cumulative IPC: 0.775123 (Simulation time: 3 hr 1 min 38 sec) 
Heartbeat CPU 1 instructions: 950000001 cycles: 839371738 heartbeat IPC: 1.05667 cumulative IPC: 1.05666 (Simulation time: 3 hr 1 min 40 sec) 
Heartbeat CPU 3 instructions: 400000000 cycles: 844824867 heartbeat IPC: 0.279684 cumulative IPC: 0.283442 (Simulation time: 3 hr 2 min 37 sec) 
Heartbeat CPU 2 instructions: 1070000001 cycles: 845704708 heartbeat IPC: 1.07196 cumulative IPC: 1.08221 (Simulation time: 3 hr 2 min 47 sec) 
Heartbeat CPU 1 instructions: 960000000 cycles: 849007266 heartbeat IPC: 1.03783 cumulative IPC: 1.0564 (Simulation time: 3 hr 3 min 26 sec) 
Heartbeat CPU 0 instructions: 930000000 cycles: 851933459 heartbeat IPC: 0.789707 cumulative IPC: 0.775383 (Simulation time: 3 hr 4 min 0 sec) 
Heartbeat CPU 2 instructions: 1080000000 cycles: 854724819 heartbeat IPC: 1.10863 cumulative IPC: 1.08254 (Simulation time: 3 hr 4 min 33 sec) 
Heartbeat CPU 1 instructions: 970000003 cycles: 858415685 heartbeat IPC: 1.06288 cumulative IPC: 1.05649 (Simulation time: 3 hr 5 min 16 sec) 
Heartbeat CPU 0 instructions: 940000000 cycles: 863691149 heartbeat IPC: 0.850507 cumulative IPC: 0.776602 (Simulation time: 3 hr 6 min 23 sec) 
Heartbeat CPU 2 instructions: 1090000002 cycles: 863731621 heartbeat IPC: 1.11027 cumulative IPC: 1.08289 (Simulation time: 3 hr 6 min 23 sec) 
Heartbeat CPU 1 instructions: 980000000 cycles: 867999610 heartbeat IPC: 1.04341 cumulative IPC: 1.05632 (Simulation time: 3 hr 7 min 14 sec) 
Heartbeat CPU 2 instructions: 1100000000 cycles: 872728315 heartbeat IPC: 1.11152 cumulative IPC: 1.08324 (Simulation time: 3 hr 8 min 13 sec) 
Heartbeat CPU 0 instructions: 950000000 cycles: 875309323 heartbeat IPC: 0.86072 cumulative IPC: 0.777929 (Simulation time: 3 hr 8 min 47 sec) 
Heartbeat CPU 1 instructions: 990000001 cycles: 877299408 heartbeat IPC: 1.07529 cumulative IPC: 1.05655 (Simulation time: 3 hr 9 min 10 sec) 
Heartbeat CPU 3 instructions: 410000002 cycles: 878247856 heartbeat IPC: 0.299195 cumulative IPC: 0.284155 (Simulation time: 3 hr 9 min 21 sec) 
Heartbeat CPU 2 instructions: 1110000003 cycles: 881727166 heartbeat IPC: 1.11125 cumulative IPC: 1.08358 (Simulation time: 3 hr 10 min 2 sec) 
Heartbeat CPU 1 instructions: 1000000000 cycles: 886597821 heartbeat IPC: 1.07545 cumulative IPC: 1.05679 (Simulation time: 3 hr 11 min 3 sec) 
Heartbeat CPU 0 instructions: 960000000 cycles: 886880089 heartbeat IPC: 0.864247 cumulative IPC: 0.779265 (Simulation time: 3 hr 11 min 6 sec) 
Heartbeat CPU 2 instructions: 1120000000 cycles: 890710915 heartbeat IPC: 1.11312 cumulative IPC: 1.08393 (Simulation time: 3 hr 11 min 53 sec) 
Heartbeat CPU 1 instructions: 1010000002 cycles: 895888512 heartbeat IPC: 1.07635 cumulative IPC: 1.05703 (Simulation time: 3 hr 12 min 55 sec) 
Heartbeat CPU 0 instructions: 970000001 cycles: 898461105 heartbeat IPC: 0.863482 cumulative IPC: 0.78055 (Simulation time: 3 hr 13 min 24 sec) 
Heartbeat CPU 2 instructions: 1130000002 cycles: 899585075 heartbeat IPC: 1.12687 cumulative IPC: 1.08443 (Simulation time: 3 hr 13 min 38 sec) 
Heartbeat CPU 1 instructions: 1020000000 cycles: 905121698 heartbeat IPC: 1.08305 cumulative IPC: 1.05734 (Simulation time: 3 hr 14 min 43 sec) 
Heartbeat CPU 2 instructions: 1140000000 cycles: 907773958 heartbeat IPC: 1.22117 cumulative IPC: 1.08589 (Simulation time: 3 hr 15 min 14 sec) 
Heartbeat CPU 0 instructions: 980000000 cycles: 910171799 heartbeat IPC: 0.85392 cumulative IPC: 0.781664 (Simulation time: 3 hr 15 min 42 sec) 
Heartbeat CPU 3 instructions: 420000000 cycles: 912587125 heartbeat IPC: 0.291212 cumulative IPC: 0.284468 (Simulation time: 3 hr 16 min 9 sec) 
Heartbeat CPU 1 instructions: 1030000000 cycles: 914430843 heartbeat IPC: 1.07421 cumulative IPC: 1.05755 (Simulation time: 3 hr 16 min 29 sec) 
Heartbeat CPU 2 instructions: 1150000001 cycles: 915949614 heartbeat IPC: 1.22314 cumulative IPC: 1.08733 (Simulation time: 3 hr 16 min 46 sec) 
Heartbeat CPU 0 instructions: 990000000 cycles: 921914057 heartbeat IPC: 0.851625 cumulative IPC: 0.782714 (Simulation time: 3 hr 17 min 52 sec) 
Heartbeat CPU 1 instructions: 1040000000 cycles: 923776462 heartbeat IPC: 1.07002 cumulative IPC: 1.05769 (Simulation time: 3 hr 18 min 12 sec) 
Heartbeat CPU 2 instructions: 1160000000 cycles: 924154543 heartbeat IPC: 1.21878 cumulative IPC: 1.08871 (Simulation time: 3 hr 18 min 17 sec) 
Heartbeat CPU 2 instructions: 1170000002 cycles: 932333948 heartbeat IPC: 1.22258 cumulative IPC: 1.09009 (Simulation time: 3 hr 19 min 52 sec) 
Heartbeat CPU 1 instructions: 1050000003 cycles: 933167607 heartbeat IPC: 1.06483 cumulative IPC: 1.05778 (Simulation time: 3 hr 20 min 2 sec) 
Heartbeat CPU 0 instructions: 1000000000 cycles: 933458149 heartbeat IPC: 0.866244 cumulative IPC: 0.783928 (Simulation time: 3 hr 20 min 5 sec) 
Heartbeat CPU 1 instructions: 1060000000 cycles: 942617291 heartbeat IPC: 1.05824 cumulative IPC: 1.05778 (Simulation time: 3 hr 21 min 45 sec) 
Heartbeat CPU 2 instructions: 1180000000 cycles: 943598391 heartbeat IPC: 0.887749 cumulative IPC: 1.08725 (Simulation time: 3 hr 21 min 56 sec) 
Heartbeat CPU 0 instructions: 1010000000 cycles: 945121903 heartbeat IPC: 0.857357 cumulative IPC: 0.784991 (Simulation time: 3 hr 22 min 13 sec) 
Heartbeat CPU 3 instructions: 430000001 cycles: 945202858 heartbeat IPC: 0.306601 cumulative IPC: 0.285364 (Simulation time: 3 hr 22 min 14 sec) 
Heartbeat CPU 1 instructions: 1070000000 cycles: 951944760 heartbeat IPC: 1.0721 cumulative IPC: 1.05795 (Simulation time: 3 hr 23 min 28 sec) 
Heartbeat CPU 2 instructions: 1190000001 cycles: 955022972 heartbeat IPC: 0.875306 cumulative IPC: 1.08428 (Simulation time: 3 hr 24 min 2 sec) 
Heartbeat CPU 0 instructions: 1020000000 cycles: 956383453 heartbeat IPC: 0.887977 cumulative IPC: 0.78641 (Simulation time: 3 hr 24 min 17 sec) 
Heartbeat CPU 1 instructions: 1080000000 cycles: 961177805 heartbeat IPC: 1.08307 cumulative IPC: 1.05823 (Simulation time: 3 hr 25 min 9 sec) 
Heartbeat CPU 2 instructions: 1200000000 cycles: 966476647 heartbeat IPC: 0.873082 cumulative IPC: 1.08136 (Simulation time: 3 hr 26 min 8 sec) 
Heartbeat CPU 0 instructions: 1030000003 cycles: 967594735 heartbeat IPC: 0.891959 cumulative IPC: 0.787838 (Simulation time: 3 hr 26 min 20 sec) 
Heartbeat CPU 1 instructions: 1090000001 cycles: 970428409 heartbeat IPC: 1.08101 cumulative IPC: 1.05848 (Simulation time: 3 hr 26 min 50 sec) 
Heartbeat CPU 2 instructions: 1210000000 cycles: 977742716 heartbeat IPC: 0.887621 cumulative IPC: 1.07876 (Simulation time: 3 hr 28 min 6 sec) 
Heartbeat CPU 0 instructions: 1040000000 cycles: 978980572 heartbeat IPC: 0.878284 cumulative IPC: 0.789065 (Simulation time: 3 hr 28 min 19 sec) 
Heartbeat CPU 1 instructions: 1100000000 cycles: 979817724 heartbeat IPC: 1.06504 cumulative IPC: 1.05856 (Simulation time: 3 hr 28 min 28 sec) 
Heartbeat CPU 2 instructions: 1220000000 cycles: 986261228 heartbeat IPC: 1.17391 cumulative IPC: 1.07971 (Simulation time: 3 hr 29 min 35 sec) 
Heartbeat CPU 3 instructions: 440000000 cycles: 989162718 heartbeat IPC: 0.22748 cumulative IPC: 0.28237 (Simulation time: 3 hr 30 min 5 sec) 
Heartbeat CPU 1 instructions: 1110000000 cycles: 990635788 heartbeat IPC: 0.92438 cumulative IPC: 1.05685 (Simulation time: 3 hr 30 min 22 sec) 
Heartbeat CPU 2 instructions: 1230000001 cycles: 994105431 heartbeat IPC: 1.27483 cumulative IPC: 1.0815 (Simulation time: 3 hr 31 min 0 sec) 
Heartbeat CPU 1 instructions: 1120000000 cycles: 1000348026 heartbeat IPC: 1.02963 cumulative IPC: 1.05655 (Simulation time: 3 hr 32 min 14 sec) 
Heartbeat CPU 0 instructions: 1050000000 cycles: 1000451592 heartbeat IPC: 0.465744 cumulative IPC: 0.781004 (Simulation time: 3 hr 32 min 15 sec) 
Heartbeat CPU 2 instructions: 1240000000 cycles: 1001538997 heartbeat IPC: 1.34525 cumulative IPC: 1.08378 (Simulation time: 3 hr 32 min 28 sec) 
Heartbeat CPU 1 instructions: 1130000003 cycles: 1009590349 heartbeat IPC: 1.08198 cumulative IPC: 1.05682 (Simulation time: 3 hr 33 min 49 sec) 
Heartbeat CPU 0 instructions: 1060000000 cycles: 1012724405 heartbeat IPC: 0.814809 cumulative IPC: 0.781479 (Simulation time: 3 hr 34 min 20 sec) 
Heartbeat CPU 2 instructions: 1250000002 cycles: 1013065951 heartbeat IPC: 0.867532 cumulative IPC: 1.08093 (Simulation time: 3 hr 34 min 23 sec) 
Heartbeat CPU 1 instructions: 1140000000 cycles: 1018721882 heartbeat IPC: 1.09511 cumulative IPC: 1.05721 (Simulation time: 3 hr 35 min 24 sec) 
Heartbeat CPU 2 instructions: 1260000000 cycles: 1022186616 heartbeat IPC: 1.09641 cumulative IPC: 1.08109 (Simulation time: 3 hr 36 min 3 sec) 
Heartbeat CPU 0 instructions: 1070000000 cycles: 1025494682 heartbeat IPC: 0.783068 cumulative IPC: 0.781502 (Simulation time: 3 hr 36 min 39 sec) 
Heartbeat CPU 1 instructions: 1150000000 cycles: 1027865287 heartbeat IPC: 1.09368 cumulative IPC: 1.05759 (Simulation time: 3 hr 37 min 5 sec) 
Heartbeat CPU 2 instructions: 1270000002 cycles: 1031522326 heartbeat IPC: 1.07116 cumulative IPC: 1.08098 (Simulation time: 3 hr 37 min 43 sec) 
Heartbeat CPU 3 instructions: 450000000 cycles: 1031549111 heartbeat IPC: 0.235925 cumulative IPC: 0.280164 (Simulation time: 3 hr 37 min 43 sec) 
Heartbeat CPU 1 instructions: 1160000000 cycles: 1037081931 heartbeat IPC: 1.08499 cumulative IPC: 1.05787 (Simulation time: 3 hr 38 min 46 sec) 
Heartbeat CPU 0 instructions: 1080000000 cycles: 1038260894 heartbeat IPC: 0.783318 cumulative IPC: 0.781528 (Simulation time: 3 hr 39 min 0 sec) 
Heartbeat CPU 2 instructions: 1280000000 cycles: 1040930107 heartbeat IPC: 1.06295 cumulative IPC: 1.08079 (Simulation time: 3 hr 39 min 31 sec) 
Heartbeat CPU 1 instructions: 1170000003 cycles: 1046265007 heartbeat IPC: 1.08896 cumulative IPC: 1.05818 (Simulation time: 3 hr 40 min 32 sec) 
Heartbeat CPU 2 instructions: 1290000001 cycles: 1050251144 heartbeat IPC: 1.07284 cumulative IPC: 1.08071 (Simulation time: 3 hr 41 min 18 sec) 
Heartbeat CPU 0 instructions: 1090000002 cycles: 1050342528 heartbeat IPC: 0.827703 cumulative IPC: 0.78214 (Simulation time: 3 hr 41 min 19 sec) 
Heartbeat CPU 1 instructions: 1180000000 cycles: 1055244591 heartbeat IPC: 1.11364 cumulative IPC: 1.05873 (Simulation time: 3 hr 42 min 15 sec) 
Heartbeat CPU 2 instructions: 1300000000 cycles: 1059512030 heartbeat IPC: 1.07981 cumulative IPC: 1.0807 (Simulation time: 3 hr 43 min 2 sec) 
Heartbeat CPU 0 instructions: 1100000000 cycles: 1062199074 heartbeat IPC: 0.843416 cumulative IPC: 0.782927 (Simulation time: 3 hr 43 min 31 sec) 
Heartbeat CPU 1 instructions: 1190000002 cycles: 1064174573 heartbeat IPC: 1.11982 cumulative IPC: 1.05932 (Simulation time: 3 hr 43 min 53 sec) 
Finished CPU 2 instructions: 1000000002 cycles: 925361199 cumulative IPC: 1.08066 (Simulation time: 3 hr 43 min 58 sec) 
Heartbeat CPU 2 instructions: 1310000001 cycles: 1068780400 heartbeat IPC: 1.07894 cumulative IPC: 1.08069 (Simulation time: 3 hr 44 min 45 sec) 
Heartbeat CPU 3 instructions: 460000000 cycles: 1069300761 heartbeat IPC: 0.264889 cumulative IPC: 0.279544 (Simulation time: 3 hr 44 min 50 sec) 
Heartbeat CPU 1 instructions: 1200000000 cycles: 1073881233 heartbeat IPC: 1.03022 cumulative IPC: 1.05902 (Simulation time: 3 hr 45 min 37 sec) 
Heartbeat CPU 0 instructions: 1110000002 cycles: 1073995431 heartbeat IPC: 0.847719 cumulative IPC: 0.783745 (Simulation time: 3 hr 45 min 38 sec) 
Heartbeat CPU 2 instructions: 1320000000 cycles: 1078007900 heartbeat IPC: 1.08372 cumulative IPC: 1.08072 (Simulation time: 3 hr 46 min 19 sec) 
Heartbeat CPU 1 instructions: 1210000003 cycles: 1083683953 heartbeat IPC: 1.02013 cumulative IPC: 1.05861 (Simulation time: 3 hr 47 min 18 sec) 
Finished CPU 1 instructions: 1000000000 cycles: 944616794 cumulative IPC: 1.05863 (Simulation time: 3 hr 47 min 19 sec) 
Heartbeat CPU 0 instructions: 1120000000 cycles: 1085809564 heartbeat IPC: 0.846444 cumulative IPC: 0.784527 (Simulation time: 3 hr 47 min 39 sec) 
Heartbeat CPU 2 instructions: 1330000001 cycles: 1087229062 heartbeat IPC: 1.08446 cumulative IPC: 1.08075 (Simulation time: 3 hr 47 min 54 sec) 
Heartbeat CPU 1 instructions: 1220000000 cycles: 1093864500 heartbeat IPC: 0.982265 cumulative IPC: 1.0578 (Simulation time: 3 hr 48 min 58 sec) 
Heartbeat CPU 2 instructions: 1340000000 cycles: 1096676570 heartbeat IPC: 1.05848 cumulative IPC: 1.08053 (Simulation time: 3 hr 49 min 26 sec) 
Heartbeat CPU 0 instructions: 1130000003 cycles: 1099640190 heartbeat IPC: 0.723033 cumulative IPC: 0.783642 (Simulation time: 3 hr 49 min 55 sec) 
Heartbeat CPU 3 instructions: 470000003 cycles: 1103858533 heartbeat IPC: 0.289371 cumulative IPC: 0.279896 (Simulation time: 3 hr 50 min 41 sec) 
Heartbeat CPU 1 instructions: 1230000001 cycles: 1104524662 heartbeat IPC: 0.938072 cumulative IPC: 1.05648 (Simulation time: 3 hr 50 min 48 sec) 
Heartbeat CPU 2 instructions: 1350000002 cycles: 1106268375 heartbeat IPC: 1.04256 cumulative IPC: 1.08016 (Simulation time: 3 hr 51 min 9 sec) 
Heartbeat CPU 0 instructions: 1140000000 cycles: 1112153719 heartbeat IPC: 0.799135 cumulative IPC: 0.783841 (Simulation time: 3 hr 52 min 17 sec) 
Heartbeat CPU 1 instructions: 1240000000 cycles: 1113824485 heartbeat IPC: 1.07529 cumulative IPC: 1.05666 (Simulation time: 3 hr 52 min 36 sec) 
Heartbeat CPU 2 instructions: 1360000000 cycles: 1116376116 heartbeat IPC: 0.989341 cumulative IPC: 1.07922 (Simulation time: 3 hr 53 min 1 sec) 
Heartbeat CPU 1 instructions: 1250000001 cycles: 1123446644 heartbeat IPC: 1.03927 cumulative IPC: 1.05649 (Simulation time: 3 hr 54 min 24 sec) 
Heartbeat CPU 2 instructions: 1370000000 cycles: 1123924507 heartbeat IPC: 1.32479 cumulative IPC: 1.0811 (Simulation time: 3 hr 54 min 30 sec) 
Heartbeat CPU 0 instructions: 1150000003 cycles: 1124747551 heartbeat IPC: 0.79404 cumulative IPC: 0.783971 (Simulation time: 3 hr 54 min 39 sec) 
Heartbeat CPU 1 instructions: 1260000000 cycles: 1132720519 heartbeat IPC: 1.0783 cumulative IPC: 1.05669 (Simulation time: 3 hr 56 min 8 sec) 
Heartbeat CPU 2 instructions: 1380000000 cycles: 1132803298 heartbeat IPC: 1.12628 cumulative IPC: 1.0815 (Simulation time: 3 hr 56 min 9 sec) 
Heartbeat CPU 3 instructions: 480000000 cycles: 1134617712 heartbeat IPC: 0.325106 cumulative IPC: 0.281293 (Simulation time: 3 hr 56 min 28 sec) 
Heartbeat CPU 0 instructions: 1160000000 cycles: 1137837887 heartbeat IPC: 0.763922 cumulative IPC: 0.783709 (Simulation time: 3 hr 57 min 3 sec) 
Heartbeat CPU 2 instructions: 1390000003 cycles: 1142153685 heartbeat IPC: 1.06947 cumulative IPC: 1.08139 (Simulation time: 3 hr 57 min 52 sec) 
Heartbeat CPU 1 instructions: 1270000000 cycles: 1142190184 heartbeat IPC: 1.056 cumulative IPC: 1.05668 (Simulation time: 3 hr 57 min 53 sec) 
Heartbeat CPU 0 instructions: 1170000001 cycles: 1150475352 heartbeat IPC: 0.791298 cumulative IPC: 0.783804 (Simulation time: 3 hr 59 min 29 sec) 
Heartbeat CPU 1 instructions: 1280000000 cycles: 1151373091 heartbeat IPC: 1.08898 cumulative IPC: 1.05698 (Simulation time: 3 hr 59 min 39 sec) 
Heartbeat CPU 2 instructions: 1400000000 cycles: 1151430298 heartbeat IPC: 1.07798 cumulative IPC: 1.08136 (Simulation time: 3 hr 59 min 40 sec) 
Heartbeat CPU 1 instructions: 1290000000 cycles: 1160630622 heartbeat IPC: 1.0802 cumulative IPC: 1.05719 (Simulation time: 4 hr 1 min 24 sec) 
Heartbeat CPU 2 instructions: 1410000001 cycles: 1161568865 heartbeat IPC: 0.986333 cumulative IPC: 1.08042 (Simulation time: 4 hr 1 min 34 sec) 
Heartbeat CPU 0 instructions: 1180000000 cycles: 1163368014 heartbeat IPC: 0.775635 cumulative IPC: 0.783701 (Simulation time: 4 hr 1 min 54 sec) 
Heartbeat CPU 3 instructions: 490000000 cycles: 1164304915 heartbeat IPC: 0.336845 cumulative IPC: 0.282902 (Simulation time: 4 hr 2 min 4 sec) 
Heartbeat CPU 2 instructions: 1420000000 cycles: 1168054028 heartbeat IPC: 1.54198 cumulative IPC: 1.08333 (Simulation time: 4 hr 2 min 53 sec) 
Heartbeat CPU 1 instructions: 1300000000 cycles: 1170017137 heartbeat IPC: 1.06536 cumulative IPC: 1.05726 (Simulation time: 4 hr 3 min 18 sec) 
Heartbeat CPU 2 instructions: 1430000002 cycles: 1174139528 heartbeat IPC: 1.64325 cumulative IPC: 1.08662 (Simulation time: 4 hr 4 min 7 sec) 
Heartbeat CPU 1 instructions: 1310000000 cycles: 1179719673 heartbeat IPC: 1.03066 cumulative IPC: 1.05701 (Simulation time: 4 hr 5 min 14 sec) 
Heartbeat CPU 2 instructions: 1440000000 cycles: 1180250149 heartbeat IPC: 1.63649 cumulative IPC: 1.08985 (Simulation time: 4 hr 5 min 20 sec) 
Heartbeat CPU 0 instructions: 1190000001 cycles: 1183390121 heartbeat IPC: 0.499448 cumulative IPC: 0.77825 (Simulation time: 4 hr 5 min 58 sec) 
Heartbeat CPU 2 instructions: 1450000001 cycles: 1186421115 heartbeat IPC: 1.62049 cumulative IPC: 1.09297 (Simulation time: 4 hr 6 min 33 sec) 
Heartbeat CPU 1 instructions: 1320000000 cycles: 1189967387 heartbeat IPC: 0.975827 cumulative IPC: 1.05622 (Simulation time: 4 hr 7 min 13 sec) 
Heartbeat CPU 2 instructions: 1460000000 cycles: 1192701929 heartbeat IPC: 1.59215 cumulative IPC: 1.09595 (Simulation time: 4 hr 7 min 44 sec) 
Heartbeat CPU 3 instructions: 500000000 cycles: 1193442266 heartbeat IPC: 0.343202 cumulative IPC: 0.284568 (Simulation time: 4 hr 7 min 53 sec) 
Heartbeat CPU 2 instructions: 1470000000 cycles: 1198912926 heartbeat IPC: 1.61005 cumulative IPC: 1.09896 (Simulation time: 4 hr 8 min 57 sec) 
Heartbeat CPU 1 instructions: 1330000002 cycles: 1199687747 heartbeat IPC: 1.02877 cumulative IPC: 1.05597 (Simulation time: 4 hr 9 min 6 sec) 
Heartbeat CPU 2 instructions: 1480000000 cycles: 1205272824 heartbeat IPC: 1.57235 cumulative IPC: 1.10179 (Simulation time: 4 hr 10 min 11 sec) 
Heartbeat CPU 0 instructions: 1200000000 cycles: 1208120404 heartbeat IPC: 0.404362 cumulative IPC: 0.7696 (Simulation time: 4 hr 10 min 43 sec) 
Heartbeat CPU 1 instructions: 1340000000 cycles: 1209366340 heartbeat IPC: 1.03321 cumulative IPC: 1.05576 (Simulation time: 4 hr 10 min 56 sec) 
Heartbeat CPU 2 instructions: 1490000002 cycles: 1212477408 heartbeat IPC: 1.38801 cumulative IPC: 1.10371 (Simulation time: 4 hr 11 min 27 sec) 
Heartbeat CPU 1 instructions: 1350000002 cycles: 1219157935 heartbeat IPC: 1.02128 cumulative IPC: 1.05545 (Simulation time: 4 hr 12 min 34 sec) 
Heartbeat CPU 3 instructions: 510000000 cycles: 1221313309 heartbeat IPC: 0.358795 cumulative IPC: 0.28648 (Simulation time: 4 hr 12 min 57 sec) 
Heartbeat CPU 2 instructions: 1500000000 cycles: 1222637133 heartbeat IPC: 0.984278 cumulative IPC: 1.10259 (Simulation time: 4 hr 13 min 11 sec) 
Heartbeat CPU 1 instructions: 1360000000 cycles: 1228972617 heartbeat IPC: 1.01888 cumulative IPC: 1.05512 (Simulation time: 4 hr 14 min 22 sec) 
Heartbeat CPU 2 instructions: 1510000001 cycles: 1229167212 heartbeat IPC: 1.53138 cumulative IPC: 1.10516 (Simulation time: 4 hr 14 min 24 sec) 
Heartbeat CPU 0 instructions: 1210000002 cycles: 1234115006 heartbeat IPC: 0.384695 cumulative IPC: 0.760462 (Simulation time: 4 hr 15 min 24 sec) 
Heartbeat CPU 2 instructions: 1520000000 cycles: 1235255597 heartbeat IPC: 1.64247 cumulative IPC: 1.10814 (Simulation time: 4 hr 15 min 37 sec) 
Heartbeat CPU 1 instructions: 1370000001 cycles: 1238596731 heartbeat IPC: 1.03906 cumulative IPC: 1.05498 (Simulation time: 4 hr 16 min 17 sec) 
Heartbeat CPU 2 instructions: 1530000001 cycles: 1241344467 heartbeat IPC: 1.64234 cumulative IPC: 1.11109 (Simulation time: 4 hr 16 min 56 sec) 
Heartbeat CPU 2 instructions: 1540000000 cycles: 1247640134 heartbeat IPC: 1.58839 cumulative IPC: 1.1138 (Simulation time: 4 hr 18 min 13 sec) 
Heartbeat CPU 1 instructions: 1380000000 cycles: 1248600317 heartbeat IPC: 0.999641 cumulative IPC: 1.05448 (Simulation time: 4 hr 18 min 25 sec) 
Heartbeat CPU 3 instructions: 520000000 cycles: 1251519410 heartbeat IPC: 0.331059 cumulative IPC: 0.287691 (Simulation time: 4 hr 18 min 59 sec) 
Heartbeat CPU 2 instructions: 1550000002 cycles: 1253913079 heartbeat IPC: 1.59415 cumulative IPC: 1.11651 (Simulation time: 4 hr 19 min 29 sec) 
Heartbeat CPU 1 instructions: 1390000001 cycles: 1258555470 heartbeat IPC: 1.00451 cumulative IPC: 1.05404 (Simulation time: 4 hr 20 min 35 sec) 
Heartbeat CPU 0 instructions: 1220000000 cycles: 1258988534 heartbeat IPC: 0.402034 cumulative IPC: 0.7525 (Simulation time: 4 hr 20 min 45 sec) 
Heartbeat CPU 2 instructions: 1560000000 cycles: 1260240230 heartbeat IPC: 1.58049 cumulative IPC: 1.11913 (Simulation time: 4 hr 21 min 15 sec) 
Heartbeat CPU 2 instructions: 1570000003 cycles: 1266865441 heartbeat IPC: 1.50939 cumulative IPC: 1.12142 (Simulation time: 4 hr 23 min 51 sec) 
Heartbeat CPU 1 instructions: 1400000000 cycles: 1268315504 heartbeat IPC: 1.02459 cumulative IPC: 1.05378 (Simulation time: 4 hr 24 min 28 sec) 
Heartbeat CPU 2 instructions: 1580000000 cycles: 1273618767 heartbeat IPC: 1.48075 cumulative IPC: 1.12356 (Simulation time: 4 hr 26 min 34 sec) 
Heartbeat CPU 0 instructions: 1230000001 cycles: 1276263010 heartbeat IPC: 0.578889 cumulative IPC: 0.749862 (Simulation time: 4 hr 27 min 31 sec) 
Heartbeat CPU 1 instructions: 1410000002 cycles: 1277890857 heartbeat IPC: 1.04435 cumulative IPC: 1.0537 (Simulation time: 4 hr 28 min 6 sec) 
Heartbeat CPU 2 instructions: 1590000002 cycles: 1282959823 heartbeat IPC: 1.07054 cumulative IPC: 1.12312 (Simulation time: 4 hr 30 min 7 sec) 
Heartbeat CPU 3 instructions: 530000002 cycles: 1283632118 heartbeat IPC: 0.311403 cumulative IPC: 0.288356 (Simulation time: 4 hr 30 min 24 sec) 
Heartbeat CPU 1 instructions: 1420000000 cycles: 1287548559 heartbeat IPC: 1.03544 cumulative IPC: 1.05355 (Simulation time: 4 hr 32 min 0 sec) 
Heartbeat CPU 0 instructions: 1240000000 cycles: 1287721206 heartbeat IPC: 0.872738 cumulative IPC: 0.751088 (Simulation time: 4 hr 32 min 5 sec) 
Heartbeat CPU 2 instructions: 1600000000 cycles: 1289405033 heartbeat IPC: 1.55154 cumulative IPC: 1.12553 (Simulation time: 4 hr 32 min 49 sec) 
Heartbeat CPU 2 instructions: 1610000002 cycles: 1295462132 heartbeat IPC: 1.65096 cumulative IPC: 1.12828 (Simulation time: 4 hr 34 min 17 sec) 
Heartbeat CPU 1 instructions: 1430000000 cycles: 1296737028 heartbeat IPC: 1.08832 cumulative IPC: 1.05383 (Simulation time: 4 hr 34 min 34 sec) 
Heartbeat CPU 0 instructions: 1250000003 cycles: 1298541937 heartbeat IPC: 0.924152 cumulative IPC: 0.752703 (Simulation time: 4 hr 34 min 58 sec) 
Heartbeat CPU 2 instructions: 1620000000 cycles: 1301509500 heartbeat IPC: 1.65361 cumulative IPC: 1.13101 (Simulation time: 4 hr 35 min 36 sec) 
Heartbeat CPU 1 instructions: 1440000000 cycles: 1305981743 heartbeat IPC: 1.0817 cumulative IPC: 1.05405 (Simulation time: 4 hr 36 min 33 sec) 
Heartbeat CPU 2 instructions: 1630000000 cycles: 1307529980 heartbeat IPC: 1.661 cumulative IPC: 1.13374 (Simulation time: 4 hr 36 min 53 sec) 
Heartbeat CPU 0 instructions: 1260000000 cycles: 1309506064 heartbeat IPC: 0.912065 cumulative IPC: 0.754197 (Simulation time: 4 hr 37 min 18 sec) 
Heartbeat CPU 2 instructions: 1640000000 cycles: 1313544902 heartbeat IPC: 1.66253 cumulative IPC: 1.13645 (Simulation time: 4 hr 38 min 7 sec) 
Heartbeat CPU 1 instructions: 1450000000 cycles: 1315232900 heartbeat IPC: 1.08095 cumulative IPC: 1.05426 (Simulation time: 4 hr 38 min 27 sec) 
Heartbeat CPU 3 instructions: 540000000 cycles: 1315561293 heartbeat IPC: 0.313193 cumulative IPC: 0.28903 (Simulation time: 4 hr 38 min 31 sec) 
Heartbeat CPU 2 instructions: 1650000001 cycles: 1319635759 heartbeat IPC: 1.64181 cumulative IPC: 1.13906 (Simulation time: 4 hr 39 min 18 sec) 
Heartbeat CPU 0 instructions: 1270000002 cycles: 1320426684 heartbeat IPC: 0.915699 cumulative IPC: 0.75569 (Simulation time: 4 hr 39 min 27 sec) 
Heartbeat CPU 1 instructions: 1460000000 cycles: 1324407484 heartbeat IPC: 1.08997 cumulative IPC: 1.05453 (Simulation time: 4 hr 40 min 13 sec) 
Heartbeat CPU 2 instructions: 1660000000 cycles: 1325831770 heartbeat IPC: 1.61394 cumulative IPC: 1.14154 (Simulation time: 4 hr 40 min 30 sec) 
Heartbeat CPU 0 instructions: 1280000000 cycles: 1331551843 heartbeat IPC: 0.898863 cumulative IPC: 0.757026 (Simulation time: 4 hr 41 min 34 sec) 
Heartbeat CPU 2 instructions: 1670000001 cycles: 1332115646 heartbeat IPC: 1.59137 cumulative IPC: 1.14391 (Simulation time: 4 hr 41 min 40 sec) 
Heartbeat CPU 1 instructions: 1470000003 cycles: 1333731260 heartbeat IPC: 1.07253 cumulative IPC: 1.05467 (Simulation time: 4 hr 41 min 56 sec) 
Heartbeat CPU 2 instructions: 1680000000 cycles: 1341080708 heartbeat IPC: 1.11544 cumulative IPC: 1.1437 (Simulation time: 4 hr 43 min 12 sec) 
Heartbeat CPU 1 instructions: 1480000000 cycles: 1343244538 heartbeat IPC: 1.05116 cumulative IPC: 1.05465 (Simulation time: 4 hr 43 min 34 sec) 
Heartbeat CPU 0 instructions: 1290000000 cycles: 1343421901 heartbeat IPC: 0.842456 cumulative IPC: 0.757868 (Simulation time: 4 hr 43 min 36 sec) 
Heartbeat CPU 2 instructions: 1690000002 cycles: 1347594976 heartbeat IPC: 1.53509 cumulative IPC: 1.14581 (Simulation time: 4 hr 44 min 23 sec) 
Heartbeat CPU 1 instructions: 1490000002 cycles: 1352708987 heartbeat IPC: 1.05659 cumulative IPC: 1.05466 (Simulation time: 4 hr 45 min 23 sec) 
Heartbeat CPU 2 instructions: 1700000000 cycles: 1353605073 heartbeat IPC: 1.66387 cumulative IPC: 1.14837 (Simulation time: 4 hr 45 min 34 sec) 
Heartbeat CPU 0 instructions: 1300000000 cycles: 1354797269 heartbeat IPC: 0.879092 cumulative IPC: 0.759002 (Simulation time: 4 hr 45 min 48 sec) 
Heartbeat CPU 3 instructions: 550000000 cycles: 1356063917 heartbeat IPC: 0.246898 cumulative IPC: 0.287628 (Simulation time: 4 hr 46 min 3 sec) 
Heartbeat CPU 2 instructions: 1710000002 cycles: 1359612691 heartbeat IPC: 1.66455 cumulative IPC: 1.15091 (Simulation time: 4 hr 46 min 45 sec) 
Heartbeat CPU 1 instructions: 1500000000 cycles: 1361923779 heartbeat IPC: 1.08521 cumulative IPC: 1.05489 (Simulation time: 4 hr 47 min 12 sec) 
Heartbeat CPU 2 instructions: 1720000000 cycles: 1365663200 heartbeat IPC: 1.65275 cumulative IPC: 1.15339 (Simulation time: 4 hr 47 min 56 sec) 
Heartbeat CPU 0 instructions: 1310000000 cycles: 1365766316 heartbeat IPC: 0.911656 cumulative IPC: 0.760367 (Simulation time: 4 hr 47 min 57 sec) 
Heartbeat CPU 1 instructions: 1510000000 cycles: 1371156662 heartbeat IPC: 1.08309 cumulative IPC: 1.0551 (Simulation time: 4 hr 49 min 0 sec) 
Heartbeat CPU 2 instructions: 1730000000 cycles: 1371741089 heartbeat IPC: 1.64531 cumulative IPC: 1.15581 (Simulation time: 4 hr 49 min 7 sec) 
Heartbeat CPU 0 instructions: 1320000000 cycles: 1376630658 heartbeat IPC: 0.920442 cumulative IPC: 0.761773 (Simulation time: 4 hr 50 min 4 sec) 
Heartbeat CPU 2 instructions: 1740000000 cycles: 1377867983 heartbeat IPC: 1.63215 cumulative IPC: 1.15817 (Simulation time: 4 hr 50 min 18 sec) 
Heartbeat CPU 1 instructions: 1520000000 cycles: 1380406435 heartbeat IPC: 1.08111 cumulative IPC: 1.0553 (Simulation time: 4 hr 50 min 47 sec) 
Heartbeat CPU 2 instructions: 1750000003 cycles: 1384074453 heartbeat IPC: 1.61122 cumulative IPC: 1.16043 (Simulation time: 4 hr 51 min 29 sec) 
Heartbeat CPU 0 instructions: 1330000002 cycles: 1387604162 heartbeat IPC: 0.911286 cumulative IPC: 0.763087 (Simulation time: 4 hr 52 min 9 sec) 
Heartbeat CPU 1 instructions: 1530000000 cycles: 1389732018 heartbeat IPC: 1.07232 cumulative IPC: 1.05542 (Simulation time: 4 hr 52 min 32 sec) 
Heartbeat CPU 2 instructions: 1760000000 cycles: 1390302059 heartbeat IPC: 1.60575 cumulative IPC: 1.16264 (Simulation time: 4 hr 52 min 38 sec) 
Heartbeat CPU 1 instructions: 1540000000 cycles: 1399117472 heartbeat IPC: 1.06548 cumulative IPC: 1.0555 (Simulation time: 4 hr 54 min 13 sec) 
Heartbeat CPU 3 instructions: 560000000 cycles: 1399247263 heartbeat IPC: 0.231571 cumulative IPC: 0.285707 (Simulation time: 4 hr 54 min 15 sec) 
Heartbeat CPU 0 instructions: 1340000000 cycles: 1399285449 heartbeat IPC: 0.85607 cumulative IPC: 0.763949 (Simulation time: 4 hr 54 min 15 sec) 
Heartbeat CPU 2 instructions: 1770000002 cycles: 1399554292 heartbeat IPC: 1.08082 cumulative IPC: 1.16204 (Simulation time: 4 hr 54 min 18 sec) 
Heartbeat CPU 2 instructions: 1780000000 cycles: 1406275168 heartbeat IPC: 1.4879 cumulative IPC: 1.16377 (Simulation time: 4 hr 55 min 37 sec) 
Heartbeat CPU 1 instructions: 1550000000 cycles: 1408451353 heartbeat IPC: 1.07137 cumulative IPC: 1.05562 (Simulation time: 4 hr 56 min 4 sec) 
Heartbeat CPU 0 instructions: 1350000001 cycles: 1410464692 heartbeat IPC: 0.894515 cumulative IPC: 0.765097 (Simulation time: 4 hr 56 min 28 sec) 
Heartbeat CPU 2 instructions: 1790000001 cycles: 1412331610 heartbeat IPC: 1.65113 cumulative IPC: 1.16609 (Simulation time: 4 hr 56 min 50 sec) 
Heartbeat CPU 1 instructions: 1560000000 cycles: 1417626136 heartbeat IPC: 1.08994 cumulative IPC: 1.05586 (Simulation time: 4 hr 57 min 53 sec) 
Heartbeat CPU 2 instructions: 1800000000 cycles: 1418365922 heartbeat IPC: 1.65719 cumulative IPC: 1.16841 (Simulation time: 4 hr 58 min 2 sec) 
Heartbeat CPU 0 instructions: 1360000000 cycles: 1421122986 heartbeat IPC: 0.938236 cumulative IPC: 0.766537 (Simulation time: 4 hr 58 min 34 sec) 
Heartbeat CPU 2 instructions: 1810000002 cycles: 1424393074 heartbeat IPC: 1.65916 cumulative IPC: 1.17071 (Simulation time: 4 hr 59 min 16 sec) 
Heartbeat CPU 1 instructions: 1570000003 cycles: 1426747811 heartbeat IPC: 1.09629 cumulative IPC: 1.05615 (Simulation time: 4 hr 59 min 45 sec) 
Heartbeat CPU 2 instructions: 1820000000 cycles: 1430414417 heartbeat IPC: 1.66076 cumulative IPC: 1.17299 (Simulation time: 5 hr 0 min 31 sec) 
Heartbeat CPU 0 instructions: 1370000000 cycles: 1431711848 heartbeat IPC: 0.944389 cumulative IPC: 0.767994 (Simulation time: 5 hr 0 min 48 sec) 
Heartbeat CPU 1 instructions: 1580000000 cycles: 1436072907 heartbeat IPC: 1.07237 cumulative IPC: 1.05627 (Simulation time: 5 hr 1 min 43 sec) 
Heartbeat CPU 2 instructions: 1830000002 cycles: 1436514545 heartbeat IPC: 1.63931 cumulative IPC: 1.17519 (Simulation time: 5 hr 1 min 49 sec) 
Finished CPU 0 instructions: 1000000002 cycles: 1300408061 cumulative IPC: 0.768989 (Simulation time: 5 hr 2 min 27 sec) 
Heartbeat CPU 3 instructions: 570000001 cycles: 1440274194 heartbeat IPC: 0.243742 cumulative IPC: 0.284384 (Simulation time: 5 hr 2 min 35 sec) 
Heartbeat CPU 0 instructions: 1380000000 cycles: 1442482130 heartbeat IPC: 0.928481 cumulative IPC: 0.76932 (Simulation time: 5 hr 3 min 2 sec) 
Heartbeat CPU 2 instructions: 1840000000 cycles: 1442716188 heartbeat IPC: 1.61248 cumulative IPC: 1.17727 (Simulation time: 5 hr 3 min 4 sec) 
Heartbeat CPU 1 instructions: 1590000000 cycles: 1444872838 heartbeat IPC: 1.13637 cumulative IPC: 1.05681 (Simulation time: 5 hr 3 min 30 sec) 
Heartbeat CPU 2 instructions: 1850000000 cycles: 1448708587 heartbeat IPC: 1.66878 cumulative IPC: 1.17952 (Simulation time: 5 hr 4 min 13 sec) 
Heartbeat CPU 1 instructions: 1600000000 cycles: 1453412878 heartbeat IPC: 1.17095 cumulative IPC: 1.05755 (Simulation time: 5 hr 5 min 2 sec) 
Heartbeat CPU 0 instructions: 1390000000 cycles: 1454012292 heartbeat IPC: 0.86729 cumulative IPC: 0.770179 (Simulation time: 5 hr 5 min 8 sec) 
Heartbeat CPU 2 instructions: 1860000000 cycles: 1457232539 heartbeat IPC: 1.17316 cumulative IPC: 1.17947 (Simulation time: 5 hr 5 min 42 sec) 
[...]
Heartbeat CPU 0 instructions: 3070000000 cycles: 3603150548 heartbeat IPC: 0.865411 cumulative IPC: 0.777332 (Simulation time: 11 hr 3 min 36 sec) 
Heartbeat CPU 1 instructions: 3860000000 cycles: 3608575890 heartbeat IPC: 1.09695 cumulative IPC: 1.05202 (Simulation time: 11 hr 4 min 29 sec) 
Heartbeat CPU 2 instructions: 4310000000 cycles: 3612587278 heartbeat IPC: 0.877872 cumulative IPC: 1.15293 (Simulation time: 11 hr 5 min 9 sec) 
Heartbeat CPU 0 instructions: 3080000000 cycles: 3614966447 heartbeat IPC: 0.846317 cumulative IPC: 0.777567 (Simulation time: 11 hr 5 min 32 sec) 
Heartbeat CPU 1 instructions: 3870000001 cycles: 3617537275 heartbeat IPC: 1.1159 cumulative IPC: 1.05218 (Simulation time: 11 hr 5 min 57 sec) 
Heartbeat CPU 2 instructions: 4320000000 cycles: 3623697912 heartbeat IPC: 0.900039 cumulative IPC: 1.15213 (Simulation time: 11 hr 6 min 58 sec) 
Heartbeat CPU 1 instructions: 3880000000 cycles: 3626581535 heartbeat IPC: 1.10567 cumulative IPC: 1.05232 (Simulation time: 11 hr 7 min 27 sec) 
Heartbeat CPU 0 instructions: 3090000002 cycles: 3627194264 heartbeat IPC: 0.817808 cumulative IPC: 0.777708 (Simulation time: 11 hr 7 min 32 sec) 
Heartbeat CPU 2 instructions: 4330000000 cycles: 3631779942 heartbeat IPC: 1.23731 cumulative IPC: 1.15232 (Simulation time: 11 hr 8 min 19 sec) 
Heartbeat CPU 1 instructions: 3890000003 cycles: 3635660023 heartbeat IPC: 1.10151 cumulative IPC: 1.05245 (Simulation time: 11 hr 9 min 0 sec) 
Heartbeat CPU 3 instructions: 1180000000 cycles: 3635980694 heartbeat IPC: 0.292839 cumulative IPC: 0.280259 (Simulation time: 11 hr 9 min 3 sec) 
Heartbeat CPU 2 instructions: 4340000000 cycles: 3639115256 heartbeat IPC: 1.36327 cumulative IPC: 1.15277 (Simulation time: 11 hr 9 min 36 sec) 
Heartbeat CPU 0 instructions: 3100000000 cycles: 3639661271 heartbeat IPC: 0.802117 cumulative IPC: 0.777795 (Simulation time: 11 hr 9 min 42 sec) 
Heartbeat CPU 1 instructions: 3900000000 cycles: 3644589100 heartbeat IPC: 1.11994 cumulative IPC: 1.05262 (Simulation time: 11 hr 10 min 33 sec) 
Heartbeat CPU 2 instructions: 4350000001 cycles: 3646471739 heartbeat IPC: 1.35935 cumulative IPC: 1.1532 (Simulation time: 11 hr 10 min 53 sec) 
Heartbeat CPU 0 instructions: 3110000002 cycles: 3652926034 heartbeat IPC: 0.753877 cumulative IPC: 0.777705 (Simulation time: 11 hr 11 min 49 sec) 
Heartbeat CPU 1 instructions: 3910000002 cycles: 3654311304 heartbeat IPC: 1.02857 cumulative IPC: 1.05255 (Simulation time: 11 hr 12 min 1 sec) 
Heartbeat CPU 2 instructions: 4360000000 cycles: 3657302005 heartbeat IPC: 0.923338 cumulative IPC: 1.15249 (Simulation time: 11 hr 12 min 27 sec) 
Heartbeat CPU 1 instructions: 3920000000 cycles: 3663446511 heartbeat IPC: 1.09467 cumulative IPC: 1.05266 (Simulation time: 11 hr 13 min 21 sec) 
Heartbeat CPU 0 instructions: 3120000000 cycles: 3666230344 heartbeat IPC: 0.751636 cumulative IPC: 0.777606 (Simulation time: 11 hr 13 min 48 sec) 
Heartbeat CPU 2 instructions: 4370000003 cycles: 3667732281 heartbeat IPC: 0.958748 cumulative IPC: 1.15192 (Simulation time: 11 hr 14 min 3 sec) 
Heartbeat CPU 1 instructions: 3930000000 cycles: 3672436713 heartbeat IPC: 1.11232 cumulative IPC: 1.05281 (Simulation time: 11 hr 14 min 50 sec) 
Heartbeat CPU 3 instructions: 1190000000 cycles: 3676075610 heartbeat IPC: 0.249408 cumulative IPC: 0.279909 (Simulation time: 11 hr 15 min 26 sec) 
Heartbeat CPU 2 instructions: 4380000000 cycles: 3677042822 heartbeat IPC: 1.07405 cumulative IPC: 1.15171 (Simulation time: 11 hr 15 min 36 sec) 
Heartbeat CPU 0 instructions: 3130000003 cycles: 3678028051 heartbeat IPC: 0.847623 cumulative IPC: 0.77784 (Simulation time: 11 hr 15 min 46 sec) 
Heartbeat CPU 1 instructions: 3940000000 cycles: 3681365872 heartbeat IPC: 1.11993 cumulative IPC: 1.05298 (Simulation time: 11 hr 16 min 19 sec) 
Heartbeat CPU 2 instructions: 4390000000 cycles: 3686309154 heartbeat IPC: 1.07918 cumulative IPC: 1.15153 (Simulation time: 11 hr 17 min 9 sec) 
Heartbeat CPU 0 instructions: 3140000000 cycles: 3689433831 heartbeat IPC: 0.876748 cumulative IPC: 0.778158 (Simulation time: 11 hr 17 min 40 sec) 
Heartbeat CPU 1 instructions: 3950000002 cycles: 3690283058 heartbeat IPC: 1.12143 cumulative IPC: 1.05316 (Simulation time: 11 hr 17 min 49 sec) 
Heartbeat CPU 2 instructions: 4400000000 cycles: 3695543513 heartbeat IPC: 1.08291 cumulative IPC: 1.15135 (Simulation time: 11 hr 18 min 42 sec) 
Heartbeat CPU 1 instructions: 3960000000 cycles: 3699237497 heartbeat IPC: 1.11676 cumulative IPC: 1.05332 (Simulation time: 11 hr 19 min 19 sec) 
Heartbeat CPU 0 instructions: 3150000003 cycles: 3700648044 heartbeat IPC: 0.891726 cumulative IPC: 0.778515 (Simulation time: 11 hr 19 min 33 sec) 
Heartbeat CPU 2 instructions: 4410000001 cycles: 3704805338 heartbeat IPC: 1.0797 cumulative IPC: 1.15116 (Simulation time: 11 hr 20 min 15 sec) 
Heartbeat CPU 1 instructions: 3970000001 cycles: 3708188723 heartbeat IPC: 1.11717 cumulative IPC: 1.05348 (Simulation time: 11 hr 20 min 49 sec) 
Heartbeat CPU 0 instructions: 3160000000 cycles: 3711893012 heartbeat IPC: 0.889286 cumulative IPC: 0.778864 (Simulation time: 11 hr 21 min 27 sec) 
Heartbeat CPU 2 instructions: 4420000000 cycles: 3714097497 heartbeat IPC: 1.07618 cumulative IPC: 1.15097 (Simulation time: 11 hr 21 min 49 sec) 
Heartbeat CPU 1 instructions: 3980000000 cycles: 3717131789 heartbeat IPC: 1.11818 cumulative IPC: 1.05364 (Simulation time: 11 hr 22 min 19 sec) 
Heartbeat CPU 0 instructions: 3170000001 cycles: 3723128925 heartbeat IPC: 0.890003 cumulative IPC: 0.779212 (Simulation time: 11 hr 23 min 19 sec) 
Heartbeat CPU 2 instructions: 4430000001 cycles: 3723354277 heartbeat IPC: 1.08029 cumulative IPC: 1.15078 (Simulation time: 11 hr 23 min 22 sec) 
Heartbeat CPU 3 instructions: 1200000000 cycles: 3724714319 heartbeat IPC: 0.205598 cumulative IPC: 0.278901 (Simulation time: 11 hr 23 min 35 sec) 
Finished CPU 3 instructions: 1000000000 cycles: 3585500073 cumulative IPC: 0.278901 (Simulation time: 11 hr 23 min 35 sec) 

CPU 0 Branch Prediction Accuracy: 99.9998% MPKI: 5.62022e-05

CPU 1 Branch Prediction Accuracy: 98.2799% MPKI: 0.687877

CPU 2 Branch Prediction Accuracy: 99.2506% MPKI: 0.357361

CPU 3 Branch Prediction Accuracy: 75.381% MPKI: 46.4797

ChampSim completed all CPUs

Total Simulation Statistics (not including warmup)

CPU 0 cumulative IPC: 0.779262 instructions: 2794044594 cycles: 3585500073
L1D TOTAL     ACCESS:  418959828  HIT:  374416440  MISS:   44543388
L1D LOAD      ACCESS:  291078681  HIT:  255330332  MISS:   35748349
L1D RFO       ACCESS:  127881147  HIT:  119086108  MISS:    8795039
L1D PREFETCH  ACCESS:          0  HIT:          0  MISS:          0
L1D WRITEBACK ACCESS:          0  HIT:          0  MISS:          0
L1I TOTAL     ACCESS:  635257269  HIT:  635257263  MISS:          6
L1I LOAD      ACCESS:  635257269  HIT:  635257263  MISS:          6
L1I RFO       ACCESS:          0  HIT:          0  MISS:          0
L1I PREFETCH  ACCESS:          0  HIT:          0  MISS:          0
L1I WRITEBACK ACCESS:          0  HIT:          0  MISS:          0
L2C TOTAL     ACCESS:   69304216  HIT:   24456465  MISS:   44847751
L2C LOAD      ACCESS:   35748355  HIT:    7828328  MISS:   27920027
L2C RFO       ACCESS:    8795039  HIT:          3  MISS:    8795036
L2C PREFETCH  ACCESS:    8288065  HIT:     157430  MISS:    8130635
L2C WRITEBACK ACCESS:   16472757  HIT:   16470704  MISS:       2053
LLC TOTAL     ACCESS:  109512389  HIT:   60843309  MISS:   48669080
LLC LOAD      ACCESS:   26000470  HIT:   14447704  MISS:   11552766
LLC RFO       ACCESS:    8795035  HIT:       1271  MISS:    8793764
LLC PREFETCH  ACCESS:   58243289  HIT:   29983187  MISS:   28260102
LLC WRITEBACK ACCESS:   16473595  HIT:   16411147  MISS:      62448

CPU 1 cumulative IPC: 1.05377 instructions: 3778291164 cycles: 3585500073
L1D TOTAL     ACCESS: 1693082443  HIT: 1615983259  MISS:   77099184
L1D LOAD      ACCESS: 1430204287  HIT: 1354904539  MISS:   75299748
L1D RFO       ACCESS:  262878156  HIT:  261078720  MISS:    1799436
L1D PREFETCH  ACCESS:          0  HIT:          0  MISS:          0
L1D WRITEBACK ACCESS:          0  HIT:          0  MISS:          0
L1I TOTAL     ACCESS:  880794817  HIT:  880794729  MISS:         88
L1I LOAD      ACCESS:  880794817  HIT:  880794729  MISS:         88
L1I RFO       ACCESS:          0  HIT:          0  MISS:          0
L1I PREFETCH  ACCESS:          0  HIT:          0  MISS:          0
L1I WRITEBACK ACCESS:          0  HIT:          0  MISS:          0
L2C TOTAL     ACCESS:  122724091  HIT:   52184870  MISS:   70539221
L2C LOAD      ACCESS:   75278339  HIT:   33445159  MISS:   41833180
L2C RFO       ACCESS:    1777826  HIT:     246874  MISS:    1530952
L2C PREFETCH  ACCESS:   40841155  HIT:   13676087  MISS:   27165068
L2C WRITEBACK ACCESS:    4826771  HIT:    4816750  MISS:      10021
LLC TOTAL     ACCESS:  244359176  HIT:  174025914  MISS:   70333262
LLC LOAD      ACCESS:   36001341  HIT:   32569745  MISS:    3431596
LLC RFO       ACCESS:    1530952  HIT:         24  MISS:    1530928
LLC PREFETCH  ACCESS:  202580277  HIT:  137211603  MISS:   65368674
LLC WRITEBACK ACCESS:    4246606  HIT:    4244542  MISS:       2064

CPU 2 cumulative IPC: 1.15075 instructions: 4126031548 cycles: 3585500073
L1D TOTAL     ACCESS: 1103448903  HIT: 1060710920  MISS:   42737983
L1D LOAD      ACCESS:  878576686  HIT:  842327583  MISS:   36249103
L1D RFO       ACCESS:  224872217  HIT:  218383337  MISS:    6488880
L1D PREFETCH  ACCESS:          0  HIT:          0  MISS:          0
L1D WRITEBACK ACCESS:          0  HIT:          0  MISS:          0
L1I TOTAL     ACCESS:  973028108  HIT:  973017824  MISS:      10284
L1I LOAD      ACCESS:  973028108  HIT:  973017824  MISS:      10284
L1I RFO       ACCESS:          0  HIT:          0  MISS:          0
L1I PREFETCH  ACCESS:          0  HIT:          0  MISS:          0
L1I WRITEBACK ACCESS:          0  HIT:          0  MISS:          0
L2C TOTAL     ACCESS:  124443665  HIT:   94857599  MISS:   29586066
L2C LOAD      ACCESS:   36259213  HIT:   26287057  MISS:    9972156
L2C RFO       ACCESS:    6488861  HIT:    2584312  MISS:    3904549
L2C PREFETCH  ACCESS:   67635972  HIT:   51933410  MISS:   15702562
L2C WRITEBACK ACCESS:   14059619  HIT:   14052820  MISS:       6799
LLC TOTAL     ACCESS:  136550071  HIT:  107981395  MISS:   28568676
LLC LOAD      ACCESS:    9541482  HIT:    8138937  MISS:    1402545
LLC RFO       ACCESS:    3904509  HIT:     594473  MISS:    3310036
LLC PREFETCH  ACCESS:  113021678  HIT:   89268146  MISS:   23753532
LLC WRITEBACK ACCESS:   10082402  HIT:    9979839  MISS:     102563

CPU 3 cumulative IPC: 0.278901 instructions: 1000000000 cycles: 3585500073
L1D TOTAL     ACCESS:  270323893  HIT:  240733549  MISS:   29590344
L1D LOAD      ACCESS:  227869293  HIT:  198723761  MISS:   29145532
L1D RFO       ACCESS:   42454600  HIT:   42009788  MISS:     444812
L1D PREFETCH  ACCESS:          0  HIT:          0  MISS:          0
L1D WRITEBACK ACCESS:          0  HIT:          0  MISS:          0
L1I TOTAL     ACCESS:  246449690  HIT:  246449680  MISS:         10
L1I LOAD      ACCESS:  246449690  HIT:  246449680  MISS:         10
L1I RFO       ACCESS:          0  HIT:          0  MISS:          0
L1I PREFETCH  ACCESS:          0  HIT:          0  MISS:          0
L1I WRITEBACK ACCESS:          0  HIT:          0  MISS:          0
L2C TOTAL     ACCESS:   59300524  HIT:   31432763  MISS:   27867761
L2C LOAD      ACCESS:   29144624  HIT:    8114507  MISS:   21030117
L2C RFO       ACCESS:     444635  HIT:     246469  MISS:     198166
L2C PREFETCH  ACCESS:   20044040  HIT:   13498116  MISS:    6545924
L2C WRITEBACK ACCESS:    9667225  HIT:    9573671  MISS:      93554
LLC TOTAL     ACCESS:   81335616  HIT:   73792706  MISS:    7542910
LLC LOAD      ACCESS:   21015071  HIT:   19685377  MISS:    1329694
LLC RFO       ACCESS:     198147  HIT:     195289  MISS:       2858
LLC PREFETCH  ACCESS:   52696404  HIT:   46908824  MISS:    5787580
LLC WRITEBACK ACCESS:    7425994  HIT:    7003216  MISS:     422778

Region of Interest Statistics

CPU 0 cumulative IPC: 0.768989 instructions: 1000000002 cycles: 1300408061
L1D TOTAL     ACCESS:  154293532  HIT:  138402077  MISS:   15891455
L1D LOAD      ACCESS:  104722321  HIT:   91474941  MISS:   13247380
L1D RFO       ACCESS:   49571211  HIT:   46927136  MISS:    2644075
L1D PREFETCH  ACCESS:          0  HIT:          0  MISS:          0
L1D WRITEBACK ACCESS:          0  HIT:          0  MISS:          0
L1D PREFETCH  REQUESTED:          0  ISSUED:          0  USEFUL:          0  USELESS:          0
L1I TOTAL     ACCESS:  227939582  HIT:  227939577  MISS:          5
L1I LOAD      ACCESS:  227939582  HIT:  227939577  MISS:          5
L1I RFO       ACCESS:          0  HIT:          0  MISS:          0
L1I PREFETCH  ACCESS:          0  HIT:          0  MISS:          0
L1I WRITEBACK ACCESS:          0  HIT:          0  MISS:          0
L1I PREFETCH  REQUESTED:          0  ISSUED:          0  USEFUL:          0  USELESS:          0
L2C TOTAL     ACCESS:   24827923  HIT:    8850898  MISS:   15977025
L2C LOAD      ACCESS:   13247385  HIT:    2874377  MISS:   10373008
L2C RFO       ACCESS:    2644075  HIT:          1  MISS:    2644074
L2C PREFETCH  ACCESS:    2979827  HIT:      20530  MISS:    2959297
L2C WRITEBACK ACCESS:    5956636  HIT:    5955990  MISS:        646
L2C PREFETCH  REQUESTED:  127352292  ISSUED:  127352292  USEFUL:   10048172  USELESS:     340142
LLC TOTAL     ACCESS:   38497487  HIT:   21296292  MISS:   17201195
LLC LOAD      ACCESS:    9679533  HIT:    5307633  MISS:    4371900
LLC RFO       ACCESS:    2644074  HIT:        569  MISS:    2643505
LLC PREFETCH  ACCESS:   20216364  HIT:   10053057  MISS:   10163307
LLC WRITEBACK ACCESS:    5957516  HIT:    5935033  MISS:      22483
LLC PREFETCH  REQUESTED:          0  ISSUED:          0  USEFUL:   59205849  USELESS:   74570302
Major fault: 0 Minor fault: 109713

CPU 1 cumulative IPC: 1.05863 instructions: 1000000000 cycles: 944616794
L1D TOTAL     ACCESS:  444825718  HIT:  424384774  MISS:   20440944
L1D LOAD      ACCESS:  376064599  HIT:  356093119  MISS:   19971480
L1D RFO       ACCESS:   68761119  HIT:   68291655  MISS:     469464
L1D PREFETCH  ACCESS:          0  HIT:          0  MISS:          0
L1D WRITEBACK ACCESS:          0  HIT:          0  MISS:          0
L1D PREFETCH  REQUESTED:          0  ISSUED:          0  USEFUL:          0  USELESS:          0
L1I TOTAL     ACCESS:  232436209  HIT:  232436121  MISS:         88
L1I LOAD      ACCESS:  232436209  HIT:  232436121  MISS:         88
L1I RFO       ACCESS:          0  HIT:          0  MISS:          0
L1I PREFETCH  ACCESS:          0  HIT:          0  MISS:          0
L1I WRITEBACK ACCESS:          0  HIT:          0  MISS:          0
L1I PREFETCH  REQUESTED:          0  ISSUED:          0  USEFUL:          0  USELESS:          0
L2C TOTAL     ACCESS:   32544269  HIT:   13820787  MISS:   18723482
L2C LOAD      ACCESS:   19965926  HIT:    8974121  MISS:   10991805
L2C RFO       ACCESS:     463944  HIT:      62890  MISS:     401054
L2C PREFETCH  ACCESS:   10866148  HIT:    3538091  MISS:    7328057
L2C WRITEBACK ACCESS:    1248251  HIT:    1245685  MISS:       2566
L2C PREFETCH  REQUESTED:  373635629  ISSUED:  295528741  USEFUL:   29606059  USELESS:       3806
LLC TOTAL     ACCESS:   64539446  HIT:   45865229  MISS:   18674217
LLC LOAD      ACCESS:    9397892  HIT:    8492822  MISS:     905070
LLC RFO       ACCESS:     401054  HIT:          7  MISS:     401047
LLC PREFETCH  ACCESS:   53644335  HIT:   36276776  MISS:   17367559
LLC WRITEBACK ACCESS:    1096165  HIT:    1095624  MISS:        541
LLC PREFETCH  REQUESTED:          0  ISSUED:          0  USEFUL:   59205849  USELESS:   74570302
Major fault: 0 Minor fault: 108280

CPU 2 cumulative IPC: 1.08066 instructions: 1000000002 cycles: 925361199
L1D TOTAL     ACCESS:  298169169  HIT:  287212461  MISS:   10956708
L1D LOAD      ACCESS:  236579002  HIT:  226947456  MISS:    9631546
L1D RFO       ACCESS:   61590167  HIT:   60265005  MISS:    1325162
L1D PREFETCH  ACCESS:          0  HIT:          0  MISS:          0
L1D WRITEBACK ACCESS:          0  HIT:          0  MISS:          0
L1D PREFETCH  REQUESTED:          0  ISSUED:          0  USEFUL:          0  USELESS:          0
L1I TOTAL     ACCESS:  241535440  HIT:  241532465  MISS:       2975
L1I LOAD      ACCESS:  241535440  HIT:  241532465  MISS:       2975
L1I RFO       ACCESS:          0  HIT:          0  MISS:          0
L1I PREFETCH  ACCESS:          0  HIT:          0  MISS:          0
L1I WRITEBACK ACCESS:          0  HIT:          0  MISS:          0
L1I PREFETCH  REQUESTED:          0  ISSUED:          0  USEFUL:          0  USELESS:          0
L2C TOTAL     ACCESS:   31871617  HIT:   24386755  MISS:    7484862
L2C LOAD      ACCESS:    9634482  HIT:    6971373  MISS:    2663109
L2C RFO       ACCESS:    1325161  HIT:     690354  MISS:     634807
L2C PREFETCH  ACCESS:   17619600  HIT:   13435053  MISS:    4184547
L2C WRITEBACK ACCESS:    3292374  HIT:    3289975  MISS:       2399
L2C PREFETCH  REQUESTED:  186293906  ISSUED:  186095511  USEFUL:   16754872  USELESS:     248527
LLC TOTAL     ACCESS:   35041097  HIT:   27872727  MISS:    7168370
LLC LOAD      ACCESS:    2559789  HIT:    2149506  MISS:     410283
LLC RFO       ACCESS:     634795  HIT:     146514  MISS:     488281
LLC PREFETCH  ACCESS:   29703284  HIT:   23457615  MISS:    6245669
LLC WRITEBACK ACCESS:    2143229  HIT:    2119092  MISS:      24137
LLC PREFETCH  REQUESTED:          0  ISSUED:          0  USEFUL:   59205849  USELESS:   74570302
Major fault: 0 Minor fault: 33410

CPU 3 cumulative IPC: 0.278901 instructions: 1000000000 cycles: 3585500073
L1D TOTAL     ACCESS:  270323893  HIT:  240733549  MISS:   29590344
L1D LOAD      ACCESS:  227869293  HIT:  198723761  MISS:   29145532
L1D RFO       ACCESS:   42454600  HIT:   42009788  MISS:     444812
L1D PREFETCH  ACCESS:          0  HIT:          0  MISS:          0
L1D WRITEBACK ACCESS:          0  HIT:          0  MISS:          0
L1D PREFETCH  REQUESTED:          0  ISSUED:          0  USEFUL:          0  USELESS:          0
L1I TOTAL     ACCESS:  246449690  HIT:  246449680  MISS:         10
L1I LOAD      ACCESS:  246449690  HIT:  246449680  MISS:         10
L1I RFO       ACCESS:          0  HIT:          0  MISS:          0
L1I PREFETCH  ACCESS:          0  HIT:          0  MISS:          0
L1I WRITEBACK ACCESS:          0  HIT:          0  MISS:          0
L1I PREFETCH  REQUESTED:          0  ISSUED:          0  USEFUL:          0  USELESS:          0
L2C TOTAL     ACCESS:   59300524  HIT:   31432763  MISS:   27867761
L2C LOAD      ACCESS:   29144624  HIT:    8114507  MISS:   21030117
L2C RFO       ACCESS:     444635  HIT:     246469  MISS:     198166
L2C PREFETCH  ACCESS:   20044040  HIT:   13498116  MISS:    6545924
L2C WRITEBACK ACCESS:    9667225  HIT:    9573671  MISS:      93554
L2C PREFETCH  REQUESTED:   79932941  ISSUED:   79919949  USEFUL:     936065  USELESS:    6475263
LLC TOTAL     ACCESS:   81335616  HIT:   73792706  MISS:    7542910
LLC LOAD      ACCESS:   21015071  HIT:   19685377  MISS:    1329694
LLC RFO       ACCESS:     198147  HIT:     195289  MISS:       2858
LLC PREFETCH  ACCESS:   52696404  HIT:   46908824  MISS:    5787580
LLC WRITEBACK ACCESS:    7425994  HIT:    7003216  MISS:     422778
LLC PREFETCH  REQUESTED:          0  ISSUED:          0  USEFUL:   59205849  USELESS:   74570302
Major fault: 0 Minor fault: 6234

DRAM Statistics
 CHANNEL 0
 RQ ROW_BUFFER_HIT:   45016766  ROW_BUFFER_MISS:   34451231
 DBUS_CONGESTED:  106785828
 WQ ROW_BUFFER_HIT:    1593701  ROW_BUFFER_MISS:   13843341  FULL:          0

 CHANNEL 1
 RQ ROW_BUFFER_HIT:   41545105  ROW_BUFFER_MISS:   33507305
 DBUS_CONGESTED:  106785828
 WQ ROW_BUFFER_HIT:    1673085  ROW_BUFFER_MISS:   14392860  FULL:          0

 AVG_CONGESTED_CYCLE: 13
