Initialize SIGNATURE TABLE
ST_SET: 1
ST_WAY: 256
ST_TAG_BIT: 16
ST_TAG_MASK: ffff

Initialize PATTERN TABLE
PT_SET: 512
PT_WAY: 4
SIG_DELTA_BIT: 7
C_SIG_BIT: 4
C_DELTA_BIT: 4

Initialize PREFETCH FILTER
FILTER_SET: 1024

*** ChampSim Multicore Out-of-Order Simulator ***

Warmup Instructions: 200000000
Simulation Instructions: 1000000000
Number of CPUs: 4
LLC sets: 8192
LLC ways: 16
Off-chip DRAM Size: 8192 MB Channels: 2 Width: 64-bit Data Rate: 1600 MT/s

CPU 0 runs /scratch/user/djimenez/champsim-traces/speccpu2006/xz//403.gcc-48B.champsimtrace.xz
CPU 1 runs /scratch/user/djimenez/champsim-traces/speccpu2006/xz//470.lbm-1274B.champsimtrace.xz
CPU 2 runs /scratch/user/djimenez/champsim-traces/speccpu2006/xz//433.milc-274B.champsimtrace.xz
CPU 3 runs /scratch/user/djimenez/champsim-traces/speccpu2006/xz//481.wrf-196B.champsimtrace.xz
Heartbeat CPU 2 instructions: 10000002 cycles: 3371772 heartbeat IPC: 2.9658 cumulative IPC: 2.9658 (Simulation time: 0 hr 1 min 28 sec) 
Heartbeat CPU 1 instructions: 10000003 cycles: 3768932 heartbeat IPC: 2.65327 cumulative IPC: 2.65327 (Simulation time: 0 hr 1 min 38 sec) 
Heartbeat CPU 3 instructions: 10000001 cycles: 4106811 heartbeat IPC: 2.43498 cumulative IPC: 2.43498 (Simulation time: 0 hr 1 min 47 sec) 
Heartbeat CPU 0 instructions: 10000001 cycles: 5485977 heartbeat IPC: 1.82283 cumulative IPC: 1.82283 (Simulation time: 0 hr 2 min 22 sec) 
Heartbeat CPU 2 instructions: 20000000 cycles: 6743398 heartbeat IPC: 2.96593 cumulative IPC: 2.96586 (Simulation time: 0 hr 2 min 55 sec) 
Heartbeat CPU 1 instructions: 20000000 cycles: 7533407 heartbeat IPC: 2.65641 cumulative IPC: 2.65484 (Simulation time: 0 hr 3 min 15 sec) 
Heartbeat CPU 3 instructions: 20000000 cycles: 8223753 heartbeat IPC: 2.42899 cumulative IPC: 2.43198 (Simulation time: 0 hr 3 min 33 sec) 
Heartbeat CPU 2 instructions: 30000003 cycles: 10114995 heartbeat IPC: 2.96595 cumulative IPC: 2.96589 (Simulation time: 0 hr 4 min 20 sec) 
Heartbeat CPU 0 instructions: 20000000 cycles: 10965232 heartbeat IPC: 1.82507 cumulative IPC: 1.82395 (Simulation time: 0 hr 4 min 40 sec) 
Heartbeat CPU 1 instructions: 30000003 cycles: 11302335 heartbeat IPC: 2.65328 cumulative IPC: 2.65432 (Simulation time: 0 hr 4 min 49 sec) 
Heartbeat CPU 3 instructions: 30000000 cycles: 12500382 heartbeat IPC: 2.33829 cumulative IPC: 2.39993 (Simulation time: 0 hr 5 min 18 sec) 
Heartbeat CPU 2 instructions: 40000000 cycles: 13486698 heartbeat IPC: 2.96586 cumulative IPC: 2.96589 (Simulation time: 0 hr 5 min 42 sec) 
Heartbeat CPU 1 instructions: 40000000 cycles: 15071224 heartbeat IPC: 2.6533 cumulative IPC: 2.65406 (Simulation time: 0 hr 6 min 21 sec) 
Heartbeat CPU 0 instructions: 30000000 cycles: 16439866 heartbeat IPC: 1.82661 cumulative IPC: 1.82483 (Simulation time: 0 hr 6 min 56 sec) 
Heartbeat CPU 3 instructions: 40000000 cycles: 16775460 heartbeat IPC: 2.33914 cumulative IPC: 2.38444 (Simulation time: 0 hr 7 min 5 sec) 
Heartbeat CPU 2 instructions: 50000000 cycles: 16858445 heartbeat IPC: 2.96582 cumulative IPC: 2.96587 (Simulation time: 0 hr 7 min 7 sec) 
Heartbeat CPU 1 instructions: 50000000 cycles: 18840095 heartbeat IPC: 2.65331 cumulative IPC: 2.65391 (Simulation time: 0 hr 8 min 14 sec) 
Heartbeat CPU 2 instructions: 60000000 cycles: 20231198 heartbeat IPC: 2.96494 cumulative IPC: 2.96572 (Simulation time: 0 hr 8 min 57 sec) 
Heartbeat CPU 3 instructions: 50000001 cycles: 20775549 heartbeat IPC: 2.49994 cumulative IPC: 2.40668 (Simulation time: 0 hr 9 min 10 sec) 
Heartbeat CPU 0 instructions: 40000000 cycles: 21916803 heartbeat IPC: 1.82584 cumulative IPC: 1.82508 (Simulation time: 0 hr 9 min 38 sec) 
Heartbeat CPU 1 instructions: 60000000 cycles: 22609150 heartbeat IPC: 2.65318 cumulative IPC: 2.65379 (Simulation time: 0 hr 9 min 54 sec) 
Heartbeat CPU 3 instructions: 60000000 cycles: 24749596 heartbeat IPC: 2.51633 cumulative IPC: 2.42428 (Simulation time: 0 hr 10 min 46 sec) 
Heartbeat CPU 1 instructions: 70000002 cycles: 26378204 heartbeat IPC: 2.65319 cumulative IPC: 2.65371 (Simulation time: 0 hr 11 min 25 sec) 
Heartbeat CPU 0 instructions: 50000003 cycles: 27395928 heartbeat IPC: 1.82511 cumulative IPC: 1.82509 (Simulation time: 0 hr 11 min 52 sec) 
Heartbeat CPU 3 instructions: 70000002 cycles: 28729105 heartbeat IPC: 2.51287 cumulative IPC: 2.43655 (Simulation time: 0 hr 12 min 26 sec) 
Heartbeat CPU 2 instructions: 70000001 cycles: 28740368 heartbeat IPC: 1.1752 cumulative IPC: 2.4356 (Simulation time: 0 hr 12 min 26 sec) 
Heartbeat CPU 1 instructions: 80000000 cycles: 30142718 heartbeat IPC: 2.65638 cumulative IPC: 2.65404 (Simulation time: 0 hr 13 min 39 sec) 
Heartbeat CPU 3 instructions: 80000000 cycles: 32736156 heartbeat IPC: 2.4956 cumulative IPC: 2.44378 (Simulation time: 0 hr 15 min 19 sec) 
Heartbeat CPU 2 instructions: 80000000 cycles: 32793245 heartbeat IPC: 2.46738 cumulative IPC: 2.43953 (Simulation time: 0 hr 15 min 21 sec) 
Heartbeat CPU 0 instructions: 60000000 cycles: 32870754 heartbeat IPC: 1.82654 cumulative IPC: 1.82533 (Simulation time: 0 hr 15 min 24 sec) 
Heartbeat CPU 1 instructions: 90000003 cycles: 33911368 heartbeat IPC: 2.65347 cumulative IPC: 2.65398 (Simulation time: 0 hr 15 min 54 sec) 
Heartbeat CPU 3 instructions: 90000003 cycles: 36735120 heartbeat IPC: 2.50065 cumulative IPC: 2.44997 (Simulation time: 0 hr 17 min 10 sec) 
Heartbeat CPU 2 instructions: 90000002 cycles: 36843265 heartbeat IPC: 2.46912 cumulative IPC: 2.44278 (Simulation time: 0 hr 17 min 13 sec) 
Heartbeat CPU 1 instructions: 100000000 cycles: 37680144 heartbeat IPC: 2.65338 cumulative IPC: 2.65392 (Simulation time: 0 hr 17 min 34 sec) 
Heartbeat CPU 0 instructions: 70000001 cycles: 38349730 heartbeat IPC: 1.82516 cumulative IPC: 1.82531 (Simulation time: 0 hr 17 min 52 sec) 
Heartbeat CPU 3 instructions: 100000000 cycles: 40804848 heartbeat IPC: 2.45717 cumulative IPC: 2.45069 (Simulation time: 0 hr 18 min 54 sec) 
Heartbeat CPU 2 instructions: 100000000 cycles: 40893049 heartbeat IPC: 2.46927 cumulative IPC: 2.4454 (Simulation time: 0 hr 18 min 56 sec) 
Heartbeat CPU 1 instructions: 110000003 cycles: 41448986 heartbeat IPC: 2.65334 cumulative IPC: 2.65386 (Simulation time: 0 hr 19 min 10 sec) 
Heartbeat CPU 0 instructions: 80000000 cycles: 43820675 heartbeat IPC: 1.82784 cumulative IPC: 1.82562 (Simulation time: 0 hr 20 min 9 sec) 
Heartbeat CPU 2 instructions: 110000001 cycles: 44941175 heartbeat IPC: 2.47028 cumulative IPC: 2.44764 (Simulation time: 0 hr 20 min 38 sec) 
Heartbeat CPU 3 instructions: 110000001 cycles: 44969322 heartbeat IPC: 2.40126 cumulative IPC: 2.44611 (Simulation time: 0 hr 20 min 38 sec) 
Heartbeat CPU 1 instructions: 120000000 cycles: 45217690 heartbeat IPC: 2.65343 cumulative IPC: 2.65383 (Simulation time: 0 hr 20 min 45 sec) 
Heartbeat CPU 1 instructions: 130000003 cycles: 48986515 heartbeat IPC: 2.65335 cumulative IPC: 2.65379 (Simulation time: 0 hr 22 min 34 sec) 
Heartbeat CPU 2 instructions: 120000000 cycles: 48988635 heartbeat IPC: 2.47069 cumulative IPC: 2.44955 (Simulation time: 0 hr 22 min 34 sec) 
Heartbeat CPU 3 instructions: 120000000 cycles: 49081175 heartbeat IPC: 2.43199 cumulative IPC: 2.44493 (Simulation time: 0 hr 22 min 37 sec) 
Heartbeat CPU 0 instructions: 90000001 cycles: 49299144 heartbeat IPC: 1.82533 cumulative IPC: 1.82559 (Simulation time: 0 hr 22 min 42 sec) 
Heartbeat CPU 1 instructions: 140000000 cycles: 52755348 heartbeat IPC: 2.65334 cumulative IPC: 2.65376 (Simulation time: 0 hr 24 min 17 sec) 
Heartbeat CPU 2 instructions: 130000001 cycles: 53032364 heartbeat IPC: 2.47297 cumulative IPC: 2.45133 (Simulation time: 0 hr 24 min 24 sec) 
Heartbeat CPU 3 instructions: 130000000 cycles: 53058218 heartbeat IPC: 2.51443 cumulative IPC: 2.45014 (Simulation time: 0 hr 24 min 25 sec) 
Heartbeat CPU 0 instructions: 100000000 cycles: 54773807 heartbeat IPC: 1.8266 cumulative IPC: 1.82569 (Simulation time: 0 hr 25 min 9 sec) 
Heartbeat CPU 1 instructions: 150000003 cycles: 56519797 heartbeat IPC: 2.65643 cumulative IPC: 2.65394 (Simulation time: 0 hr 25 min 54 sec) 
Heartbeat CPU 3 instructions: 140000000 cycles: 57035267 heartbeat IPC: 2.51443 cumulative IPC: 2.45462 (Simulation time: 0 hr 26 min 10 sec) 
Heartbeat CPU 2 instructions: 140000000 cycles: 57076576 heartbeat IPC: 2.47267 cumulative IPC: 2.45285 (Simulation time: 0 hr 26 min 11 sec) 
Heartbeat CPU 0 instructions: 110000002 cycles: 60256952 heartbeat IPC: 1.82377 cumulative IPC: 1.82552 (Simulation time: 0 hr 27 min 33 sec) 
Heartbeat CPU 1 instructions: 160000000 cycles: 60288532 heartbeat IPC: 2.65341 cumulative IPC: 2.6539 (Simulation time: 0 hr 27 min 34 sec) 
Heartbeat CPU 3 instructions: 150000002 cycles: 61028855 heartbeat IPC: 2.50401 cumulative IPC: 2.45785 (Simulation time: 0 hr 27 min 53 sec) 
Heartbeat CPU 2 instructions: 150000000 cycles: 61124741 heartbeat IPC: 2.47026 cumulative IPC: 2.454 (Simulation time: 0 hr 27 min 55 sec) 
Heartbeat CPU 1 instructions: 170000003 cycles: 64057318 heartbeat IPC: 2.65338 cumulative IPC: 2.65387 (Simulation time: 0 hr 29 min 9 sec) 
Heartbeat CPU 3 instructions: 160000000 cycles: 65015752 heartbeat IPC: 2.50822 cumulative IPC: 2.46094 (Simulation time: 0 hr 29 min 34 sec) 
Heartbeat CPU 2 instructions: 160000000 cycles: 65175074 heartbeat IPC: 2.46893 cumulative IPC: 2.45493 (Simulation time: 0 hr 29 min 38 sec) 
Heartbeat CPU 0 instructions: 120000000 cycles: 65738670 heartbeat IPC: 1.82425 cumulative IPC: 1.82541 (Simulation time: 0 hr 29 min 52 sec) 
Heartbeat CPU 1 instructions: 180000000 cycles: 67825937 heartbeat IPC: 2.65349 cumulative IPC: 2.65385 (Simulation time: 0 hr 30 min 45 sec) 
Heartbeat CPU 3 instructions: 170000003 cycles: 68999930 heartbeat IPC: 2.50993 cumulative IPC: 2.46377 (Simulation time: 0 hr 31 min 15 sec) 
Heartbeat CPU 2 instructions: 170000000 cycles: 69226758 heartbeat IPC: 2.46811 cumulative IPC: 2.4557 (Simulation time: 0 hr 31 min 21 sec) 
Heartbeat CPU 0 instructions: 130000002 cycles: 71219416 heartbeat IPC: 1.82457 cumulative IPC: 1.82534 (Simulation time: 0 hr 32 min 11 sec) 
Heartbeat CPU 1 instructions: 190000000 cycles: 71594733 heartbeat IPC: 2.65337 cumulative IPC: 2.65383 (Simulation time: 0 hr 32 min 21 sec) 
Heartbeat CPU 3 instructions: 180000000 cycles: 72789781 heartbeat IPC: 2.63863 cumulative IPC: 2.47287 (Simulation time: 0 hr 32 min 51 sec) 
Heartbeat CPU 2 instructions: 180000000 cycles: 73274902 heartbeat IPC: 2.47027 cumulative IPC: 2.4565 (Simulation time: 0 hr 33 min 3 sec) 
Heartbeat CPU 1 instructions: 200000000 cycles: 75363410 heartbeat IPC: 2.65345 cumulative IPC: 2.65381 (Simulation time: 0 hr 33 min 56 sec) 
Heartbeat CPU 3 instructions: 190000003 cycles: 76531377 heartbeat IPC: 2.67266 cumulative IPC: 2.48264 (Simulation time: 0 hr 34 min 26 sec) 
Heartbeat CPU 0 instructions: 140000000 cycles: 76695909 heartbeat IPC: 1.82599 cumulative IPC: 1.82539 (Simulation time: 0 hr 34 min 30 sec) 
Heartbeat CPU 2 instructions: 190000001 cycles: 77323485 heartbeat IPC: 2.47 cumulative IPC: 2.45721 (Simulation time: 0 hr 34 min 46 sec) 
Heartbeat CPU 1 instructions: 210000000 cycles: 79127838 heartbeat IPC: 2.65645 cumulative IPC: 0.126378 (Simulation time: 0 hr 35 min 32 sec) 
Heartbeat CPU 3 instructions: 200000000 cycles: 80271520 heartbeat IPC: 2.67369 cumulative IPC: 2.49154 (Simulation time: 0 hr 36 min 1 sec) 
Heartbeat CPU 2 instructions: 200000000 cycles: 81365534 heartbeat IPC: 2.47399 cumulative IPC: 2.45804 (Simulation time: 0 hr 36 min 29 sec) 
Heartbeat CPU 0 instructions: 150000001 cycles: 82170932 heartbeat IPC: 1.82648 cumulative IPC: 1.82546 (Simulation time: 0 hr 36 min 50 sec) 
Heartbeat CPU 1 instructions: 220000000 cycles: 82896783 heartbeat IPC: 2.65326 cumulative IPC: 0.241264 (Simulation time: 0 hr 37 min 10 sec) 
Heartbeat CPU 3 instructions: 210000003 cycles: 84007248 heartbeat IPC: 2.67686 cumulative IPC: 0.119037 (Simulation time: 0 hr 37 min 41 sec) 
Heartbeat CPU 2 instructions: 210000000 cycles: 85320885 heartbeat IPC: 2.52822 cumulative IPC: 0.117205 (Simulation time: 0 hr 38 min 19 sec) 
Heartbeat CPU 1 instructions: 230000003 cycles: 86666717 heartbeat IPC: 2.65257 cumulative IPC: 0.346154 (Simulation time: 0 hr 38 min 57 sec) 
Heartbeat CPU 0 instructions: 160000000 cycles: 87647975 heartbeat IPC: 1.8258 cumulative IPC: 1.82548 (Simulation time: 0 hr 39 min 24 sec) 
Heartbeat CPU 3 instructions: 220000000 cycles: 87775394 heartbeat IPC: 2.65382 cumulative IPC: 0.227854 (Simulation time: 0 hr 39 min 28 sec) 
Heartbeat CPU 2 instructions: 220000000 cycles: 89018957 heartbeat IPC: 2.70411 cumulative IPC: 0.224671 (Simulation time: 0 hr 40 min 32 sec) 
Heartbeat CPU 1 instructions: 240000000 cycles: 90436317 heartbeat IPC: 2.6528 cumulative IPC: 0.4423 (Simulation time: 0 hr 41 min 54 sec) 
Heartbeat CPU 3 instructions: 230000001 cycles: 91726619 heartbeat IPC: 2.53086 cumulative IPC: 0.327059 (Simulation time: 0 hr 42 min 43 sec) 
Heartbeat CPU 2 instructions: 230000001 cycles: 92754919 heartbeat IPC: 2.67669 cumulative IPC: 0.323433 (Simulation time: 0 hr 43 min 12 sec) 
Heartbeat CPU 0 instructions: 170000001 cycles: 93117536 heartbeat IPC: 1.8283 cumulative IPC: 1.82565 (Simulation time: 0 hr 43 min 21 sec) 
Heartbeat CPU 1 instructions: 250000003 cycles: 94205569 heartbeat IPC: 2.65305 cumulative IPC: 0.530754 (Simulation time: 0 hr 43 min 49 sec) 
Heartbeat CPU 3 instructions: 240000000 cycles: 95687894 heartbeat IPC: 2.52444 cumulative IPC: 0.418026 (Simulation time: 0 hr 44 min 29 sec) 
Heartbeat CPU 2 instructions: 240000000 cycles: 96910833 heartbeat IPC: 2.40621 cumulative IPC: 0.412751 (Simulation time: 0 hr 45 min 3 sec) 
Heartbeat CPU 1 instructions: 260000000 cycles: 97974407 heartbeat IPC: 2.65334 cumulative IPC: 0.612405 (Simulation time: 0 hr 45 min 33 sec) 
Heartbeat CPU 0 instructions: 180000000 cycles: 98597417 heartbeat IPC: 1.82486 cumulative IPC: 1.82561 (Simulation time: 0 hr 45 min 50 sec) 
Heartbeat CPU 3 instructions: 250000003 cycles: 99415272 heartbeat IPC: 2.68285 cumulative IPC: 0.502941 (Simulation time: 0 hr 46 min 13 sec) 
Heartbeat CPU 2 instructions: 250000002 cycles: 100250534 heartbeat IPC: 2.99428 cumulative IPC: 0.49875 (Simulation time: 0 hr 46 min 36 sec) 
Heartbeat CPU 1 instructions: 270000001 cycles: 102497065 heartbeat IPC: 2.21109 cumulative IPC: 0.682946 (Simulation time: 0 hr 47 min 39 sec) 
Heartbeat CPU 3 instructions: 260000000 cycles: 102894559 heartbeat IPC: 2.87415 cumulative IPC: 0.583121 (Simulation time: 0 hr 47 min 50 sec) 
Heartbeat CPU 2 instructions: 260000000 cycles: 103591678 heartbeat IPC: 2.99299 cumulative IPC: 0.579197 (Simulation time: 0 hr 48 min 9 sec) 
Heartbeat CPU 0 instructions: 190000000 cycles: 104075632 heartbeat IPC: 1.82541 cumulative IPC: 1.8256 (Simulation time: 0 hr 48 min 23 sec) 
Heartbeat CPU 1 instructions: 280000000 cycles: 106265979 heartbeat IPC: 2.65328 cumulative IPC: 0.752828 (Simulation time: 0 hr 49 min 24 sec) 
Heartbeat CPU 3 instructions: 270000003 cycles: 106693213 heartbeat IPC: 2.63251 cumulative IPC: 0.656087 (Simulation time: 0 hr 49 min 35 sec) 
Heartbeat CPU 2 instructions: 270000001 cycles: 106932212 heartbeat IPC: 2.99353 cumulative IPC: 0.65462 (Simulation time: 0 hr 49 min 42 sec) 
Heartbeat CPU 0 instructions: 200000000 cycles: 109544152 heartbeat IPC: 1.82865 cumulative IPC: 1.82575 (Simulation time: 0 hr 50 min 54 sec) 

Warmup complete CPU 0 instructions: 200000003 cycles: 109544153 (Simulation time: 0 hr 50 min 54 sec) 
Warmup complete CPU 1 instructions: 288704750 cycles: 109544152 (Simulation time: 0 hr 50 min 54 sec) 
Warmup complete CPU 2 instructions: 277819228 cycles: 109544152 (Simulation time: 0 hr 50 min 54 sec) 
Warmup complete CPU 3 instructions: 276986987 cycles: 109544152 (Simulation time: 0 hr 50 min 54 sec) 

Heartbeat CPU 1 instructions: 290000003 cycles: 110932954 heartbeat IPC: 2.14272 cumulative IPC: 0.93264 (Simulation time: 0 hr 51 min 12 sec) 
Heartbeat CPU 3 instructions: 280000000 cycles: 112141810 heartbeat IPC: 1.83533 cumulative IPC: 1.1599 (Simulation time: 0 hr 51 min 27 sec) 
Heartbeat CPU 2 instructions: 280000000 cycles: 112864219 heartbeat IPC: 1.68577 cumulative IPC: 0.656846 (Simulation time: 0 hr 51 min 35 sec) 
Heartbeat CPU 1 instructions: 300000000 cycles: 121677897 heartbeat IPC: 0.93067 cumulative IPC: 0.930896 (Simulation time: 0 hr 53 min 19 sec) 
Heartbeat CPU 0 instructions: 210000001 cycles: 124381919 heartbeat IPC: 0.673956 cumulative IPC: 0.673956 (Simulation time: 0 hr 53 min 52 sec) 
Heartbeat CPU 3 instructions: 290000002 cycles: 124744849 heartbeat IPC: 0.79346 cumulative IPC: 0.85608 (Simulation time: 0 hr 53 min 57 sec) 
Heartbeat CPU 2 instructions: 290000000 cycles: 127423599 heartbeat IPC: 0.686842 cumulative IPC: 0.681272 (Simulation time: 0 hr 54 min 29 sec) 
Heartbeat CPU 1 instructions: 310000002 cycles: 131356232 heartbeat IPC: 1.03324 cumulative IPC: 0.976305 (Simulation time: 0 hr 55 min 17 sec) 
Heartbeat CPU 0 instructions: 220000000 cycles: 139143357 heartbeat IPC: 0.677441 cumulative IPC: 0.675694 (Simulation time: 0 hr 56 min 51 sec) 
Heartbeat CPU 3 instructions: 300000000 cycles: 139650240 heartbeat IPC: 0.670898 cumulative IPC: 0.764397 (Simulation time: 0 hr 56 min 57 sec) 
Heartbeat CPU 1 instructions: 320000000 cycles: 141194975 heartbeat IPC: 1.01639 cumulative IPC: 0.988766 (Simulation time: 0 hr 57 min 16 sec) 
Heartbeat CPU 2 instructions: 300000000 cycles: 141481640 heartbeat IPC: 0.711337 cumulative IPC: 0.694506 (Simulation time: 0 hr 57 min 19 sec) 
Heartbeat CPU 1 instructions: 330000001 cycles: 151146741 heartbeat IPC: 1.00485 cumulative IPC: 0.992613 (Simulation time: 0 hr 59 min 16 sec) 
Heartbeat CPU 0 instructions: 230000002 cycles: 153947187 heartbeat IPC: 0.675501 cumulative IPC: 0.675629 (Simulation time: 0 hr 59 min 50 sec) 
Heartbeat CPU 3 instructions: 310000000 cycles: 154578896 heartbeat IPC: 0.669853 cumulative IPC: 0.733057 (Simulation time: 0 hr 59 min 57 sec) 
Heartbeat CPU 2 instructions: 310000003 cycles: 155531204 heartbeat IPC: 0.711766 cumulative IPC: 0.699779 (Simulation time: 1 hr 0 min 9 sec) 
Heartbeat CPU 1 instructions: 340000000 cycles: 161257578 heartbeat IPC: 0.989038 cumulative IPC: 0.991914 (Simulation time: 1 hr 1 min 20 sec) 
Heartbeat CPU 3 instructions: 320000000 cycles: 166111830 heartbeat IPC: 0.867082 cumulative IPC: 0.760381 (Simulation time: 1 hr 2 min 23 sec) 
Heartbeat CPU 0 instructions: 240000000 cycles: 168662267 heartbeat IPC: 0.679575 cumulative IPC: 0.676612 (Simulation time: 1 hr 2 min 56 sec) 
Heartbeat CPU 2 instructions: 320000000 cycles: 169509355 heartbeat IPC: 0.715402 cumulative IPC: 0.703421 (Simulation time: 1 hr 3 min 7 sec) 
Heartbeat CPU 1 instructions: 350000003 cycles: 171580731 heartbeat IPC: 0.968697 cumulative IPC: 0.98805 (Simulation time: 1 hr 3 min 33 sec) 
Heartbeat CPU 3 instructions: 330000003 cycles: 176539889 heartbeat IPC: 0.958952 cumulative IPC: 0.791289 (Simulation time: 1 hr 4 min 37 sec) 
Heartbeat CPU 1 instructions: 360000000 cycles: 181593562 heartbeat IPC: 0.998718 cumulative IPC: 0.989533 (Simulation time: 1 hr 5 min 42 sec) 
Heartbeat CPU 2 instructions: 330000000 cycles: 183285442 heartbeat IPC: 0.725896 cumulative IPC: 0.707619 (Simulation time: 1 hr 6 min 5 sec) 
Heartbeat CPU 0 instructions: 250000002 cycles: 183406291 heartbeat IPC: 0.678241 cumulative IPC: 0.676937 (Simulation time: 1 hr 6 min 6 sec) 
Heartbeat CPU 3 instructions: 340000000 cycles: 186970619 heartbeat IPC: 0.958705 cumulative IPC: 0.813843 (Simulation time: 1 hr 6 min 52 sec) 
Heartbeat CPU 1 instructions: 370000003 cycles: 191659309 heartbeat IPC: 0.993469 cumulative IPC: 0.990015 (Simulation time: 1 hr 7 min 53 sec) 
Heartbeat CPU 2 instructions: 340000000 cycles: 196749896 heartbeat IPC: 0.742696 cumulative IPC: 0.713035 (Simulation time: 1 hr 8 min 58 sec) 
Heartbeat CPU 3 instructions: 350000001 cycles: 197437089 heartbeat IPC: 0.955432 cumulative IPC: 0.830704 (Simulation time: 1 hr 9 min 7 sec) 
Heartbeat CPU 0 instructions: 260000000 cycles: 198207403 heartbeat IPC: 0.675625 cumulative IPC: 0.676718 (Simulation time: 1 hr 9 min 17 sec) 
Heartbeat CPU 1 instructions: 380000000 cycles: 201673864 heartbeat IPC: 0.998546 cumulative IPC: 0.990943 (Simulation time: 1 hr 10 min 2 sec) 
Heartbeat CPU 3 instructions: 360000000 cycles: 209073056 heartbeat IPC: 0.859404 cumulative IPC: 0.834059 (Simulation time: 1 hr 11 min 33 sec) 
Heartbeat CPU 2 instructions: 350000003 cycles: 210514220 heartbeat IPC: 0.726516 cumulative IPC: 0.714873 (Simulation time: 1 hr 11 min 51 sec) 
Heartbeat CPU 1 instructions: 390000000 cycles: 212017462 heartbeat IPC: 0.966782 cumulative IPC: 0.988504 (Simulation time: 1 hr 12 min 9 sec) 
Heartbeat CPU 0 instructions: 270000000 cycles: 212983350 heartbeat IPC: 0.676776 cumulative IPC: 0.676726 (Simulation time: 1 hr 12 min 21 sec) 
Heartbeat CPU 3 instructions: 370000003 cycles: 222097712 heartbeat IPC: 0.767775 cumulative IPC: 0.826389 (Simulation time: 1 hr 14 min 12 sec) 
Heartbeat CPU 1 instructions: 400000000 cycles: 222589240 heartbeat IPC: 0.945915 cumulative IPC: 0.984521 (Simulation time: 1 hr 14 min 18 sec) 
Heartbeat CPU 2 instructions: 360000000 cycles: 224428941 heartbeat IPC: 0.718663 cumulative IPC: 0.715332 (Simulation time: 1 hr 14 min 41 sec) 
Heartbeat CPU 0 instructions: 280000000 cycles: 227786305 heartbeat IPC: 0.675541 cumulative IPC: 0.676578 (Simulation time: 1 hr 15 min 21 sec) 
Heartbeat CPU 1 instructions: 410000001 cycles: 232971621 heartbeat IPC: 0.96317 cumulative IPC: 0.982725 (Simulation time: 1 hr 16 min 25 sec) 
Heartbeat CPU 3 instructions: 380000000 cycles: 235127764 heartbeat IPC: 0.767456 cumulative IPC: 0.820274 (Simulation time: 1 hr 16 min 51 sec) 
Heartbeat CPU 2 instructions: 370000003 cycles: 238314561 heartbeat IPC: 0.72017 cumulative IPC: 0.715854 (Simulation time: 1 hr 17 min 30 sec) 
Heartbeat CPU 0 instructions: 290000002 cycles: 242500078 heartbeat IPC: 0.679635 cumulative IPC: 0.676916 (Simulation time: 1 hr 18 min 22 sec) 
Heartbeat CPU 1 instructions: 420000000 cycles: 243057128 heartbeat IPC: 0.991522 cumulative IPC: 0.983389 (Simulation time: 1 hr 18 min 28 sec) 
Heartbeat CPU 3 instructions: 390000003 cycles: 248201422 heartbeat IPC: 0.764897 cumulative IPC: 0.815053 (Simulation time: 1 hr 19 min 29 sec) 
Heartbeat CPU 1 instructions: 430000002 cycles: 257351583 heartbeat IPC: 0.699572 cumulative IPC: 0.955941 (Simulation time: 1 hr 21 min 7 sec) 
Heartbeat CPU 0 instructions: 300000000 cycles: 257428352 heartbeat IPC: 0.66987 cumulative IPC: 0.676205 (Simulation time: 1 hr 21 min 8 sec) 
Heartbeat CPU 3 instructions: 400000000 cycles: 259427421 heartbeat IPC: 0.890789 cumulative IPC: 0.820725 (Simulation time: 1 hr 21 min 30 sec) 
Heartbeat CPU 2 instructions: 380000000 cycles: 262468591 heartbeat IPC: 0.414009 cumulative IPC: 0.668178 (Simulation time: 1 hr 22 min 7 sec) 
Heartbeat CPU 3 instructions: 410000003 cycles: 269630268 heartbeat IPC: 0.980119 cumulative IPC: 0.830884 (Simulation time: 1 hr 23 min 33 sec) 
Heartbeat CPU 1 instructions: 440000000 cycles: 269975511 heartbeat IPC: 0.792146 cumulative IPC: 0.943053 (Simulation time: 1 hr 23 min 37 sec) 
Heartbeat CPU 0 instructions: 310000000 cycles: 272294554 heartbeat IPC: 0.672667 cumulative IPC: 0.675882 (Simulation time: 1 hr 24 min 5 sec) 
Heartbeat CPU 2 instructions: 390000001 cycles: 275438277 heartbeat IPC: 0.771029 cumulative IPC: 0.676219 (Simulation time: 1 hr 24 min 45 sec) 
Heartbeat CPU 3 instructions: 420000000 cycles: 279811439 heartbeat IPC: 0.982205 cumulative IPC: 0.839932 (Simulation time: 1 hr 25 min 41 sec) 
Heartbeat CPU 1 instructions: 450000003 cycles: 280511771 heartbeat IPC: 0.949104 cumulative IPC: 0.943426 (Simulation time: 1 hr 25 min 49 sec) 
Heartbeat CPU 0 instructions: 320000000 cycles: 287073486 heartbeat IPC: 0.676639 cumulative IPC: 0.675945 (Simulation time: 1 hr 27 min 9 sec) 
Heartbeat CPU 2 instructions: 400000000 cycles: 287984149 heartbeat IPC: 0.797075 cumulative IPC: 0.684716 (Simulation time: 1 hr 27 min 20 sec) 
Heartbeat CPU 3 instructions: 430000000 cycles: 290019970 heartbeat IPC: 0.979573 cumulative IPC: 0.847831 (Simulation time: 1 hr 27 min 45 sec) 
Heartbeat CPU 1 instructions: 460000000 cycles: 291105292 heartbeat IPC: 0.943973 cumulative IPC: 0.943458 (Simulation time: 1 hr 27 min 58 sec) 
Heartbeat CPU 3 instructions: 440000000 cycles: 299966015 heartbeat IPC: 1.00542 cumulative IPC: 0.856062 (Simulation time: 1 hr 29 min 44 sec) 
Heartbeat CPU 2 instructions: 410000003 cycles: 300906035 heartbeat IPC: 0.773881 cumulative IPC: 0.690737 (Simulation time: 1 hr 29 min 55 sec) 
Heartbeat CPU 1 instructions: 470000002 cycles: 301785744 heartbeat IPC: 0.93629 cumulative IPC: 0.943059 (Simulation time: 1 hr 30 min 5 sec) 
Heartbeat CPU 0 instructions: 330000000 cycles: 301896125 heartbeat IPC: 0.674644 cumulative IPC: 0.675844 (Simulation time: 1 hr 30 min 7 sec) 
Heartbeat CPU 3 instructions: 450000003 cycles: 309530258 heartbeat IPC: 1.04556 cumulative IPC: 0.865125 (Simulation time: 1 hr 31 min 35 sec) 
Heartbeat CPU 1 instructions: 480000000 cycles: 312867834 heartbeat IPC: 0.902357 cumulative IPC: 0.940841 (Simulation time: 1 hr 32 min 16 sec) 
Heartbeat CPU 2 instructions: 420000000 cycles: 314010884 heartbeat IPC: 0.763076 cumulative IPC: 0.695374 (Simulation time: 1 hr 32 min 30 sec) 
Heartbeat CPU 0 instructions: 340000000 cycles: 316656453 heartbeat IPC: 0.677492 cumulative IPC: 0.675962 (Simulation time: 1 hr 33 min 3 sec) 
Heartbeat CPU 3 instructions: 460000000 cycles: 319857712 heartbeat IPC: 0.968293 cumulative IPC: 0.870191 (Simulation time: 1 hr 33 min 42 sec) 
Heartbeat CPU 1 instructions: 490000000 cycles: 322953702 heartbeat IPC: 0.991486 cumulative IPC: 0.943235 (Simulation time: 1 hr 34 min 21 sec) 
Heartbeat CPU 2 instructions: 430000001 cycles: 326517871 heartbeat IPC: 0.799553 cumulative IPC: 0.701379 (Simulation time: 1 hr 35 min 5 sec) 
Heartbeat CPU 3 instructions: 470000002 cycles: 330157407 heartbeat IPC: 0.970903 cumulative IPC: 0.874893 (Simulation time: 1 hr 35 min 50 sec) 
Heartbeat CPU 0 instructions: 350000000 cycles: 331459332 heartbeat IPC: 0.675544 cumulative IPC: 0.675934 (Simulation time: 1 hr 36 min 6 sec) 
Heartbeat CPU 1 instructions: 500000000 cycles: 332962101 heartbeat IPC: 0.999161 cumulative IPC: 0.94574 (Simulation time: 1 hr 36 min 25 sec) 
Heartbeat CPU 2 instructions: 440000000 cycles: 339076746 heartbeat IPC: 0.79625 cumulative IPC: 0.70657 (Simulation time: 1 hr 37 min 40 sec) 
Heartbeat CPU 3 instructions: 480000000 cycles: 340340578 heartbeat IPC: 0.982012 cumulative IPC: 0.879619 (Simulation time: 1 hr 37 min 56 sec) 
Heartbeat CPU 1 instructions: 510000001 cycles: 343197009 heartbeat IPC: 0.977048 cumulative IPC: 0.947111 (Simulation time: 1 hr 38 min 31 sec) 
Heartbeat CPU 0 instructions: 360000000 cycles: 346247859 heartbeat IPC: 0.6762 cumulative IPC: 0.675951 (Simulation time: 1 hr 39 min 8 sec) 
Heartbeat CPU 3 instructions: 490000001 cycles: 348438641 heartbeat IPC: 1.23486 cumulative IPC: 0.891661 (Simulation time: 1 hr 39 min 35 sec) 
Heartbeat CPU 2 instructions: 450000001 cycles: 352311162 heartbeat IPC: 0.755606 cumulative IPC: 0.709243 (Simulation time: 1 hr 40 min 23 sec) 
Heartbeat CPU 1 instructions: 520000000 cycles: 353941822 heartbeat IPC: 0.930682 cumulative IPC: 0.946389 (Simulation time: 1 hr 40 min 43 sec) 
Heartbeat CPU 3 instructions: 500000000 cycles: 356850222 heartbeat IPC: 1.18884 cumulative IPC: 0.901769 (Simulation time: 1 hr 41 min 18 sec) 
Heartbeat CPU 0 instructions: 370000003 cycles: 361009265 heartbeat IPC: 0.677442 cumulative IPC: 0.676038 (Simulation time: 1 hr 42 min 7 sec) 
Heartbeat CPU 1 instructions: 530000002 cycles: 364442801 heartbeat IPC: 0.952292 cumulative IPC: 0.946632 (Simulation time: 1 hr 42 min 47 sec) 
Heartbeat CPU 2 instructions: 460000000 cycles: 365312024 heartbeat IPC: 0.76918 cumulative IPC: 0.71229 (Simulation time: 1 hr 42 min 57 sec) 
Heartbeat CPU 3 instructions: 510000002 cycles: 366788187 heartbeat IPC: 1.00624 cumulative IPC: 0.905805 (Simulation time: 1 hr 43 min 15 sec) 
Heartbeat CPU 1 instructions: 540000000 cycles: 374988068 heartbeat IPC: 0.948293 cumulative IPC: 0.946698 (Simulation time: 1 hr 44 min 53 sec) 
Heartbeat CPU 3 instructions: 520000000 cycles: 375283885 heartbeat IPC: 1.17707 cumulative IPC: 0.914478 (Simulation time: 1 hr 44 min 57 sec) 
Heartbeat CPU 0 instructions: 380000000 cycles: 375806869 heartbeat IPC: 0.675785 cumulative IPC: 0.676024 (Simulation time: 1 hr 45 min 3 sec) 
Heartbeat CPU 2 instructions: 470000000 cycles: 378488884 heartbeat IPC: 0.758906 cumulative IPC: 0.714574 (Simulation time: 1 hr 45 min 36 sec) 
Heartbeat CPU 3 instructions: 530000000 cycles: 382893146 heartbeat IPC: 1.31419 cumulative IPC: 0.925604 (Simulation time: 1 hr 46 min 29 sec) 
Heartbeat CPU 1 instructions: 550000001 cycles: 386754289 heartbeat IPC: 0.849891 cumulative IPC: 0.942589 (Simulation time: 1 hr 47 min 14 sec) 
Heartbeat CPU 0 instructions: 390000003 cycles: 390561518 heartbeat IPC: 0.677753 cumulative IPC: 0.676115 (Simulation time: 1 hr 47 min 59 sec) 
Heartbeat CPU 2 instructions: 480000000 cycles: 391706582 heartbeat IPC: 0.756561 cumulative IPC: 0.71654 (Simulation time: 1 hr 48 min 13 sec) 
Heartbeat CPU 3 instructions: 540000000 cycles: 392792107 heartbeat IPC: 1.01021 cumulative IPC: 0.928561 (Simulation time: 1 hr 48 min 26 sec) 
Heartbeat CPU 1 instructions: 560000000 cycles: 398306831 heartbeat IPC: 0.86561 cumulative IPC: 0.939509 (Simulation time: 1 hr 49 min 31 sec) 
Heartbeat CPU 3 instructions: 550000000 cycles: 402152505 heartbeat IPC: 1.06833 cumulative IPC: 0.933032 (Simulation time: 1 hr 50 min 16 sec) 
Heartbeat CPU 2 instructions: 490000001 cycles: 405147196 heartbeat IPC: 0.744014 cumulative IPC: 0.71779 (Simulation time: 1 hr 50 min 51 sec) 
Heartbeat CPU 0 instructions: 400000000 cycles: 405462658 heartbeat IPC: 0.671089 cumulative IPC: 0.675862 (Simulation time: 1 hr 50 min 54 sec) 
Heartbeat CPU 1 instructions: 570000003 cycles: 410080155 heartbeat IPC: 0.849378 cumulative IPC: 0.935979 (Simulation time: 1 hr 51 min 48 sec) 
Heartbeat CPU 3 instructions: 560000000 cycles: 411095796 heartbeat IPC: 1.11816 cumulative IPC: 0.938523 (Simulation time: 1 hr 52 min 0 sec) 
Heartbeat CPU 2 instructions: 500000000 cycles: 418382295 heartbeat IPC: 0.755567 cumulative IPC: 0.719408 (Simulation time: 1 hr 53 min 28 sec) 
Heartbeat CPU 3 instructions: 570000000 cycles: 419301318 heartbeat IPC: 1.21869 cumulative IPC: 0.945944 (Simulation time: 1 hr 53 min 40 sec) 
Heartbeat CPU 0 instructions: 410000002 cycles: 420258956 heartbeat IPC: 0.675845 cumulative IPC: 0.675861 (Simulation time: 1 hr 53 min 51 sec) 
Heartbeat CPU 1 instructions: 580000000 cycles: 421061462 heartbeat IPC: 0.910638 cumulative IPC: 0.935085 (Simulation time: 1 hr 54 min 1 sec) 
Heartbeat CPU 3 instructions: 580000000 cycles: 427529431 heartbeat IPC: 1.21535 cumulative IPC: 0.952915 (Simulation time: 1 hr 55 min 19 sec) 
Heartbeat CPU 2 instructions: 510000002 cycles: 431471551 heartbeat IPC: 0.763986 cumulative IPC: 0.721221 (Simulation time: 1 hr 56 min 7 sec) 
Heartbeat CPU 1 instructions: 590000003 cycles: 431806446 heartbeat IPC: 0.930667 cumulative IPC: 0.934938 (Simulation time: 1 hr 56 min 11 sec) 
Heartbeat CPU 0 instructions: 420000000 cycles: 435094584 heartbeat IPC: 0.674053 cumulative IPC: 0.675779 (Simulation time: 1 hr 56 min 51 sec) 
Heartbeat CPU 3 instructions: 590000001 cycles: 435468951 heartbeat IPC: 1.25952 cumulative IPC: 0.960384 (Simulation time: 1 hr 56 min 56 sec) 
Heartbeat CPU 3 instructions: 600000000 cycles: 443017097 heartbeat IPC: 1.32483 cumulative IPC: 0.968633 (Simulation time: 1 hr 58 min 33 sec) 
Heartbeat CPU 1 instructions: 600000000 cycles: 443337063 heartbeat IPC: 0.867256 cumulative IPC: 0.9326 (Simulation time: 1 hr 58 min 37 sec) 
Heartbeat CPU 2 instructions: 520000000 cycles: 449962446 heartbeat IPC: 0.540807 cumulative IPC: 0.711421 (Simulation time: 1 hr 59 min 54 sec) 
Heartbeat CPU 0 instructions: 430000002 cycles: 449968553 heartbeat IPC: 0.672316 cumulative IPC: 0.675627 (Simulation time: 1 hr 59 min 54 sec) 
Heartbeat CPU 3 instructions: 610000001 cycles: 451380819 heartbeat IPC: 1.19564 cumulative IPC: 0.974187 (Simulation time: 2 hr 0 min 11 sec) 
Heartbeat CPU 1 instructions: 610000000 cycles: 456760472 heartbeat IPC: 0.744967 cumulative IPC: 0.925346 (Simulation time: 2 hr 1 min 14 sec) 
Heartbeat CPU 3 instructions: 620000000 cycles: 460201121 heartbeat IPC: 1.13375 cumulative IPC: 0.978201 (Simulation time: 2 hr 1 min 54 sec) 
Heartbeat CPU 0 instructions: 440000000 cycles: 464836196 heartbeat IPC: 0.672601 cumulative IPC: 0.675501 (Simulation time: 2 hr 2 min 50 sec) 
Heartbeat CPU 3 instructions: 630000002 cycles: 468663820 heartbeat IPC: 1.18166 cumulative IPC: 0.982996 (Simulation time: 2 hr 3 min 36 sec) 
Heartbeat CPU 1 instructions: 620000000 cycles: 469751069 heartbeat IPC: 0.769788 cumulative IPC: 0.919736 (Simulation time: 2 hr 3 min 48 sec) 
Heartbeat CPU 0 instructions: 450000000 cycles: 479734658 heartbeat IPC: 0.67121 cumulative IPC: 0.675328 (Simulation time: 2 hr 5 min 30 sec) 
Heartbeat CPU 3 instructions: 640000000 cycles: 479908246 heartbeat IPC: 0.889329 cumulative IPC: 0.980152 (Simulation time: 2 hr 5 min 32 sec) 
Heartbeat CPU 2 instructions: 530000000 cycles: 480235758 heartbeat IPC: 0.330324 cumulative IPC: 0.680298 (Simulation time: 2 hr 5 min 36 sec) 
Heartbeat CPU 1 instructions: 630000000 cycles: 483812557 heartbeat IPC: 0.711162 cumulative IPC: 0.9119 (Simulation time: 2 hr 6 min 18 sec) 
Heartbeat CPU 3 instructions: 650000003 cycles: 488646803 heartbeat IPC: 1.14435 cumulative IPC: 0.983937 (Simulation time: 2 hr 7 min 13 sec) 
Heartbeat CPU 0 instructions: 460000000 cycles: 494562188 heartbeat IPC: 0.674421 cumulative IPC: 0.675293 (Simulation time: 2 hr 8 min 22 sec) 
Heartbeat CPU 3 instructions: 660000000 cycles: 497042887 heartbeat IPC: 1.19103 cumulative IPC: 0.988424 (Simulation time: 2 hr 8 min 50 sec) 
Heartbeat CPU 1 instructions: 640000000 cycles: 498422887 heartbeat IPC: 0.684447 cumulative IPC: 0.903354 (Simulation time: 2 hr 9 min 6 sec) 
Heartbeat CPU 3 instructions: 670000003 cycles: 506157806 heartbeat IPC: 1.0971 cumulative IPC: 0.990922 (Simulation time: 2 hr 10 min 20 sec) 
Heartbeat CPU 2 instructions: 540000000 cycles: 512580064 heartbeat IPC: 0.309173 cumulative IPC: 0.650515 (Simulation time: 2 hr 11 min 15 sec) 
Heartbeat CPU 1 instructions: 650000001 cycles: 513650146 heartbeat IPC: 0.656717 cumulative IPC: 0.894061 (Simulation time: 2 hr 11 min 25 sec) 
Heartbeat CPU 3 instructions: 680000000 cycles: 515125439 heartbeat IPC: 1.11512 cumulative IPC: 0.993668 (Simulation time: 2 hr 11 min 39 sec) 
Heartbeat CPU 3 instructions: 690000000 cycles: 523265512 heartbeat IPC: 1.22849 cumulative IPC: 0.998288 (Simulation time: 2 hr 12 min 54 sec) 
Heartbeat CPU 1 instructions: 660000000 cycles: 527915534 heartbeat IPC: 0.700997 cumulative IPC: 0.887478 (Simulation time: 2 hr 13 min 35 sec) 
Heartbeat CPU 3 instructions: 700000000 cycles: 531561227 heartbeat IPC: 1.20544 cumulative IPC: 1.00236 (Simulation time: 2 hr 14 min 12 sec) 
Heartbeat CPU 0 instructions: 470000002 cycles: 537298282 heartbeat IPC: 0.233994 cumulative IPC: 0.631204 (Simulation time: 2 hr 15 min 9 sec) 
Heartbeat CPU 3 instructions: 710000003 cycles: 538739515 heartbeat IPC: 1.39309 cumulative IPC: 1.00889 (Simulation time: 2 hr 15 min 23 sec) 
Heartbeat CPU 1 instructions: 670000001 cycles: 542214885 heartbeat IPC: 0.699333 cumulative IPC: 0.88126 (Simulation time: 2 hr 15 min 57 sec) 
Heartbeat CPU 2 instructions: 550000002 cycles: 544191220 heartbeat IPC: 0.316344 cumulative IPC: 0.626211 (Simulation time: 2 hr 16 min 11 sec) 
Heartbeat CPU 3 instructions: 720000000 cycles: 548286809 heartbeat IPC: 1.04742 cumulative IPC: 1.00973 (Simulation time: 2 hr 16 min 50 sec) 
Heartbeat CPU 1 instructions: 680000000 cycles: 555472175 heartbeat IPC: 0.754302 cumulative IPC: 0.877485 (Simulation time: 2 hr 17 min 59 sec) 
Heartbeat CPU 3 instructions: 730000000 cycles: 557555298 heartbeat IPC: 1.07892 cumulative IPC: 1.01116 (Simulation time: 2 hr 18 min 20 sec) 
Heartbeat CPU 3 instructions: 740000000 cycles: 566710907 heartbeat IPC: 1.09223 cumulative IPC: 1.01279 (Simulation time: 2 hr 19 min 55 sec) 
Heartbeat CPU 1 instructions: 690000002 cycles: 567940984 heartbeat IPC: 0.802001 cumulative IPC: 0.875432 (Simulation time: 2 hr 20 min 8 sec) 
Heartbeat CPU 2 instructions: 560000000 cycles: 568213379 heartbeat IPC: 0.416282 cumulative IPC: 0.615216 (Simulation time: 2 hr 20 min 11 sec) 
Heartbeat CPU 3 instructions: 750000003 cycles: 575854204 heartbeat IPC: 1.0937 cumulative IPC: 1.01437 (Simulation time: 2 hr 21 min 32 sec) 
Heartbeat CPU 1 instructions: 700000000 cycles: 579265608 heartbeat IPC: 0.883031 cumulative IPC: 0.875615 (Simulation time: 2 hr 22 min 8 sec) 
Heartbeat CPU 2 instructions: 570000003 cycles: 581906977 heartbeat IPC: 0.730268 cumulative IPC: 0.618552 (Simulation time: 2 hr 22 min 34 sec) 
Heartbeat CPU 0 instructions: 480000000 cycles: 583225396 heartbeat IPC: 0.217736 cumulative IPC: 0.591115 (Simulation time: 2 hr 22 min 46 sec) 
Heartbeat CPU 3 instructions: 760000000 cycles: 585057368 heartbeat IPC: 1.08658 cumulative IPC: 1.01577 (Simulation time: 2 hr 23 min 2 sec) 
Heartbeat CPU 3 instructions: 770000002 cycles: 594244743 heartbeat IPC: 1.08845 cumulative IPC: 1.01715 (Simulation time: 2 hr 24 min 33 sec) 
Heartbeat CPU 2 instructions: 580000000 cycles: 595719814 heartbeat IPC: 0.723964 cumulative IPC: 0.621547 (Simulation time: 2 hr 24 min 49 sec) 
Heartbeat CPU 1 instructions: 710000003 cycles: 596742633 heartbeat IPC: 0.57218 cumulative IPC: 0.86473 (Simulation time: 2 hr 24 min 59 sec) 
Heartbeat CPU 3 instructions: 780000000 cycles: 603103528 heartbeat IPC: 1.12882 cumulative IPC: 1.01915 (Simulation time: 2 hr 26 min 5 sec) 
Heartbeat CPU 1 instructions: 720000000 cycles: 608217502 heartbeat IPC: 0.871469 cumulative IPC: 0.864885 (Simulation time: 2 hr 26 min 58 sec) 
Heartbeat CPU 2 instructions: 590000000 cycles: 609635519 heartbeat IPC: 0.718613 cumulative IPC: 0.624247 (Simulation time: 2 hr 27 min 12 sec) 
Heartbeat CPU 3 instructions: 790000002 cycles: 611543988 heartbeat IPC: 1.18477 cumulative IPC: 1.02194 (Simulation time: 2 hr 27 min 32 sec) 
Heartbeat CPU 1 instructions: 730000000 cycles: 619780800 heartbeat IPC: 0.864805 cumulative IPC: 0.864883 (Simulation time: 2 hr 28 min 57 sec) 
Heartbeat CPU 3 instructions: 800000000 cycles: 619993510 heartbeat IPC: 1.1835 cumulative IPC: 1.02461 (Simulation time: 2 hr 28 min 59 sec) 
Heartbeat CPU 2 instructions: 600000000 cycles: 623651359 heartbeat IPC: 0.713478 cumulative IPC: 0.62668 (Simulation time: 2 hr 29 min 36 sec) 
Heartbeat CPU 3 instructions: 810000002 cycles: 628443213 heartbeat IPC: 1.18347 cumulative IPC: 1.0272 (Simulation time: 2 hr 30 min 26 sec) 
Heartbeat CPU 1 instructions: 740000000 cycles: 631415290 heartbeat IPC: 0.859513 cumulative IPC: 0.864764 (Simulation time: 2 hr 30 min 57 sec) 
Heartbeat CPU 0 instructions: 490000000 cycles: 635248193 heartbeat IPC: 0.192223 cumulative IPC: 0.551641 (Simulation time: 2 hr 31 min 37 sec) 
Heartbeat CPU 3 instructions: 820000000 cycles: 636898110 heartbeat IPC: 1.18275 cumulative IPC: 1.02969 (Simulation time: 2 hr 31 min 53 sec) 
Heartbeat CPU 2 instructions: 610000000 cycles: 637704015 heartbeat IPC: 0.711609 cumulative IPC: 0.62894 (Simulation time: 2 hr 32 min 1 sec) 
Heartbeat CPU 1 instructions: 750000001 cycles: 643432895 heartbeat IPC: 0.832113 cumulative IPC: 0.864029 (Simulation time: 2 hr 32 min 53 sec) 
Heartbeat CPU 3 instructions: 830000000 cycles: 649564858 heartbeat IPC: 0.789469 cumulative IPC: 1.02406 (Simulation time: 2 hr 33 min 52 sec) 
Heartbeat CPU 2 instructions: 620000000 cycles: 651535188 heartbeat IPC: 0.723004 cumulative IPC: 0.63134 (Simulation time: 2 hr 34 min 12 sec) 
Heartbeat CPU 1 instructions: 760000000 cycles: 655000882 heartbeat IPC: 0.864455 cumulative IPC: 0.864038 (Simulation time: 2 hr 34 min 45 sec) 
Heartbeat CPU 3 instructions: 840000000 cycles: 661253646 heartbeat IPC: 0.855521 cumulative IPC: 1.02049 (Simulation time: 2 hr 35 min 45 sec) 
Heartbeat CPU 2 instructions: 630000003 cycles: 665314986 heartbeat IPC: 0.7257 cumulative IPC: 0.63368 (Simulation time: 2 hr 36 min 25 sec) 
Heartbeat CPU 1 instructions: 770000002 cycles: 666894013 heartbeat IPC: 0.840822 cumulative IPC: 0.863542 (Simulation time: 2 hr 36 min 40 sec) 
Heartbeat CPU 3 instructions: 850000000 cycles: 672933083 heartbeat IPC: 0.856206 cumulative IPC: 1.01708 (Simulation time: 2 hr 37 min 39 sec) 
Heartbeat CPU 1 instructions: 780000000 cycles: 679009961 heartbeat IPC: 0.825358 cumulative IPC: 0.86273 (Simulation time: 2 hr 38 min 37 sec) 
Heartbeat CPU 2 instructions: 640000000 cycles: 679090223 heartbeat IPC: 0.72594 cumulative IPC: 0.635911 (Simulation time: 2 hr 38 min 38 sec) 
Heartbeat CPU 3 instructions: 860000000 cycles: 683516241 heartbeat IPC: 0.944898 cumulative IPC: 1.01575 (Simulation time: 2 hr 39 min 19 sec) 
Heartbeat CPU 3 instructions: 870000003 cycles: 691273345 heartbeat IPC: 1.28914 cumulative IPC: 1.0194 (Simulation time: 2 hr 40 min 37 sec) 
Heartbeat CPU 0 instructions: 500000000 cycles: 691373097 heartbeat IPC: 0.178174 cumulative IPC: 0.515615 (Simulation time: 2 hr 40 min 38 sec) 
Heartbeat CPU 1 instructions: 790000000 cycles: 692661202 heartbeat IPC: 0.732534 cumulative IPC: 0.859682 (Simulation time: 2 hr 40 min 51 sec) 
Heartbeat CPU 2 instructions: 650000000 cycles: 693580286 heartbeat IPC: 0.690128 cumulative IPC: 0.637256 (Simulation time: 2 hr 41 min 1 sec) 
Heartbeat CPU 3 instructions: 880000000 cycles: 698760540 heartbeat IPC: 1.33561 cumulative IPC: 1.02342 (Simulation time: 2 hr 41 min 54 sec) 
Heartbeat CPU 1 instructions: 800000000 cycles: 705518550 heartbeat IPC: 0.777765 cumulative IPC: 0.857915 (Simulation time: 2 hr 43 min 4 sec) 
Heartbeat CPU 3 instructions: 890000002 cycles: 707215992 heartbeat IPC: 1.18267 cumulative IPC: 1.02567 (Simulation time: 2 hr 43 min 18 sec) 
Heartbeat CPU 2 instructions: 660000000 cycles: 707798256 heartbeat IPC: 0.703335 cumulative IPC: 0.638827 (Simulation time: 2 hr 43 min 23 sec) 
Heartbeat CPU 3 instructions: 900000000 cycles: 718432249 heartbeat IPC: 0.891563 cumulative IPC: 1.0232 (Simulation time: 2 hr 44 min 50 sec) 
Heartbeat CPU 1 instructions: 810000001 cycles: 720866705 heartbeat IPC: 0.651544 cumulative IPC: 0.852734 (Simulation time: 2 hr 45 min 12 sec) 
Heartbeat CPU 2 instructions: 670000000 cycles: 722888707 heartbeat IPC: 0.662671 cumulative IPC: 0.639413 (Simulation time: 2 hr 45 min 29 sec) 
Heartbeat CPU 3 instructions: 910000000 cycles: 728410336 heartbeat IPC: 1.0022 cumulative IPC: 1.02286 (Simulation time: 2 hr 46 min 23 sec) 
Heartbeat CPU 1 instructions: 820000000 cycles: 734001716 heartbeat IPC: 0.761324 cumulative IPC: 0.850811 (Simulation time: 2 hr 47 min 18 sec) 
Heartbeat CPU 2 instructions: 680000000 cycles: 736483284 heartbeat IPC: 0.735587 cumulative IPC: 0.641499 (Simulation time: 2 hr 47 min 42 sec) 
Heartbeat CPU 3 instructions: 920000000 cycles: 738101028 heartbeat IPC: 1.03192 cumulative IPC: 1.023 (Simulation time: 2 hr 47 min 57 sec) 
Heartbeat CPU 1 instructions: 830000002 cycles: 746638039 heartbeat IPC: 0.79137 cumulative IPC: 0.849632 (Simulation time: 2 hr 49 min 21 sec) 
Heartbeat CPU 3 instructions: 930000001 cycles: 747877493 heartbeat IPC: 1.02286 cumulative IPC: 1.023 (Simulation time: 2 hr 49 min 33 sec) 
Heartbeat CPU 2 instructions: 690000000 cycles: 750047680 heartbeat IPC: 0.737224 cumulative IPC: 0.643526 (Simulation time: 2 hr 49 min 54 sec) 
Heartbeat CPU 0 instructions: 510000002 cycles: 753552945 heartbeat IPC: 0.160824 cumulative IPC: 0.48136 (Simulation time: 2 hr 50 min 29 sec) 
Heartbeat CPU 3 instructions: 940000000 cycles: 757613386 heartbeat IPC: 1.02713 cumulative IPC: 1.02306 (Simulation time: 2 hr 51 min 9 sec) 
Heartbeat CPU 1 instructions: 840000000 cycles: 758968571 heartbeat IPC: 0.810995 cumulative IPC: 0.848898 (Simulation time: 2 hr 51 min 22 sec) 
Heartbeat CPU 2 instructions: 700000000 cycles: 763628845 heartbeat IPC: 0.736314 cumulative IPC: 0.645453 (Simulation time: 2 hr 52 min 8 sec) 
Heartbeat CPU 3 instructions: 950000003 cycles: 767293569 heartbeat IPC: 1.03304 cumulative IPC: 1.02321 (Simulation time: 2 hr 52 min 44 sec) 
Heartbeat CPU 1 instructions: 850000002 cycles: 771162806 heartbeat IPC: 0.82006 cumulative IPC: 0.848367 (Simulation time: 2 hr 53 min 22 sec) 
Heartbeat CPU 3 instructions: 960000000 cycles: 777008753 heartbeat IPC: 1.02932 cumulative IPC: 1.02329 (Simulation time: 2 hr 54 min 18 sec) 
Heartbeat CPU 2 instructions: 710000001 cycles: 777132569 heartbeat IPC: 0.740537 cumulative IPC: 0.647376 (Simulation time: 2 hr 54 min 20 sec) 
Heartbeat CPU 1 instructions: 860000000 cycles: 783475787 heartbeat IPC: 0.812151 cumulative IPC: 0.847705 (Simulation time: 2 hr 55 min 26 sec) 
Heartbeat CPU 3 instructions: 970000002 cycles: 786801304 heartbeat IPC: 1.02118 cumulative IPC: 1.02326 (Simulation time: 2 hr 55 min 58 sec) 
Heartbeat CPU 2 instructions: 720000000 cycles: 790620864 heartbeat IPC: 0.741383 cumulative IPC: 0.649238 (Simulation time: 2 hr 56 min 38 sec) 
Heartbeat CPU 1 instructions: 870000000 cycles: 794810233 heartbeat IPC: 0.882266 cumulative IPC: 0.848277 (Simulation time: 2 hr 57 min 24 sec) 
Heartbeat CPU 3 instructions: 980000000 cycles: 796499803 heartbeat IPC: 1.03109 cumulative IPC: 1.02337 (Simulation time: 2 hr 57 min 42 sec) 
Heartbeat CPU 0 instructions: 520000000 cycles: 804818715 heartbeat IPC: 0.195062 cumulative IPC: 0.46025 (Simulation time: 2 hr 59 min 6 sec) 
Heartbeat CPU 3 instructions: 990000001 cycles: 806310874 heartbeat IPC: 1.01926 cumulative IPC: 1.02332 (Simulation time: 2 hr 59 min 21 sec) 
Heartbeat CPU 1 instructions: 880000000 cycles: 808048066 heartbeat IPC: 0.755411 cumulative IPC: 0.846517 (Simulation time: 2 hr 59 min 39 sec) 
Heartbeat CPU 2 instructions: 730000000 cycles: 812127048 heartbeat IPC: 0.464983 cumulative IPC: 0.643598 (Simulation time: 3 hr 0 min 18 sec) 
Heartbeat CPU 3 instructions: 1000000000 cycles: 817016134 heartbeat IPC: 0.93412 cumulative IPC: 1.02197 (Simulation time: 3 hr 1 min 15 sec) 
Heartbeat CPU 0 instructions: 530000000 cycles: 820761419 heartbeat IPC: 0.627246 cumulative IPC: 0.463993 (Simulation time: 3 hr 2 min 3 sec) 
Heartbeat CPU 1 instructions: 890000000 cycles: 823453594 heartbeat IPC: 0.649118 cumulative IPC: 0.842257 (Simulation time: 3 hr 2 min 36 sec) 
Heartbeat CPU 3 instructions: 1010000000 cycles: 824919146 heartbeat IPC: 1.26534 cumulative IPC: 1.02466 (Simulation time: 3 hr 2 min 55 sec) 
Heartbeat CPU 2 instructions: 740000000 cycles: 829406638 heartbeat IPC: 0.578717 cumulative IPC: 0.64204 (Simulation time: 3 hr 3 min 48 sec) 
Heartbeat CPU 3 instructions: 1020000000 cycles: 834682489 heartbeat IPC: 1.02424 cumulative IPC: 1.02465 (Simulation time: 3 hr 4 min 52 sec) 
Heartbeat CPU 0 instructions: 540000000 cycles: 835248981 heartbeat IPC: 0.690247 cumulative IPC: 0.46851 (Simulation time: 3 hr 4 min 59 sec) 
Heartbeat CPU 1 instructions: 900000000 cycles: 835493521 heartbeat IPC: 0.83057 cumulative IPC: 0.842063 (Simulation time: 3 hr 5 min 2 sec) 
Heartbeat CPU 2 instructions: 750000003 cycles: 842157064 heartbeat IPC: 0.784288 cumulative IPC: 0.644516 (Simulation time: 3 hr 6 min 38 sec) 
Heartbeat CPU 3 instructions: 1030000002 cycles: 843741621 heartbeat IPC: 1.10386 cumulative IPC: 1.02563 (Simulation time: 3 hr 6 min 59 sec) 
Heartbeat CPU 1 instructions: 910000002 cycles: 845609543 heartbeat IPC: 0.988531 cumulative IPC: 0.844076 (Simulation time: 3 hr 7 min 29 sec) 
Heartbeat CPU 0 instructions: 550000000 cycles: 849713564 heartbeat IPC: 0.691344 cumulative IPC: 0.472865 (Simulation time: 3 hr 8 min 36 sec) 
Heartbeat CPU 3 instructions: 1040000000 cycles: 852825066 heartbeat IPC: 1.1009 cumulative IPC: 1.02655 (Simulation time: 3 hr 9 min 29 sec) 
Heartbeat CPU 2 instructions: 760000000 cycles: 854864884 heartbeat IPC: 0.786917 cumulative IPC: 0.646944 (Simulation time: 3 hr 10 min 1 sec) 
Heartbeat CPU 1 instructions: 920000000 cycles: 855597449 heartbeat IPC: 1.00121 cumulative IPC: 0.84618 (Simulation time: 3 hr 10 min 12 sec) 
Heartbeat CPU 3 instructions: 1050000001 cycles: 861908063 heartbeat IPC: 1.10096 cumulative IPC: 1.02745 (Simulation time: 3 hr 11 min 47 sec) 
Heartbeat CPU 0 instructions: 560000000 cycles: 864249674 heartbeat IPC: 0.687942 cumulative IPC: 0.477007 (Simulation time: 3 hr 12 min 18 sec) 
Heartbeat CPU 1 instructions: 930000000 cycles: 865639213 heartbeat IPC: 0.995841 cumulative IPC: 0.848167 (Simulation time: 3 hr 12 min 36 sec) 
Heartbeat CPU 2 instructions: 770000001 cycles: 867494531 heartbeat IPC: 0.791788 cumulative IPC: 0.649357 (Simulation time: 3 hr 12 min 59 sec) 
Heartbeat CPU 3 instructions: 1060000000 cycles: 870945125 heartbeat IPC: 1.10655 cumulative IPC: 1.02838 (Simulation time: 3 hr 13 min 44 sec) 
Heartbeat CPU 1 instructions: 940000000 cycles: 875492619 heartbeat IPC: 1.01488 cumulative IPC: 0.850312 (Simulation time: 3 hr 14 min 43 sec) 
Heartbeat CPU 0 instructions: 570000000 cycles: 878696558 heartbeat IPC: 0.692191 cumulative IPC: 0.481049 (Simulation time: 3 hr 15 min 25 sec) 
Heartbeat CPU 3 instructions: 1070000000 cycles: 880016711 heartbeat IPC: 1.10234 cumulative IPC: 1.02926 (Simulation time: 3 hr 15 min 42 sec) 
Heartbeat CPU 2 instructions: 780000000 cycles: 880173091 heartbeat IPC: 0.788733 cumulative IPC: 0.651651 (Simulation time: 3 hr 15 min 44 sec) 
Heartbeat CPU 1 instructions: 950000001 cycles: 885554349 heartbeat IPC: 0.993865 cumulative IPC: 0.852173 (Simulation time: 3 hr 17 min 0 sec) 
Heartbeat CPU 3 instructions: 1080000000 cycles: 888745128 heartbeat IPC: 1.14568 cumulative IPC: 1.03056 (Simulation time: 3 hr 17 min 45 sec) 
Heartbeat CPU 2 instructions: 790000000 cycles: 893133550 heartbeat IPC: 0.771578 cumulative IPC: 0.653634 (Simulation time: 3 hr 18 min 46 sec) 
Heartbeat CPU 0 instructions: 580000000 cycles: 893200231 heartbeat IPC: 0.689481 cumulative IPC: 0.484907 (Simulation time: 3 hr 18 min 47 sec) 
Heartbeat CPU 1 instructions: 960000000 cycles: 896120294 heartbeat IPC: 0.946437 cumulative IPC: 0.85344 (Simulation time: 3 hr 19 min 25 sec) 
Heartbeat CPU 3 instructions: 1090000002 cycles: 897045982 heartbeat IPC: 1.2047 cumulative IPC: 1.0324 (Simulation time: 3 hr 19 min 38 sec) 
Heartbeat CPU 3 instructions: 1100000000 cycles: 905346141 heartbeat IPC: 1.2048 cumulative IPC: 1.03419 (Simulation time: 3 hr 21 min 28 sec) 
Heartbeat CPU 2 instructions: 800000000 cycles: 906254479 heartbeat IPC: 0.762141 cumulative IPC: 0.655421 (Simulation time: 3 hr 21 min 40 sec) 
Heartbeat CPU 1 instructions: 970000001 cycles: 906646472 heartbeat IPC: 0.950013 cumulative IPC: 0.854715 (Simulation time: 3 hr 21 min 45 sec) 
Heartbeat CPU 0 instructions: 590000001 cycles: 907705310 heartbeat IPC: 0.689414 cumulative IPC: 0.488623 (Simulation time: 3 hr 21 min 59 sec) 
Heartbeat CPU 3 instructions: 1110000003 cycles: 913668887 heartbeat IPC: 1.20153 cumulative IPC: 1.03593 (Simulation time: 3 hr 23 min 18 sec) 
Heartbeat CPU 1 instructions: 980000000 cycles: 916940359 heartbeat IPC: 0.97145 cumulative IPC: 0.856203 (Simulation time: 3 hr 24 min 1 sec) 
Heartbeat CPU 2 instructions: 810000003 cycles: 919370631 heartbeat IPC: 0.762419 cumulative IPC: 0.657154 (Simulation time: 3 hr 24 min 33 sec) 
Heartbeat CPU 3 instructions: 1120000000 cycles: 921999962 heartbeat IPC: 1.20032 cumulative IPC: 1.03761 (Simulation time: 3 hr 25 min 8 sec) 
Heartbeat CPU 0 instructions: 600000000 cycles: 922229179 heartbeat IPC: 0.688522 cumulative IPC: 0.492196 (Simulation time: 3 hr 25 min 11 sec) 
Heartbeat CPU 1 instructions: 990000003 cycles: 927909168 heartbeat IPC: 0.911676 cumulative IPC: 0.856947 (Simulation time: 3 hr 26 min 17 sec) 
Heartbeat CPU 2 instructions: 820000000 cycles: 932609716 heartbeat IPC: 0.755339 cumulative IPC: 0.658733 (Simulation time: 3 hr 27 min 25 sec) 
Heartbeat CPU 3 instructions: 1130000000 cycles: 934627739 heartbeat IPC: 0.791905 cumulative IPC: 1.03385 (Simulation time: 3 hr 27 min 56 sec) 
Heartbeat CPU 0 instructions: 610000001 cycles: 936759318 heartbeat IPC: 0.688225 cumulative IPC: 0.495639 (Simulation time: 3 hr 28 min 25 sec) 
Heartbeat CPU 1 instructions: 1000000000 cycles: 937436100 heartbeat IPC: 1.04966 cumulative IPC: 0.859164 (Simulation time: 3 hr 28 min 34 sec) 
Heartbeat CPU 2 instructions: 830000002 cycles: 944855911 heartbeat IPC: 0.81658 cumulative IPC: 0.661048 (Simulation time: 3 hr 30 min 9 sec) 
Heartbeat CPU 3 instructions: 1140000000 cycles: 946310492 heartbeat IPC: 0.855963 cumulative IPC: 1.03137 (Simulation time: 3 hr 30 min 28 sec) 
Heartbeat CPU 1 instructions: 1010000000 cycles: 947020908 heartbeat IPC: 1.04332 cumulative IPC: 0.861272 (Simulation time: 3 hr 30 min 37 sec) 
Heartbeat CPU 0 instructions: 620000000 cycles: 951296595 heartbeat IPC: 0.687887 cumulative IPC: 0.498959 (Simulation time: 3 hr 31 min 32 sec) 
Heartbeat CPU 1 instructions: 1020000000 cycles: 956645603 heartbeat IPC: 1.03899 cumulative IPC: 0.863291 (Simulation time: 3 hr 32 min 40 sec) 
Heartbeat CPU 2 instructions: 840000000 cycles: 957202762 heartbeat IPC: 0.809923 cumulative IPC: 0.663216 (Simulation time: 3 hr 32 min 47 sec) 
Heartbeat CPU 3 instructions: 1150000002 cycles: 957963359 heartbeat IPC: 0.858158 cumulative IPC: 1.02899 (Simulation time: 3 hr 32 min 57 sec) 
Heartbeat CPU 0 instructions: 630000000 cycles: 965855375 heartbeat IPC: 0.686871 cumulative IPC: 0.502154 (Simulation time: 3 hr 34 min 38 sec) 
Heartbeat CPU 1 instructions: 1030000001 cycles: 966275985 heartbeat IPC: 1.03838 cumulative IPC: 0.865259 (Simulation time: 3 hr 34 min 43 sec) 
Heartbeat CPU 3 instructions: 1160000000 cycles: 968347715 heartbeat IPC: 0.962987 cumulative IPC: 1.02819 (Simulation time: 3 hr 35 min 9 sec) 
Heartbeat CPU 2 instructions: 850000001 cycles: 970076761 heartbeat IPC: 0.77676 cumulative IPC: 0.664915 (Simulation time: 3 hr 35 min 30 sec) 
Heartbeat CPU 3 instructions: 1170000001 cycles: 976077107 heartbeat IPC: 1.29376 cumulative IPC: 1.03056 (Simulation time: 3 hr 36 min 48 sec) 
Heartbeat CPU 1 instructions: 1040000000 cycles: 978104976 heartbeat IPC: 0.845381 cumulative IPC: 0.864989 (Simulation time: 3 hr 37 min 15 sec) 
Heartbeat CPU 0 instructions: 640000000 cycles: 980688508 heartbeat IPC: 0.674166 cumulative IPC: 0.505083 (Simulation time: 3 hr 37 min 49 sec) 
Heartbeat CPU 2 instructions: 860000000 cycles: 983033878 heartbeat IPC: 0.771777 cumulative IPC: 0.6665 (Simulation time: 3 hr 38 min 21 sec) 
Heartbeat CPU 3 instructions: 1180000000 cycles: 983598651 heartbeat IPC: 1.32951 cumulative IPC: 1.03313 (Simulation time: 3 hr 38 min 28 sec) 
Heartbeat CPU 1 instructions: 1050000001 cycles: 988555029 heartbeat IPC: 0.956933 cumulative IPC: 0.866082 (Simulation time: 3 hr 39 min 35 sec) 
Heartbeat CPU 3 instructions: 1190000001 cycles: 992501307 heartbeat IPC: 1.12326 cumulative IPC: 1.03404 (Simulation time: 3 hr 40 min 20 sec) 
Heartbeat CPU 0 instructions: 650000002 cycles: 995233706 heartbeat IPC: 0.687512 cumulative IPC: 0.508079 (Simulation time: 3 hr 40 min 52 sec) 
Heartbeat CPU 2 instructions: 870000001 cycles: 997435046 heartbeat IPC: 0.694388 cumulative IPC: 0.666952 (Simulation time: 3 hr 41 min 17 sec) 
Heartbeat CPU 1 instructions: 1060000000 cycles: 1001641574 heartbeat IPC: 0.764144 cumulative IPC: 0.864586 (Simulation time: 3 hr 42 min 3 sec) 
Heartbeat CPU 3 instructions: 1200000000 cycles: 1003488927 heartbeat IPC: 0.910115 cumulative IPC: 1.03252 (Simulation time: 3 hr 42 min 24 sec) 
Heartbeat CPU 0 instructions: 660000000 cycles: 1009850742 heartbeat IPC: 0.684133 cumulative IPC: 0.510937 (Simulation time: 3 hr 43 min 41 sec) 
Heartbeat CPU 3 instructions: 1210000002 cycles: 1013316972 heartbeat IPC: 1.0175 cumulative IPC: 1.03235 (Simulation time: 3 hr 44 min 23 sec) 
Heartbeat CPU 1 instructions: 1070000002 cycles: 1014567748 heartbeat IPC: 0.773624 cumulative IPC: 0.863287 (Simulation time: 3 hr 44 min 38 sec) 
Heartbeat CPU 2 instructions: 880000000 cycles: 1018053782 heartbeat IPC: 0.484996 cumulative IPC: 0.662823 (Simulation time: 3 hr 45 min 20 sec) 
Heartbeat CPU 3 instructions: 1220000000 cycles: 1023078448 heartbeat IPC: 1.02444 cumulative IPC: 1.03227 (Simulation time: 3 hr 46 min 21 sec) 
Heartbeat CPU 0 instructions: 670000003 cycles: 1024491707 heartbeat IPC: 0.683015 cumulative IPC: 0.513691 (Simulation time: 3 hr 46 min 38 sec) 
Heartbeat CPU 1 instructions: 1080000000 cycles: 1027677657 heartbeat IPC: 0.762782 cumulative IPC: 0.861852 (Simulation time: 3 hr 47 min 16 sec) 
Heartbeat CPU 3 instructions: 1230000000 cycles: 1032850883 heartbeat IPC: 1.02329 cumulative IPC: 1.03217 (Simulation time: 3 hr 48 min 19 sec) 
Heartbeat CPU 2 instructions: 890000002 cycles: 1038404225 heartbeat IPC: 0.49139 cumulative IPC: 0.659067 (Simulation time: 3 hr 49 min 26 sec) 
Heartbeat CPU 0 instructions: 680000000 cycles: 1039137912 heartbeat IPC: 0.68277 cumulative IPC: 0.516355 (Simulation time: 3 hr 49 min 35 sec) 
Heartbeat CPU 1 instructions: 1090000003 cycles: 1040681749 heartbeat IPC: 0.768989 cumulative IPC: 0.860555 (Simulation time: 3 hr 49 min 53 sec) 
Heartbeat CPU 3 instructions: 1240000000 cycles: 1042623870 heartbeat IPC: 1.02323 cumulative IPC: 1.03208 (Simulation time: 3 hr 50 min 17 sec) 
Heartbeat CPU 3 instructions: 1250000000 cycles: 1052409216 heartbeat IPC: 1.02194 cumulative IPC: 1.03197 (Simulation time: 3 hr 52 min 15 sec) 
Heartbeat CPU 1 instructions: 1100000000 cycles: 1053570293 heartbeat IPC: 0.775883 cumulative IPC: 0.859399 (Simulation time: 3 hr 52 min 30 sec) 
Heartbeat CPU 0 instructions: 690000000 cycles: 1053773700 heartbeat IPC: 0.683257 cumulative IPC: 0.518942 (Simulation time: 3 hr 52 min 33 sec) 
Heartbeat CPU 2 instructions: 900000000 cycles: 1057760223 heartbeat IPC: 0.516636 cumulative IPC: 0.656159 (Simulation time: 3 hr 53 min 26 sec) 
Heartbeat CPU 3 instructions: 1260000000 cycles: 1062161954 heartbeat IPC: 1.02535 cumulative IPC: 1.03191 (Simulation time: 3 hr 54 min 20 sec) 
Heartbeat CPU 1 instructions: 1110000002 cycles: 1064936245 heartbeat IPC: 0.879821 cumulative IPC: 0.859642 (Simulation time: 3 hr 54 min 55 sec) 
Heartbeat CPU 0 instructions: 700000000 cycles: 1068369655 heartbeat IPC: 0.685121 cumulative IPC: 0.521471 (Simulation time: 3 hr 55 min 39 sec) 
Heartbeat CPU 3 instructions: 1270000003 cycles: 1071947331 heartbeat IPC: 1.02193 cumulative IPC: 1.03181 (Simulation time: 3 hr 56 min 25 sec) 
Heartbeat CPU 2 instructions: 910000000 cycles: 1072157917 heartbeat IPC: 0.694556 cumulative IPC: 0.656734 (Simulation time: 3 hr 56 min 28 sec) 
Heartbeat CPU 1 instructions: 1120000000 cycles: 1074895204 heartbeat IPC: 1.00412 cumulative IPC: 0.861133 (Simulation time: 3 hr 57 min 3 sec) 
Finished CPU 3 instructions: 1000000002 cycles: 969255278 cumulative IPC: 1.03172 (Simulation time: 3 hr 57 min 53 sec) 
Heartbeat CPU 3 instructions: 1280000000 cycles: 1081755026 heartbeat IPC: 1.01961 cumulative IPC: 1.03168 (Simulation time: 3 hr 58 min 30 sec) 
Heartbeat CPU 0 instructions: 710000001 cycles: 1082952264 heartbeat IPC: 0.685748 cumulative IPC: 0.523932 (Simulation time: 3 hr 58 min 46 sec) 
Heartbeat CPU 1 instructions: 1130000003 cycles: 1084743104 heartbeat IPC: 1.01545 cumulative IPC: 0.862691 (Simulation time: 3 hr 59 min 9 sec) 
Heartbeat CPU 2 instructions: 920000000 cycles: 1086286908 heartbeat IPC: 0.707765 cumulative IPC: 0.657472 (Simulation time: 3 hr 59 min 29 sec) 
Heartbeat CPU 3 instructions: 1290000001 cycles: 1092782079 heartbeat IPC: 0.906861 cumulative IPC: 1.03028 (Simulation time: 4 hr 0 min 43 sec) 
Heartbeat CPU 0 instructions: 720000000 cycles: 1097592809 heartbeat IPC: 0.683035 cumulative IPC: 0.52629 (Simulation time: 4 hr 1 min 37 sec) 
Heartbeat CPU 3 instructions: 1300000000 cycles: 1100947944 heartbeat IPC: 1.22461 cumulative IPC: 1.03188 (Simulation time: 4 hr 2 min 14 sec) 
Heartbeat CPU 2 instructions: 930000000 cycles: 1102155777 heartbeat IPC: 0.630165 cumulative IPC: 0.657035 (Simulation time: 4 hr 2 min 28 sec) 
Heartbeat CPU 1 instructions: 1140000000 cycles: 1103948545 heartbeat IPC: 0.520686 cumulative IPC: 0.856086 (Simulation time: 4 hr 2 min 50 sec) 
Heartbeat CPU 3 instructions: 1310000000 cycles: 1109907465 heartbeat IPC: 1.11613 cumulative IPC: 1.03264 (Simulation time: 4 hr 4 min 0 sec) 
Heartbeat CPU 0 instructions: 730000001 cycles: 1112242862 heartbeat IPC: 0.682591 cumulative IPC: 0.528574 (Simulation time: 4 hr 4 min 27 sec) 
Heartbeat CPU 1 instructions: 1150000003 cycles: 1115941128 heartbeat IPC: 0.833849 cumulative IPC: 0.855821 (Simulation time: 4 hr 5 min 13 sec) 
Heartbeat CPU 2 instructions: 940000000 cycles: 1117573259 heartbeat IPC: 0.648614 cumulative IPC: 0.656906 (Simulation time: 4 hr 5 min 35 sec) 
Heartbeat CPU 3 instructions: 1320000000 cycles: 1119501926 heartbeat IPC: 1.04227 cumulative IPC: 1.03273 (Simulation time: 4 hr 6 min 0 sec) 
Heartbeat CPU 1 instructions: 1160000000 cycles: 1125800971 heartbeat IPC: 1.01421 cumulative IPC: 0.857357 (Simulation time: 4 hr 7 min 22 sec) 
Heartbeat CPU 0 instructions: 740000000 cycles: 1126897689 heartbeat IPC: 0.682369 cumulative IPC: 0.530789 (Simulation time: 4 hr 7 min 36 sec) 
Heartbeat CPU 3 instructions: 1330000002 cycles: 1128693173 heartbeat IPC: 1.08799 cumulative IPC: 1.03323 (Simulation time: 4 hr 7 min 59 sec) 
Heartbeat CPU 2 instructions: 950000000 cycles: 1131778736 heartbeat IPC: 0.703954 cumulative IPC: 0.65756 (Simulation time: 4 hr 8 min 39 sec) 
Heartbeat CPU 1 instructions: 1170000001 cycles: 1135458576 heartbeat IPC: 1.03545 cumulative IPC: 0.859034 (Simulation time: 4 hr 9 min 27 sec) 
Heartbeat CPU 3 instructions: 1340000000 cycles: 1137867063 heartbeat IPC: 1.09005 cumulative IPC: 1.03373 (Simulation time: 4 hr 9 min 59 sec) 
Heartbeat CPU 0 instructions: 750000000 cycles: 1141531332 heartbeat IPC: 0.683357 cumulative IPC: 0.532952 (Simulation time: 4 hr 10 min 48 sec) 
Heartbeat CPU 1 instructions: 1180000000 cycles: 1145216163 heartbeat IPC: 1.02484 cumulative IPC: 0.860596 (Simulation time: 4 hr 11 min 36 sec) 
Heartbeat CPU 2 instructions: 960000000 cycles: 1146042042 heartbeat IPC: 0.7011 cumulative IPC: 0.658159 (Simulation time: 4 hr 11 min 46 sec) 
Heartbeat CPU 3 instructions: 1350000003 cycles: 1147001034 heartbeat IPC: 1.09481 cumulative IPC: 1.03427 (Simulation time: 4 hr 11 min 59 sec) 
Heartbeat CPU 1 instructions: 1190000002 cycles: 1155141426 heartbeat IPC: 1.00753 cumulative IPC: 0.861991 (Simulation time: 4 hr 13 min 44 sec) 
Heartbeat CPU 0 instructions: 760000000 cycles: 1156170181 heartbeat IPC: 0.683114 cumulative IPC: 0.535053 (Simulation time: 4 hr 13 min 57 sec) 
Heartbeat CPU 3 instructions: 1360000000 cycles: 1156187466 heartbeat IPC: 1.08856 cumulative IPC: 1.03475 (Simulation time: 4 hr 13 min 58 sec) 
Heartbeat CPU 2 instructions: 970000001 cycles: 1160313607 heartbeat IPC: 0.700694 cumulative IPC: 0.658737 (Simulation time: 4 hr 14 min 51 sec) 
Heartbeat CPU 3 instructions: 1370000003 cycles: 1165388835 heartbeat IPC: 1.0868 cumulative IPC: 1.0352 (Simulation time: 4 hr 15 min 56 sec) 
Heartbeat CPU 1 instructions: 1200000000 cycles: 1165419057 heartbeat IPC: 0.972987 cumulative IPC: 0.863071 (Simulation time: 4 hr 15 min 56 sec) 
Heartbeat CPU 0 instructions: 770000002 cycles: 1170838606 heartbeat IPC: 0.681737 cumulative IPC: 0.53708 (Simulation time: 4 hr 17 min 1 sec) 
Heartbeat CPU 3 instructions: 1380000000 cycles: 1173898037 heartbeat IPC: 1.1752 cumulative IPC: 1.03632 (Simulation time: 4 hr 17 min 38 sec) 
Heartbeat CPU 2 instructions: 980000000 cycles: 1174819700 heartbeat IPC: 0.689365 cumulative IPC: 0.659154 (Simulation time: 4 hr 17 min 49 sec) 
Heartbeat CPU 1 instructions: 1210000001 cycles: 1176588122 heartbeat IPC: 0.89533 cumulative IPC: 0.863409 (Simulation time: 4 hr 18 min 10 sec) 
Heartbeat CPU 3 instructions: 1390000001 cycles: 1182371329 heartbeat IPC: 1.18018 cumulative IPC: 1.03746 (Simulation time: 4 hr 19 min 17 sec) 
Heartbeat CPU 0 instructions: 780000000 cycles: 1186023080 heartbeat IPC: 0.658567 cumulative IPC: 0.538794 (Simulation time: 4 hr 20 min 1 sec) 
Heartbeat CPU 1 instructions: 1220000000 cycles: 1188005765 heartbeat IPC: 0.875837 cumulative IPC: 0.86354 (Simulation time: 4 hr 20 min 25 sec) 
Heartbeat CPU 2 instructions: 990000000 cycles: 1189871449 heartbeat IPC: 0.664375 cumulative IPC: 0.659227 (Simulation time: 4 hr 20 min 48 sec) 
Heartbeat CPU 3 instructions: 1400000000 cycles: 1190797420 heartbeat IPC: 1.18679 cumulative IPC: 1.03862 (Simulation time: 4 hr 20 min 58 sec) 
Heartbeat CPU 1 instructions: 1230000002 cycles: 1199148407 heartbeat IPC: 0.897453 cumulative IPC: 0.863887 (Simulation time: 4 hr 22 min 40 sec) 
Heartbeat CPU 3 instructions: 1410000000 cycles: 1199268966 heartbeat IPC: 1.18042 cumulative IPC: 1.03972 (Simulation time: 4 hr 22 min 42 sec) 
Heartbeat CPU 0 instructions: 790000000 cycles: 1200559569 heartbeat IPC: 0.687924 cumulative IPC: 0.540781 (Simulation time: 4 hr 22 min 58 sec) 
Heartbeat CPU 2 instructions: 1000000000 cycles: 1204511675 heartbeat IPC: 0.68305 cumulative IPC: 0.659545 (Simulation time: 4 hr 23 min 44 sec) 
Heartbeat CPU 3 instructions: 1420000000 cycles: 1210419578 heartbeat IPC: 0.896812 cumulative IPC: 1.03828 (Simulation time: 4 hr 24 min 49 sec) 
Heartbeat CPU 1 instructions: 1240000000 cycles: 1210893512 heartbeat IPC: 0.851418 cumulative IPC: 0.863754 (Simulation time: 4 hr 24 min 55 sec) 
Heartbeat CPU 0 instructions: 800000000 cycles: 1215083408 heartbeat IPC: 0.688523 cumulative IPC: 0.542722 (Simulation time: 4 hr 25 min 44 sec) 
Heartbeat CPU 2 instructions: 1010000000 cycles: 1218687148 heartbeat IPC: 0.705444 cumulative IPC: 0.660132 (Simulation time: 4 hr 26 min 26 sec) 
Heartbeat CPU 1 instructions: 1250000000 cycles: 1221453528 heartbeat IPC: 0.946968 cumulative IPC: 0.864545 (Simulation time: 4 hr 26 min 59 sec) 
Heartbeat CPU 3 instructions: 1430000002 cycles: 1222196599 heartbeat IPC: 0.849111 cumulative IPC: 1.03627 (Simulation time: 4 hr 27 min 8 sec) 
Heartbeat CPU 0 instructions: 810000001 cycles: 1229636445 heartbeat IPC: 0.687142 cumulative IPC: 0.544598 (Simulation time: 4 hr 28 min 36 sec) 
Heartbeat CPU 1 instructions: 1260000000 cycles: 1231773610 heartbeat IPC: 0.968985 cumulative IPC: 0.865505 (Simulation time: 4 hr 29 min 1 sec) 
Heartbeat CPU 2 instructions: 1020000000 cycles: 1232670288 heartbeat IPC: 0.715147 cumulative IPC: 0.660817 (Simulation time: 4 hr 29 min 12 sec) 
Heartbeat CPU 3 instructions: 1440000000 cycles: 1233972048 heartbeat IPC: 0.849224 cumulative IPC: 1.03432 (Simulation time: 4 hr 29 min 27 sec) 
Heartbeat CPU 1 instructions: 1270000000 cycles: 1242146235 heartbeat IPC: 0.964076 cumulative IPC: 0.866408 (Simulation time: 4 hr 31 min 4 sec) 
Heartbeat CPU 0 instructions: 820000000 cycles: 1244189011 heartbeat IPC: 0.687164 cumulative IPC: 0.546426 (Simulation time: 4 hr 31 min 28 sec) 
Heartbeat CPU 3 instructions: 1450000003 cycles: 1245717369 heartbeat IPC: 0.851403 cumulative IPC: 1.03242 (Simulation time: 4 hr 31 min 46 sec) 
Heartbeat CPU 2 instructions: 1030000003 cycles: 1246622235 heartbeat IPC: 0.716746 cumulative IPC: 0.661503 (Simulation time: 4 hr 31 min 57 sec) 
Heartbeat CPU 1 instructions: 1280000000 cycles: 1253831624 heartbeat IPC: 0.85577 cumulative IPC: 0.866299 (Simulation time: 4 hr 33 min 21 sec) 
Heartbeat CPU 3 instructions: 1460000000 cycles: 1254565371 heartbeat IPC: 1.1302 cumulative IPC: 1.03318 (Simulation time: 4 hr 33 min 29 sec) 
Heartbeat CPU 0 instructions: 830000000 cycles: 1258774831 heartbeat IPC: 0.685597 cumulative IPC: 0.548193 (Simulation time: 4 hr 34 min 21 sec) 
Heartbeat CPU 2 instructions: 1040000000 cycles: 1261581278 heartbeat IPC: 0.668492 cumulative IPC: 0.661594 (Simulation time: 4 hr 34 min 56 sec) 
Heartbeat CPU 3 instructions: 1470000003 cycles: 1262177897 heartbeat IPC: 1.31362 cumulative IPC: 1.03503 (Simulation time: 4 hr 35 min 3 sec) 
Finished CPU 1 instructions: 1000000002 cycles: 1154213554 cumulative IPC: 0.866391 (Simulation time: 4 hr 35 min 23 sec) 
Heartbeat CPU 1 instructions: 1290000000 cycles: 1265404634 heartbeat IPC: 0.864079 cumulative IPC: 0.866277 (Simulation time: 4 hr 35 min 43 sec) 
Heartbeat CPU 3 instructions: 1480000000 cycles: 1269850063 heartbeat IPC: 1.30341 cumulative IPC: 1.03681 (Simulation time: 4 hr 36 min 36 sec) 
Heartbeat CPU 0 instructions: 840000000 cycles: 1273377313 heartbeat IPC: 0.684815 cumulative IPC: 0.549907 (Simulation time: 4 hr 37 min 15 sec) 
Heartbeat CPU 3 instructions: 1490000001 cycles: 1281250884 heartbeat IPC: 0.87713 cumulative IPC: 1.03525 (Simulation time: 4 hr 38 min 36 sec) 
Heartbeat CPU 1 instructions: 1300000000 cycles: 1282139934 heartbeat IPC: 0.597539 cumulative IPC: 0.862441 (Simulation time: 4 hr 38 min 46 sec) 
Heartbeat CPU 2 instructions: 1050000000 cycles: 1287510628 heartbeat IPC: 0.385663 cumulative IPC: 0.65552 (Simulation time: 4 hr 39 min 55 sec) 
Heartbeat CPU 0 instructions: 850000002 cycles: 1288104498 heartbeat IPC: 0.679017 cumulative IPC: 0.55152 (Simulation time: 4 hr 40 min 3 sec) 
Heartbeat CPU 3 instructions: 1500000000 cycles: 1291335897 heartbeat IPC: 0.99157 cumulative IPC: 1.03488 (Simulation time: 4 hr 40 min 45 sec) 
Heartbeat CPU 1 instructions: 1310000000 cycles: 1294035535 heartbeat IPC: 0.840647 cumulative IPC: 0.862223 (Simulation time: 4 hr 41 min 24 sec) 
Heartbeat CPU 2 instructions: 1060000000 cycles: 1300491323 heartbeat IPC: 0.770375 cumulative IPC: 0.656772 (Simulation time: 4 hr 43 min 1 sec) 
Heartbeat CPU 3 instructions: 1510000002 cycles: 1301122552 heartbeat IPC: 1.0218 cumulative IPC: 1.03477 (Simulation time: 4 hr 43 min 9 sec) 
Heartbeat CPU 0 instructions: 860000000 cycles: 1302683839 heartbeat IPC: 0.685902 cumulative IPC: 0.553162 (Simulation time: 4 hr 43 min 29 sec) 
Heartbeat CPU 1 instructions: 1320000000 cycles: 1304557396 heartbeat IPC: 0.950402 cumulative IPC: 0.862999 (Simulation time: 4 hr 43 min 54 sec) 
Heartbeat CPU 3 instructions: 1520000000 cycles: 1310935399 heartbeat IPC: 1.01907 cumulative IPC: 1.03464 (Simulation time: 4 hr 45 min 26 sec) 
Heartbeat CPU 2 instructions: 1070000000 cycles: 1313550900 heartbeat IPC: 0.765722 cumulative IPC: 0.657954 (Simulation time: 4 hr 46 min 2 sec) 
Heartbeat CPU 1 instructions: 1330000002 cycles: 1315135297 heartbeat IPC: 0.945367 cumulative IPC: 0.863722 (Simulation time: 4 hr 46 min 24 sec) 
Heartbeat CPU 0 instructions: 870000001 cycles: 1317213627 heartbeat IPC: 0.688241 cumulative IPC: 0.554788 (Simulation time: 4 hr 46 min 55 sec) 
Heartbeat CPU 3 instructions: 1530000000 cycles: 1320723639 heartbeat IPC: 1.02163 cumulative IPC: 1.03454 (Simulation time: 4 hr 47 min 44 sec) 
Heartbeat CPU 1 instructions: 1340000000 cycles: 1325631254 heartbeat IPC: 0.952748 cumulative IPC: 0.86449 (Simulation time: 4 hr 48 min 53 sec) 
Heartbeat CPU 2 instructions: 1080000000 cycles: 1326760627 heartbeat IPC: 0.757018 cumulative IPC: 0.659029 (Simulation time: 4 hr 49 min 7 sec) 
Heartbeat CPU 3 instructions: 1540000000 cycles: 1330466339 heartbeat IPC: 1.02641 cumulative IPC: 1.03447 (Simulation time: 4 hr 49 min 56 sec) 
Heartbeat CPU 0 instructions: 880000000 cycles: 1331774079 heartbeat IPC: 0.686792 cumulative IPC: 0.55636 (Simulation time: 4 hr 50 min 15 sec) 
Heartbeat CPU 1 instructions: 1350000002 cycles: 1336042412 heartbeat IPC: 0.960508 cumulative IPC: 0.865305 (Simulation time: 4 hr 51 min 21 sec) 
Heartbeat CPU 2 instructions: 1090000002 cycles: 1340122927 heartbeat IPC: 0.748374 cumulative IPC: 0.659999 (Simulation time: 4 hr 52 min 26 sec) 
Heartbeat CPU 3 instructions: 1550000003 cycles: 1340312662 heartbeat IPC: 1.01561 cumulative IPC: 1.03432 (Simulation time: 4 hr 52 min 29 sec) 
Heartbeat CPU 0 instructions: 890000001 cycles: 1346359511 heartbeat IPC: 0.685616 cumulative IPC: 0.557884 (Simulation time: 4 hr 53 min 48 sec) 
Heartbeat CPU 1 instructions: 1360000000 cycles: 1346568236 heartbeat IPC: 0.950044 cumulative IPC: 0.866026 (Simulation time: 4 hr 53 min 50 sec) 
Heartbeat CPU 3 instructions: 1560000000 cycles: 1350104985 heartbeat IPC: 1.02121 cumulative IPC: 1.03422 (Simulation time: 4 hr 54 min 36 sec) 
Heartbeat CPU 2 instructions: 1100000000 cycles: 1353425425 heartbeat IPC: 0.751738 cumulative IPC: 0.66098 (Simulation time: 4 hr 55 min 18 sec) 
Heartbeat CPU 1 instructions: 1370000003 cycles: 1356987602 heartbeat IPC: 0.959752 cumulative IPC: 0.866809 (Simulation time: 4 hr 56 min 4 sec) 
Heartbeat CPU 3 instructions: 1570000002 cycles: 1359867356 heartbeat IPC: 1.02434 cumulative IPC: 1.03414 (Simulation time: 4 hr 56 min 42 sec) 
Heartbeat CPU 0 instructions: 900000000 cycles: 1360947386 heartbeat IPC: 0.685501 cumulative IPC: 0.559372 (Simulation time: 4 hr 56 min 58 sec) 
Heartbeat CPU 2 instructions: 1110000002 cycles: 1366737117 heartbeat IPC: 0.751219 cumulative IPC: 0.661936 (Simulation time: 4 hr 58 min 21 sec) 
Heartbeat CPU 1 instructions: 1380000000 cycles: 1367497886 heartbeat IPC: 0.951449 cumulative IPC: 0.867516 (Simulation time: 4 hr 58 min 33 sec) 
Heartbeat CPU 3 instructions: 1580000000 cycles: 1369666148 heartbeat IPC: 1.02053 cumulative IPC: 1.03404 (Simulation time: 4 hr 59 min 2 sec) 
Heartbeat CPU 0 instructions: 910000003 cycles: 1375536345 heartbeat IPC: 0.68545 cumulative IPC: 0.560825 (Simulation time: 5 hr 0 min 8 sec) 
Heartbeat CPU 1 instructions: 1390000000 cycles: 1379411034 heartbeat IPC: 0.839409 cumulative IPC: 0.867253 (Simulation time: 5 hr 0 min 56 sec) 
Heartbeat CPU 3 instructions: 1590000003 cycles: 1379734891 heartbeat IPC: 0.993173 cumulative IPC: 1.03371 (Simulation time: 5 hr 1 min 0 sec) 
Heartbeat CPU 2 instructions: 1120000000 cycles: 1381059270 heartbeat IPC: 0.698219 cumulative IPC: 0.662344 (Simulation time: 5 hr 1 min 16 sec) 
Heartbeat CPU 3 instructions: 1600000000 cycles: 1387734335 heartbeat IPC: 1.25009 cumulative IPC: 1.03507 (Simulation time: 5 hr 2 min 38 sec) 
Heartbeat CPU 0 instructions: 920000000 cycles: 1390179118 heartbeat IPC: 0.682931 cumulative IPC: 0.562221 (Simulation time: 5 hr 3 min 7 sec) 
Heartbeat CPU 1 instructions: 1400000000 cycles: 1391965319 heartbeat IPC: 0.796541 cumulative IPC: 0.86656 (Simulation time: 5 hr 3 min 28 sec) 
Heartbeat CPU 2 instructions: 1130000003 cycles: 1395308868 heartbeat IPC: 0.701774 cumulative IPC: 0.662781 (Simulation time: 5 hr 4 min 7 sec) 
Heartbeat CPU 3 instructions: 1610000003 cycles: 1397623511 heartbeat IPC: 1.01121 cumulative IPC: 1.03488 (Simulation time: 5 hr 4 min 36 sec) 
Heartbeat CPU 1 instructions: 1410000003 cycles: 1402798965 heartbeat IPC: 0.923051 cumulative IPC: 0.867033 (Simulation time: 5 hr 5 min 43 sec) 
Heartbeat CPU 0 instructions: 930000002 cycles: 1404791727 heartbeat IPC: 0.684341 cumulative IPC: 0.563599 (Simulation time: 5 hr 6 min 9 sec) 
Heartbeat CPU 3 instructions: 1620000000 cycles: 1406803701 heartbeat IPC: 1.0893 cumulative IPC: 1.03527 (Simulation time: 5 hr 6 min 35 sec) 
Heartbeat CPU 2 instructions: 1140000000 cycles: 1408066706 heartbeat IPC: 0.783832 cumulative IPC: 0.663971 (Simulation time: 5 hr 6 min 52 sec) 
Heartbeat CPU 1 instructions: 1420000000 cycles: 1412711291 heartbeat IPC: 1.00884 cumulative IPC: 0.868112 (Simulation time: 5 hr 7 min 52 sec) 
Heartbeat CPU 3 instructions: 1630000003 cycles: 1415975726 heartbeat IPC: 1.09027 cumulative IPC: 1.03566 (Simulation time: 5 hr 8 min 35 sec) 
Heartbeat CPU 0 instructions: 940000000 cycles: 1419385520 heartbeat IPC: 0.685223 cumulative IPC: 0.564954 (Simulation time: 5 hr 9 min 20 sec) 
Heartbeat CPU 2 instructions: 1150000002 cycles: 1420538098 heartbeat IPC: 0.801835 cumulative IPC: 0.665282 (Simulation time: 5 hr 9 min 35 sec) 
Heartbeat CPU 1 instructions: 1430000001 cycles: 1422481585 heartbeat IPC: 1.02351 cumulative IPC: 0.869269 (Simulation time: 5 hr 10 min 0 sec) 
Heartbeat CPU 3 instructions: 1640000000 cycles: 1425129652 heartbeat IPC: 1.09243 cumulative IPC: 1.03605 (Simulation time: 5 hr 10 min 35 sec) 
Heartbeat CPU 1 instructions: 1440000000 cycles: 1432447262 heartbeat IPC: 1.00344 cumulative IPC: 0.870279 (Simulation time: 5 hr 12 min 11 sec) 
Heartbeat CPU 2 instructions: 1160000000 cycles: 1433007189 heartbeat IPC: 0.801983 cumulative IPC: 0.66657 (Simulation time: 5 hr 12 min 18 sec) 
Heartbeat CPU 0 instructions: 950000001 cycles: 1433970547 heartbeat IPC: 0.685635 cumulative IPC: 0.566283 (Simulation time: 5 hr 12 min 30 sec) 
Heartbeat CPU 3 instructions: 1650000002 cycles: 1434327745 heartbeat IPC: 1.08718 cumulative IPC: 1.03641 (Simulation time: 5 hr 12 min 35 sec) 
Heartbeat CPU 1 instructions: 1450000000 cycles: 1442477606 heartbeat IPC: 0.996975 cumulative IPC: 0.871233 (Simulation time: 5 hr 14 min 21 sec) 
Heartbeat CPU 3 instructions: 1660000000 cycles: 1443513130 heartbeat IPC: 1.08869 cumulative IPC: 1.03677 (Simulation time: 5 hr 14 min 34 sec) 
Heartbeat CPU 2 instructions: 1170000001 cycles: 1445563699 heartbeat IPC: 0.7964 cumulative IPC: 0.66779 (Simulation time: 5 hr 15 min 0 sec) 
Heartbeat CPU 0 instructions: 960000000 cycles: 1448553575 heartbeat IPC: 0.685729 cumulative IPC: 0.567584 (Simulation time: 5 hr 15 min 37 sec) 
Heartbeat CPU 3 instructions: 1670000002 cycles: 1452422917 heartbeat IPC: 1.12236 cumulative IPC: 1.03733 (Simulation time: 5 hr 16 min 23 sec) 
Heartbeat CPU 1 instructions: 1460000000 cycles: 1452641487 heartbeat IPC: 0.983876 cumulative IPC: 0.872085 (Simulation time: 5 hr 16 min 26 sec) 
Heartbeat CPU 2 instructions: 1180000000 cycles: 1458703574 heartbeat IPC: 0.761042 cumulative IPC: 0.668698 (Simulation time: 5 hr 17 min 39 sec) 
Heartbeat CPU 3 instructions: 1680000000 cycles: 1460872341 heartbeat IPC: 1.18351 cumulative IPC: 1.03825 (Simulation time: 5 hr 18 min 5 sec) 
Heartbeat CPU 0 instructions: 970000001 cycles: 1463154943 heartbeat IPC: 0.684867 cumulative IPC: 0.568849 (Simulation time: 5 hr 18 min 34 sec) 
Heartbeat CPU 1 instructions: 1470000002 cycles: 1463255935 heartbeat IPC: 0.942112 cumulative IPC: 0.872634 (Simulation time: 5 hr 18 min 35 sec) 
Heartbeat CPU 3 instructions: 1690000000 cycles: 1469295491 heartbeat IPC: 1.1872 cumulative IPC: 1.03917 (Simulation time: 5 hr 19 min 46 sec) 
Heartbeat CPU 1 instructions: 1480000000 cycles: 1475718433 heartbeat IPC: 0.802407 cumulative IPC: 0.871994 (Simulation time: 5 hr 20 min 58 sec) 
Heartbeat CPU 0 instructions: 980000000 cycles: 1477780434 heartbeat IPC: 0.683738 cumulative IPC: 0.570077 (Simulation time: 5 hr 21 min 22 sec) 
Heartbeat CPU 3 instructions: 1700000000 cycles: 1477790337 heartbeat IPC: 1.17718 cumulative IPC: 1.04003 (Simulation time: 5 hr 21 min 22 sec) 
Heartbeat CPU 2 instructions: 1190000001 cycles: 1481722726 heartbeat IPC: 0.434421 cumulative IPC: 0.664768 (Simulation time: 5 hr 22 min 6 sec) 
Heartbeat CPU 3 instructions: 1710000000 cycles: 1486243627 heartbeat IPC: 1.18297 cumulative IPC: 1.0409 (Simulation time: 5 hr 22 min 57 sec) 
Heartbeat CPU 1 instructions: 1490000003 cycles: 1488318042 heartbeat IPC: 0.793676 cumulative IPC: 0.871278 (Simulation time: 5 hr 23 min 17 sec) 
Heartbeat CPU 0 instructions: 990000003 cycles: 1492444522 heartbeat IPC: 0.681938 cumulative IPC: 0.571263 (Simulation time: 5 hr 24 min 0 sec) 
Heartbeat CPU 3 instructions: 1720000000 cycles: 1498928424 heartbeat IPC: 0.788345 cumulative IPC: 1.0386 (Simulation time: 5 hr 25 min 10 sec) 
Heartbeat CPU 1 instructions: 1500000000 cycles: 1500671276 heartbeat IPC: 0.809504 cumulative IPC: 0.870729 (Simulation time: 5 hr 25 min 29 sec) 
Heartbeat CPU 0 instructions: 1000000000 cycles: 1507118796 heartbeat IPC: 0.681464 cumulative IPC: 0.57242 (Simulation time: 5 hr 26 min 39 sec) 
[...]
Heartbeat CPU 1 instructions: 1660000000 cycles: 1697654289 heartbeat IPC: 0.740707 cumulative IPC: 0.863476 (Simulation time: 6 hr 3 min 11 sec) 
Heartbeat CPU 0 instructions: 1130000000 cycles: 1698140569 heartbeat IPC: 0.682052 cumulative IPC: 0.585422 (Simulation time: 6 hr 3 min 16 sec) 
Heartbeat CPU 3 instructions: 1930000000 cycles: 1700979987 heartbeat IPC: 1.16321 cumulative IPC: 1.03869 (Simulation time: 6 hr 3 min 48 sec) 
Heartbeat CPU 3 instructions: 1940000000 cycles: 1710619095 heartbeat IPC: 1.03744 cumulative IPC: 1.03869 (Simulation time: 6 hr 5 min 37 sec) 
Heartbeat CPU 1 instructions: 1670000002 cycles: 1711563137 heartbeat IPC: 0.718967 cumulative IPC: 0.862222 (Simulation time: 6 hr 5 min 47 sec) 
Heartbeat CPU 2 instructions: 1320000000 cycles: 1711795064 heartbeat IPC: 0.684386 cumulative IPC: 0.650448 (Simulation time: 6 hr 5 min 50 sec) 
Heartbeat CPU 0 instructions: 1140000000 cycles: 1712816632 heartbeat IPC: 0.681382 cumulative IPC: 0.586301 (Simulation time: 6 hr 6 min 1 sec) 
Heartbeat CPU 3 instructions: 1950000003 cycles: 1720474293 heartbeat IPC: 1.01469 cumulative IPC: 1.03854 (Simulation time: 6 hr 7 min 23 sec) 
Heartbeat CPU 1 instructions: 1680000000 cycles: 1725771115 heartbeat IPC: 0.70383 cumulative IPC: 0.860829 (Simulation time: 6 hr 8 min 26 sec) 
Heartbeat CPU 2 instructions: 1330000002 cycles: 1726070515 heartbeat IPC: 0.700503 cumulative IPC: 0.65089 (Simulation time: 6 hr 8 min 29 sec) 
Heartbeat CPU 3 instructions: 1960000000 cycles: 1726611950 heartbeat IPC: 1.62929 cumulative IPC: 1.04078 (Simulation time: 6 hr 8 min 36 sec) 
Heartbeat CPU 0 instructions: 1150000002 cycles: 1727612574 heartbeat IPC: 0.675861 cumulative IPC: 0.58712 (Simulation time: 6 hr 8 min 49 sec) 
Heartbeat CPU 3 instructions: 1970000003 cycles: 1732755907 heartbeat IPC: 1.62762 cumulative IPC: 1.043 (Simulation time: 6 hr 9 min 53 sec) 
Heartbeat CPU 1 instructions: 1690000001 cycles: 1737022938 heartbeat IPC: 0.888745 cumulative IPC: 0.861022 (Simulation time: 6 hr 10 min 48 sec) 
Heartbeat CPU 3 instructions: 1980000000 cycles: 1738890234 heartbeat IPC: 1.63017 cumulative IPC: 1.04521 (Simulation time: 6 hr 11 min 12 sec) 
Heartbeat CPU 2 instructions: 1340000000 cycles: 1739513816 heartbeat IPC: 0.743865 cumulative IPC: 0.651657 (Simulation time: 6 hr 11 min 20 sec) 
Heartbeat CPU 0 instructions: 1160000000 cycles: 1742305844 heartbeat IPC: 0.680584 cumulative IPC: 0.587961 (Simulation time: 6 hr 11 min 56 sec) 
Heartbeat CPU 3 instructions: 1990000002 cycles: 1745066503 heartbeat IPC: 1.6191 cumulative IPC: 1.04738 (Simulation time: 6 hr 12 min 31 sec) 
Heartbeat CPU 1 instructions: 1700000000 cycles: 1748181052 heartbeat IPC: 0.896209 cumulative IPC: 0.861262 (Simulation time: 6 hr 13 min 11 sec) 
*** Reached end of trace for Core: 3 Repeating trace: /scratch/user/djimenez/champsim-traces/speccpu2006/xz//481.wrf-196B.champsimtrace.xz
Heartbeat CPU 3 instructions: 2000000000 cycles: 1751201928 heartbeat IPC: 1.62988 cumulative IPC: 1.04956 (Simulation time: 6 hr 13 min 49 sec) 
Heartbeat CPU 2 instructions: 1350000001 cycles: 1752545147 heartbeat IPC: 0.767381 cumulative IPC: 0.652575 (Simulation time: 6 hr 14 min 5 sec) 
Heartbeat CPU 0 instructions: 1170000002 cycles: 1756999076 heartbeat IPC: 0.680586 cumulative IPC: 0.588787 (Simulation time: 6 hr 15 min 0 sec) 
Heartbeat CPU 3 instructions: 2010000001 cycles: 1758028927 heartbeat IPC: 1.46477 cumulative IPC: 1.05128 (Simulation time: 6 hr 15 min 13 sec) 
Heartbeat CPU 1 instructions: 1710000002 cycles: 1759177205 heartbeat IPC: 0.909409 cumulative IPC: 0.861583 (Simulation time: 6 hr 15 min 28 sec) 
Heartbeat CPU 3 instructions: 2020000000 cycles: 1764836610 heartbeat IPC: 1.46893 cumulative IPC: 1.05299 (Simulation time: 6 hr 16 min 38 sec) 
Heartbeat CPU 2 instructions: 1360000000 cycles: 1765443858 heartbeat IPC: 0.775271 cumulative IPC: 0.65353 (Simulation time: 6 hr 16 min 45 sec) 
Heartbeat CPU 1 instructions: 1720000000 cycles: 1769997784 heartbeat IPC: 0.924165 cumulative IPC: 0.861991 (Simulation time: 6 hr 17 min 40 sec) 
Heartbeat CPU 0 instructions: 1180000000 cycles: 1771748435 heartbeat IPC: 0.677995 cumulative IPC: 0.589579 (Simulation time: 6 hr 18 min 1 sec) 
Heartbeat CPU 3 instructions: 2030000000 cycles: 1771840308 heartbeat IPC: 1.42782 cumulative IPC: 1.05457 (Simulation time: 6 hr 18 min 3 sec) 
Heartbeat CPU 2 instructions: 1370000001 cycles: 1778623605 heartbeat IPC: 0.75874 cumulative IPC: 0.654361 (Simulation time: 6 hr 19 min 25 sec) 
Heartbeat CPU 3 instructions: 2040000000 cycles: 1778805807 heartbeat IPC: 1.43565 cumulative IPC: 1.05616 (Simulation time: 6 hr 19 min 27 sec) 
Heartbeat CPU 1 instructions: 1730000002 cycles: 1780804066 heartbeat IPC: 0.925388 cumulative IPC: 0.8624 (Simulation time: 6 hr 19 min 51 sec) 
Heartbeat CPU 3 instructions: 2050000001 cycles: 1785688230 heartbeat IPC: 1.45298 cumulative IPC: 1.05779 (Simulation time: 6 hr 20 min 52 sec) 
Heartbeat CPU 0 instructions: 1190000001 cycles: 1786475584 heartbeat IPC: 0.679018 cumulative IPC: 0.590364 (Simulation time: 6 hr 21 min 2 sec) 
Heartbeat CPU 1 instructions: 1740000000 cycles: 1791154109 heartbeat IPC: 0.966179 cumulative IPC: 0.863039 (Simulation time: 6 hr 22 min 1 sec) 
Heartbeat CPU 2 instructions: 1380000000 cycles: 1791864498 heartbeat IPC: 0.755236 cumulative IPC: 0.655155 (Simulation time: 6 hr 22 min 10 sec) 
Heartbeat CPU 3 instructions: 2060000000 cycles: 1792494776 heartbeat IPC: 1.46917 cumulative IPC: 1.05946 (Simulation time: 6 hr 22 min 18 sec) 
Heartbeat CPU 3 instructions: 2070000001 cycles: 1799311142 heartbeat IPC: 1.46706 cumulative IPC: 1.0611 (Simulation time: 6 hr 23 min 44 sec) 
Heartbeat CPU 0 instructions: 1200000000 cycles: 1801258108 heartbeat IPC: 0.676474 cumulative IPC: 0.591116 (Simulation time: 6 hr 24 min 8 sec) 
Finished CPU 0 instructions: 1000000001 cycles: 1691713972 cumulative IPC: 0.591116 (Simulation time: 6 hr 24 min 8 sec) 

CPU 0 Branch Prediction Accuracy: 99.6502% MPKI: 0.666081

CPU 1 Branch Prediction Accuracy: 99.7056% MPKI: 0.0391442

CPU 2 Branch Prediction Accuracy: 99.9998% MPKI: 6.90737e-05

CPU 3 Branch Prediction Accuracy: 99.2264% MPKI: 0.309416

ChampSim completed all CPUs

Total Simulation Statistics (not including warmup)

CPU 0 cumulative IPC: 0.591116 instructions: 1000000001 cycles: 1691713972
L1D TOTAL     ACCESS:  367913003  HIT:  358360678  MISS:    9552325
L1D LOAD      ACCESS:  188791624  HIT:  179344653  MISS:    9446971
L1D RFO       ACCESS:  179121379  HIT:  179016025  MISS:     105354
L1D PREFETCH  ACCESS:          0  HIT:          0  MISS:          0
L1D WRITEBACK ACCESS:          0  HIT:          0  MISS:          0
L1I TOTAL     ACCESS:  360550150  HIT:  360550022  MISS:        128
L1I LOAD      ACCESS:  360550150  HIT:  360550022  MISS:        128
L1I RFO       ACCESS:          0  HIT:          0  MISS:          0
L1I PREFETCH  ACCESS:          0  HIT:          0  MISS:          0
L1I WRITEBACK ACCESS:          0  HIT:          0  MISS:          0
L2C TOTAL     ACCESS:   21646090  HIT:   20317946  MISS:    1328144
L2C LOAD      ACCESS:    9447086  HIT:    8310194  MISS:    1136892
L2C RFO       ACCESS:     105352  HIT:      12667  MISS:      92685
L2C PREFETCH  ACCESS:   11639320  HIT:   11541474  MISS:      97846
L2C WRITEBACK ACCESS:     454332  HIT:     453611  MISS:        721
LLC TOTAL     ACCESS:    5281972  HIT:    3342328  MISS:    1939644
LLC LOAD      ACCESS:    1132988  HIT:     438346  MISS:     694642
LLC RFO       ACCESS:      92675  HIT:       6323  MISS:      86352
LLC PREFETCH  ACCESS:    3799299  HIT:    2699518  MISS:    1099781
LLC WRITEBACK ACCESS:     257010  HIT:     198141  MISS:      58869

CPU 1 cumulative IPC: 0.863727 instructions: 1461179323 cycles: 1691713973
L1D TOTAL     ACCESS:  249028678  HIT:  176866836  MISS:   72161842
L1D LOAD      ACCESS:   98583923  HIT:   87641468  MISS:   10942455
L1D RFO       ACCESS:  150444755  HIT:   89225368  MISS:   61219387
L1D PREFETCH  ACCESS:          0  HIT:          0  MISS:          0
L1D WRITEBACK ACCESS:          0  HIT:          0  MISS:          0
L1I TOTAL     ACCESS:  345462975  HIT:  345462975  MISS:          0
L1I LOAD      ACCESS:  345462975  HIT:  345462975  MISS:          0
L1I RFO       ACCESS:          0  HIT:          0  MISS:          0
L1I PREFETCH  ACCESS:          0  HIT:          0  MISS:          0
L1I WRITEBACK ACCESS:          0  HIT:          0  MISS:          0
L2C TOTAL     ACCESS:  136419060  HIT:   92319810  MISS:   44099250
L2C LOAD      ACCESS:   10942455  HIT:    2978493  MISS:    7963962
L2C RFO       ACCESS:   61219328  HIT:   28055705  MISS:   33163623
L2C PREFETCH  ACCESS:    3037886  HIT:      69575  MISS:    2968311
L2C WRITEBACK ACCESS:   61219391  HIT:   61216037  MISS:       3354
LLC TOTAL     ACCESS:  104988542  HIT:   67263841  MISS:   37724701
LLC LOAD      ACCESS:    7307453  HIT:    6758616  MISS:     548837
LLC RFO       ACCESS:   33163502  HIT:    6373307  MISS:   26790195
LLC PREFETCH  ACCESS:   31351277  HIT:   20966829  MISS:   10384448
LLC WRITEBACK ACCESS:   33166310  HIT:   33165089  MISS:       1221

CPU 2 cumulative IPC: 0.655736 instructions: 1109317961 cycles: 1691713973
L1D TOTAL     ACCESS:  166770904  HIT:  149185845  MISS:   17585059
L1D LOAD      ACCESS:  113863702  HIT:   99487737  MISS:   14375965
L1D RFO       ACCESS:   52907202  HIT:   49698108  MISS:    3209094
L1D PREFETCH  ACCESS:          0  HIT:          0  MISS:          0
L1D WRITEBACK ACCESS:          0  HIT:          0  MISS:          0
L1I TOTAL     ACCESS:  252659049  HIT:  252659044  MISS:          5
L1I LOAD      ACCESS:  252659049  HIT:  252659044  MISS:          5
L1I RFO       ACCESS:          0  HIT:          0  MISS:          0
L1I PREFETCH  ACCESS:          0  HIT:          0  MISS:          0
L1I WRITEBACK ACCESS:          0  HIT:          0  MISS:          0
L2C TOTAL     ACCESS:   27303559  HIT:    9617018  MISS:   17686541
L2C LOAD      ACCESS:   14375970  HIT:    3014318  MISS:   11361652
L2C RFO       ACCESS:    3209094  HIT:          0  MISS:    3209094
L2C PREFETCH  ACCESS:    3169369  HIT:      53757  MISS:    3115612
L2C WRITEBACK ACCESS:    6549126  HIT:    6548943  MISS:        183
LLC TOTAL     ACCESS:   47177428  HIT:   28054081  MISS:   19123347
LLC LOAD      ACCESS:   10710153  HIT:    6376042  MISS:    4334111
LLC RFO       ACCESS:    3209094  HIT:      20944  MISS:    3188150
LLC PREFETCH  ACCESS:   26711340  HIT:   15161307  MISS:   11550033
LLC WRITEBACK ACCESS:    6546841  HIT:    6495788  MISS:      51053

CPU 3 cumulative IPC: 1.06157 instructions: 1795866854 cycles: 1691713973
L1D TOTAL     ACCESS:  542539568  HIT:  523744904  MISS:   18794664
L1D LOAD      ACCESS:  442663939  HIT:  426123281  MISS:   16540658
L1D RFO       ACCESS:   99875629  HIT:   97621623  MISS:    2254006
L1D PREFETCH  ACCESS:          0  HIT:          0  MISS:          0
L1D WRITEBACK ACCESS:          0  HIT:          0  MISS:          0
L1I TOTAL     ACCESS:  429634787  HIT:  429629429  MISS:       5358
L1I LOAD      ACCESS:  429634787  HIT:  429629429  MISS:       5358
L1I RFO       ACCESS:          0  HIT:          0  MISS:          0
L1I PREFETCH  ACCESS:          0  HIT:          0  MISS:          0
L1I WRITEBACK ACCESS:          0  HIT:          0  MISS:          0
L2C TOTAL     ACCESS:   60841091  HIT:   47878186  MISS:   12962905
L2C LOAD      ACCESS:   16545979  HIT:   11981708  MISS:    4564271
L2C RFO       ACCESS:    2254004  HIT:    1055561  MISS:    1198443
L2C PREFETCH  ACCESS:   36428991  HIT:   29231706  MISS:    7197285
L2C WRITEBACK ACCESS:    5612117  HIT:    5609211  MISS:       2906
LLC TOTAL     ACCESS:   78196100  HIT:   65760473  MISS:   12435627
LLC LOAD      ACCESS:    4443991  HIT:    3754127  MISS:     689864
LLC RFO       ACCESS:    1198428  HIT:     154779  MISS:    1043649
LLC PREFETCH  ACCESS:   68618861  HIT:   57953483  MISS:   10665378
LLC WRITEBACK ACCESS:    3934820  HIT:    3898084  MISS:      36736

Region of Interest Statistics

CPU 0 cumulative IPC: 0.591116 instructions: 1000000001 cycles: 1691713972
L1D TOTAL     ACCESS:  367913003  HIT:  358360678  MISS:    9552325
L1D LOAD      ACCESS:  188791624  HIT:  179344653  MISS:    9446971
L1D RFO       ACCESS:  179121379  HIT:  179016025  MISS:     105354
L1D PREFETCH  ACCESS:          0  HIT:          0  MISS:          0
L1D WRITEBACK ACCESS:          0  HIT:          0  MISS:          0
L1D PREFETCH  REQUESTED:          0  ISSUED:          0  USEFUL:          0  USELESS:          0
L1I TOTAL     ACCESS:  360550150  HIT:  360550022  MISS:        128
L1I LOAD      ACCESS:  360550150  HIT:  360550022  MISS:        128
L1I RFO       ACCESS:          0  HIT:          0  MISS:          0
L1I PREFETCH  ACCESS:          0  HIT:          0  MISS:          0
L1I WRITEBACK ACCESS:          0  HIT:          0  MISS:          0
L1I PREFETCH  REQUESTED:          0  ISSUED:          0  USEFUL:          0  USELESS:          0
L2C TOTAL     ACCESS:   21646090  HIT:   20317946  MISS:    1328144
L2C LOAD      ACCESS:    9447086  HIT:    8310194  MISS:    1136892
L2C RFO       ACCESS:     105352  HIT:      12667  MISS:      92685
L2C PREFETCH  ACCESS:   11639320  HIT:   11541474  MISS:      97846
L2C WRITEBACK ACCESS:     454332  HIT:     453611  MISS:        721
L2C PREFETCH  REQUESTED:   18593598  ISSUED:   18593598  USEFUL:      52020  USELESS:      47293
LLC TOTAL     ACCESS:    5281972  HIT:    3342328  MISS:    1939644
LLC LOAD      ACCESS:    1132988  HIT:     438346  MISS:     694642
LLC RFO       ACCESS:      92675  HIT:       6323  MISS:      86352
LLC PREFETCH  ACCESS:    3799299  HIT:    2699518  MISS:    1099781
LLC WRITEBACK ACCESS:     257010  HIT:     198141  MISS:      58869
LLC PREFETCH  REQUESTED:          0  ISSUED:          0  USEFUL:   19917712  USELESS:   20446737
Major fault: 0 Minor fault: 12291

CPU 1 cumulative IPC: 0.866391 instructions: 1000000002 cycles: 1154213554
L1D TOTAL     ACCESS:  170556213  HIT:  121052631  MISS:   49503582
L1D LOAD      ACCESS:   67493458  HIT:   59986411  MISS:    7507047
L1D RFO       ACCESS:  103062755  HIT:   61066220  MISS:   41996535
L1D PREFETCH  ACCESS:          0  HIT:          0  MISS:          0
L1D WRITEBACK ACCESS:          0  HIT:          0  MISS:          0
L1D PREFETCH  REQUESTED:          0  ISSUED:          0  USEFUL:          0  USELESS:          0
L1I TOTAL     ACCESS:  236409497  HIT:  236409497  MISS:          0
L1I LOAD      ACCESS:  236409497  HIT:  236409497  MISS:          0
L1I RFO       ACCESS:          0  HIT:          0  MISS:          0
L1I PREFETCH  ACCESS:          0  HIT:          0  MISS:          0
L1I WRITEBACK ACCESS:          0  HIT:          0  MISS:          0
L1I PREFETCH  REQUESTED:          0  ISSUED:          0  USEFUL:          0  USELESS:          0
L2C TOTAL     ACCESS:   93596386  HIT:   63347810  MISS:   30248576
L2C LOAD      ACCESS:    7507047  HIT:    2051391  MISS:    5455656
L2C RFO       ACCESS:   41996491  HIT:   19250099  MISS:   22746392
L2C PREFETCH  ACCESS:    2096307  HIT:      52483  MISS:    2043824
L2C WRITEBACK ACCESS:   41996541  HIT:   41993837  MISS:       2704
L2C PREFETCH  REQUESTED:   79119566  ISSUED:   79119566  USEFUL:    3941489  USELESS:        221
LLC TOTAL     ACCESS:   72022771  HIT:   46259454  MISS:   25763317
LLC LOAD      ACCESS:    5006096  HIT:    4623833  MISS:     382263
LLC RFO       ACCESS:   22746316  HIT:    4484027  MISS:   18262289
LLC PREFETCH  ACCESS:   21521934  HIT:   14404024  MISS:    7117910
LLC WRITEBACK ACCESS:   22748425  HIT:   22747570  MISS:        855
LLC PREFETCH  REQUESTED:          0  ISSUED:          0  USEFUL:   19917712  USELESS:   20446737
Major fault: 0 Minor fault: 103151

CPU 2 cumulative IPC: 0.648436 instructions: 1000000000 cycles: 1542172443
L1D TOTAL     ACCESS:  151163423  HIT:  134854953  MISS:   16308470
L1D LOAD      ACCESS:  104196276  HIT:   91096900  MISS:   13099376
L1D RFO       ACCESS:   46967147  HIT:   43758053  MISS:    3209094
L1D PREFETCH  ACCESS:          0  HIT:          0  MISS:          0
L1D WRITEBACK ACCESS:          0  HIT:          0  MISS:          0
L1D PREFETCH  REQUESTED:          0  ISSUED:          0  USEFUL:          0  USELESS:          0
L1I TOTAL     ACCESS:  228064047  HIT:  228064042  MISS:          5
L1I LOAD      ACCESS:  228064047  HIT:  228064042  MISS:          5
L1I RFO       ACCESS:          0  HIT:          0  MISS:          0
L1I PREFETCH  ACCESS:          0  HIT:          0  MISS:          0
L1I WRITEBACK ACCESS:          0  HIT:          0  MISS:          0
L1I PREFETCH  REQUESTED:          0  ISSUED:          0  USEFUL:          0  USELESS:          0
L2C TOTAL     ACCESS:   25374028  HIT:    8979665  MISS:   16394363
L2C LOAD      ACCESS:   13099381  HIT:    2690760  MISS:   10408621
L2C RFO       ACCESS:    3209094  HIT:          0  MISS:    3209094
L2C PREFETCH  ACCESS:    2829058  HIT:      52553  MISS:    2776505
L2C WRITEBACK ACCESS:    6236495  HIT:    6236352  MISS:        143
L2C PREFETCH  REQUESTED:   66596092  ISSUED:   66596092  USEFUL:    4558504  USELESS:     143072
LLC TOTAL     ACCESS:   43615768  HIT:   25961075  MISS:   17654693
LLC LOAD      ACCESS:    9825627  HIT:    5842760  MISS:    3982867
LLC RFO       ACCESS:    3209094  HIT:      20944  MISS:    3188150
LLC PREFETCH  ACCESS:   24346848  HIT:   13908311  MISS:   10438537
LLC WRITEBACK ACCESS:    6234199  HIT:    6189060  MISS:      45139
LLC PREFETCH  REQUESTED:          0  ISSUED:          0  USEFUL:   19917712  USELESS:   20446737
Major fault: 0 Minor fault: 109713

CPU 3 cumulative IPC: 1.03172 instructions: 1000000002 cycles: 969255278
L1D TOTAL     ACCESS:  314299608  HIT:  303962139  MISS:   10337469
L1D LOAD      ACCESS:  260295038  HIT:  251245239  MISS:    9049799
L1D RFO       ACCESS:   54004570  HIT:   52716900  MISS:    1287670
L1D PREFETCH  ACCESS:          0  HIT:          0  MISS:          0
L1D WRITEBACK ACCESS:          0  HIT:          0  MISS:          0
L1D PREFETCH  REQUESTED:          0  ISSUED:          0  USEFUL:          0  USELESS:          0
L1I TOTAL     ACCESS:  241204943  HIT:  241202217  MISS:       2726
L1I LOAD      ACCESS:  241204943  HIT:  241202217  MISS:       2726
L1I RFO       ACCESS:          0  HIT:          0  MISS:          0
L1I PREFETCH  ACCESS:          0  HIT:          0  MISS:          0
L1I WRITEBACK ACCESS:          0  HIT:          0  MISS:          0
L1I PREFETCH  REQUESTED:          0  ISSUED:          0  USEFUL:          0  USELESS:          0
L2C TOTAL     ACCESS:   33025751  HIT:   25737686  MISS:    7288065
L2C LOAD      ACCESS:    9052509  HIT:    6577515  MISS:    2474994
L2C RFO       ACCESS:    1287670  HIT:     494929  MISS:     792741
L2C PREFETCH  ACCESS:   19670272  HIT:   15651653  MISS:    4018619
L2C WRITEBACK ACCESS:    3015300  HIT:    3013589  MISS:       1711
L2C PREFETCH  REQUESTED:  116687639  ISSUED:  116526713  USEFUL:    7694985  USELESS:      72358
LLC TOTAL     ACCESS:   43959622  HIT:   37002580  MISS:    6957042
LLC LOAD      ACCESS:    2408894  HIT:    2059414  MISS:     349480
LLC RFO       ACCESS:     792735  HIT:      78534  MISS:     714201
LLC PREFETCH  ACCESS:   38538498  HIT:   32664591  MISS:    5873907
LLC WRITEBACK ACCESS:    2219495  HIT:    2200041  MISS:      19454
LLC PREFETCH  REQUESTED:          0  ISSUED:          0  USEFUL:   19917712  USELESS:   20446737
Major fault: 0 Minor fault: 25567

DRAM Statistics
 CHANNEL 0
 RQ ROW_BUFFER_HIT:    9724317  ROW_BUFFER_MISS:   26615399
 DBUS_CONGESTED:   76440854
 WQ ROW_BUFFER_HIT:    1993718  ROW_BUFFER_MISS:   16409430  FULL:          0

 CHANNEL 1
 RQ ROW_BUFFER_HIT:    8493851  ROW_BUFFER_MISS:   26232504
 DBUS_CONGESTED:   76440854
 WQ ROW_BUFFER_HIT:    2052903  ROW_BUFFER_MISS:   16810566  FULL:          0

 AVG_CONGESTED_CYCLE: 13
