
*** ChampSim Multicore Out-of-Order Simulator ***

Warmup Instructions: 200000000
Simulation Instructions: 1000000000
Number of CPUs: 4
LLC sets: 8192
LLC ways: 16
Off-chip DRAM Size: 8192 MB Channels: 2 Width: 64-bit Data Rate: 1600 MT/s

CPU 0 runs /scratch/user/djimenez/champsim-traces/speccpu2017/xz/625.x264_s/625.x264_s-18B.champsimtrace.xz
CPU 1 runs /scratch/user/djimenez/champsim-traces/speccpu2017/xz/654.roms_s/654.roms_s-842B.champsimtrace.xz
CPU 2 runs /scratch/user/djimenez/champsim-traces/speccpu2017/xz/623.xalancbmk_s/623.xalancbmk_s-202B.champsimtrace.xz
CPU 3 runs /scratch/user/djimenez/champsim-traces/speccpu2017/xz/628.pop2_s/628.pop2_s-17B.champsimtrace.xz
L2C Best-offset prefetcher
L2C Best-offset prefetcher
L2C Best-offset prefetcher
L2C Best-offset prefetcher
Heartbeat CPU 1 instructions: 10000003 cycles: 3780739 heartbeat IPC: 2.64499 cumulative IPC: 2.64499 (Simulation time: 0 hr 1 min 34 sec) 
Heartbeat CPU 0 instructions: 10000003 cycles: 3849152 heartbeat IPC: 2.59798 cumulative IPC: 2.59798 (Simulation time: 0 hr 1 min 35 sec) 
Heartbeat CPU 3 instructions: 10000002 cycles: 4120551 heartbeat IPC: 2.42686 cumulative IPC: 2.42686 (Simulation time: 0 hr 1 min 42 sec) 
Heartbeat CPU 2 instructions: 10000000 cycles: 4123746 heartbeat IPC: 2.42498 cumulative IPC: 2.42498 (Simulation time: 0 hr 1 min 42 sec) 
Heartbeat CPU 1 instructions: 20000000 cycles: 7608747 heartbeat IPC: 2.61232 cumulative IPC: 2.62855 (Simulation time: 0 hr 3 min 9 sec) 
Heartbeat CPU 0 instructions: 20000000 cycles: 7705154 heartbeat IPC: 2.59336 cumulative IPC: 2.59567 (Simulation time: 0 hr 3 min 11 sec) 
Heartbeat CPU 3 instructions: 20000000 cycles: 8232421 heartbeat IPC: 2.43198 cumulative IPC: 2.42942 (Simulation time: 0 hr 3 min 24 sec) 
Heartbeat CPU 2 instructions: 20000000 cycles: 8247252 heartbeat IPC: 2.42512 cumulative IPC: 2.42505 (Simulation time: 0 hr 3 min 25 sec) 
Heartbeat CPU 1 instructions: 30000003 cycles: 11356700 heartbeat IPC: 2.66812 cumulative IPC: 2.64161 (Simulation time: 0 hr 4 min 42 sec) 
Heartbeat CPU 0 instructions: 30000001 cycles: 11528614 heartbeat IPC: 2.61543 cumulative IPC: 2.60222 (Simulation time: 0 hr 4 min 46 sec) 
Heartbeat CPU 3 instructions: 30000002 cycles: 12343025 heartbeat IPC: 2.43273 cumulative IPC: 2.43052 (Simulation time: 0 hr 5 min 15 sec) 
Heartbeat CPU 2 instructions: 30000002 cycles: 12363312 heartbeat IPC: 2.42951 cumulative IPC: 2.42653 (Simulation time: 0 hr 5 min 16 sec) 
Heartbeat CPU 1 instructions: 40000000 cycles: 15192346 heartbeat IPC: 2.60712 cumulative IPC: 2.6329 (Simulation time: 0 hr 6 min 32 sec) 
Heartbeat CPU 0 instructions: 40000000 cycles: 15345463 heartbeat IPC: 2.61996 cumulative IPC: 2.60663 (Simulation time: 0 hr 6 min 36 sec) 
Heartbeat CPU 3 instructions: 40000000 cycles: 16452511 heartbeat IPC: 2.43339 cumulative IPC: 2.43124 (Simulation time: 0 hr 7 min 3 sec) 
Heartbeat CPU 2 instructions: 40000000 cycles: 16475448 heartbeat IPC: 2.43183 cumulative IPC: 2.42786 (Simulation time: 0 hr 7 min 4 sec) 
Heartbeat CPU 0 instructions: 50000000 cycles: 19165885 heartbeat IPC: 2.61751 cumulative IPC: 2.6088 (Simulation time: 0 hr 8 min 12 sec) 
Heartbeat CPU 1 instructions: 50000002 cycles: 19224254 heartbeat IPC: 2.48022 cumulative IPC: 2.60088 (Simulation time: 0 hr 8 min 13 sec) 
Heartbeat CPU 3 instructions: 50000003 cycles: 20550623 heartbeat IPC: 2.44015 cumulative IPC: 2.43302 (Simulation time: 0 hr 8 min 46 sec) 
Heartbeat CPU 2 instructions: 50000000 cycles: 20598357 heartbeat IPC: 2.42547 cumulative IPC: 2.42738 (Simulation time: 0 hr 8 min 47 sec) 
Heartbeat CPU 0 instructions: 60000000 cycles: 22987458 heartbeat IPC: 2.61672 cumulative IPC: 2.61012 (Simulation time: 0 hr 9 min 47 sec) 
Heartbeat CPU 1 instructions: 60000000 cycles: 23025076 heartbeat IPC: 2.63101 cumulative IPC: 2.60585 (Simulation time: 0 hr 9 min 48 sec) 
Heartbeat CPU 3 instructions: 60000000 cycles: 24635756 heartbeat IPC: 2.4479 cumulative IPC: 2.43548 (Simulation time: 0 hr 10 min 28 sec) 
Heartbeat CPU 2 instructions: 60000000 cycles: 24719356 heartbeat IPC: 2.4266 cumulative IPC: 2.42725 (Simulation time: 0 hr 10 min 30 sec) 
Heartbeat CPU 1 instructions: 70000001 cycles: 26801882 heartbeat IPC: 2.64774 cumulative IPC: 2.61176 (Simulation time: 0 hr 11 min 21 sec) 
Heartbeat CPU 0 instructions: 70000001 cycles: 26811665 heartbeat IPC: 2.61492 cumulative IPC: 2.6108 (Simulation time: 0 hr 11 min 21 sec) 
Heartbeat CPU 3 instructions: 70000001 cycles: 28701752 heartbeat IPC: 2.45942 cumulative IPC: 2.43888 (Simulation time: 0 hr 12 min 8 sec) 
Heartbeat CPU 2 instructions: 70000003 cycles: 28854455 heartbeat IPC: 2.41832 cumulative IPC: 2.42597 (Simulation time: 0 hr 12 min 11 sec) 
Heartbeat CPU 1 instructions: 80000000 cycles: 30600222 heartbeat IPC: 2.63273 cumulative IPC: 2.61436 (Simulation time: 0 hr 12 min 55 sec) 
Heartbeat CPU 0 instructions: 80000000 cycles: 30635942 heartbeat IPC: 2.61487 cumulative IPC: 2.61131 (Simulation time: 0 hr 12 min 56 sec) 
Heartbeat CPU 3 instructions: 80000000 cycles: 32432172 heartbeat IPC: 2.68066 cumulative IPC: 2.46669 (Simulation time: 0 hr 13 min 40 sec) 
Heartbeat CPU 2 instructions: 80000000 cycles: 32975466 heartbeat IPC: 2.42659 cumulative IPC: 2.42605 (Simulation time: 0 hr 13 min 53 sec) 
Heartbeat CPU 1 instructions: 90000003 cycles: 34427921 heartbeat IPC: 2.61254 cumulative IPC: 2.61416 (Simulation time: 0 hr 14 min 29 sec) 
Heartbeat CPU 0 instructions: 90000003 cycles: 34461532 heartbeat IPC: 2.61398 cumulative IPC: 2.61161 (Simulation time: 0 hr 14 min 30 sec) 
Heartbeat CPU 3 instructions: 90000002 cycles: 36433292 heartbeat IPC: 2.4993 cumulative IPC: 2.47027 (Simulation time: 0 hr 15 min 17 sec) 
Heartbeat CPU 2 instructions: 90000000 cycles: 37102831 heartbeat IPC: 2.42285 cumulative IPC: 2.42569 (Simulation time: 0 hr 15 min 34 sec) 
Heartbeat CPU 1 instructions: 100000000 cycles: 38159255 heartbeat IPC: 2.68001 cumulative IPC: 2.6206 (Simulation time: 0 hr 16 min 0 sec) 
Heartbeat CPU 0 instructions: 100000000 cycles: 38282576 heartbeat IPC: 2.61708 cumulative IPC: 2.61215 (Simulation time: 0 hr 16 min 3 sec) 
Heartbeat CPU 3 instructions: 100000000 cycles: 40545167 heartbeat IPC: 2.43198 cumulative IPC: 2.46639 (Simulation time: 0 hr 16 min 59 sec) 
Heartbeat CPU 2 instructions: 100000000 cycles: 41218530 heartbeat IPC: 2.42972 cumulative IPC: 2.42609 (Simulation time: 0 hr 17 min 15 sec) 
Heartbeat CPU 1 instructions: 110000001 cycles: 42029549 heartbeat IPC: 2.58378 cumulative IPC: 2.61721 (Simulation time: 0 hr 17 min 35 sec) 
Heartbeat CPU 0 instructions: 110000001 cycles: 42096282 heartbeat IPC: 2.62212 cumulative IPC: 2.61306 (Simulation time: 0 hr 17 min 37 sec) 
Heartbeat CPU 3 instructions: 110000003 cycles: 44432345 heartbeat IPC: 2.57256 cumulative IPC: 2.47567 (Simulation time: 0 hr 18 min 34 sec) 
Heartbeat CPU 2 instructions: 110000002 cycles: 45331421 heartbeat IPC: 2.43138 cumulative IPC: 2.42657 (Simulation time: 0 hr 18 min 56 sec) 
Heartbeat CPU 1 instructions: 120000000 cycles: 45781293 heartbeat IPC: 2.66543 cumulative IPC: 2.62116 (Simulation time: 0 hr 19 min 7 sec) 
Heartbeat CPU 0 instructions: 120000000 cycles: 45912141 heartbeat IPC: 2.62064 cumulative IPC: 2.61369 (Simulation time: 0 hr 19 min 11 sec) 
Heartbeat CPU 3 instructions: 120000000 cycles: 48420630 heartbeat IPC: 2.50734 cumulative IPC: 2.47828 (Simulation time: 0 hr 20 min 8 sec) 
Heartbeat CPU 2 instructions: 120000000 cycles: 49455142 heartbeat IPC: 2.42499 cumulative IPC: 2.42644 (Simulation time: 0 hr 20 min 32 sec) 
Heartbeat CPU 1 instructions: 130000002 cycles: 49491454 heartbeat IPC: 2.6953 cumulative IPC: 2.62672 (Simulation time: 0 hr 20 min 33 sec) 
Heartbeat CPU 0 instructions: 130000003 cycles: 49730626 heartbeat IPC: 2.61884 cumulative IPC: 2.61408 (Simulation time: 0 hr 20 min 38 sec) 
Heartbeat CPU 3 instructions: 130000003 cycles: 52710066 heartbeat IPC: 2.33131 cumulative IPC: 2.46632 (Simulation time: 0 hr 21 min 46 sec) 
Heartbeat CPU 1 instructions: 140000000 cycles: 53327617 heartbeat IPC: 2.60677 cumulative IPC: 2.62528 (Simulation time: 0 hr 22 min 0 sec) 
Heartbeat CPU 0 instructions: 140000000 cycles: 53560094 heartbeat IPC: 2.61133 cumulative IPC: 2.61389 (Simulation time: 0 hr 22 min 5 sec) 
Heartbeat CPU 2 instructions: 130000001 cycles: 53579254 heartbeat IPC: 2.42476 cumulative IPC: 2.42631 (Simulation time: 0 hr 22 min 6 sec) 
Heartbeat CPU 3 instructions: 140000000 cycles: 56942177 heartbeat IPC: 2.36289 cumulative IPC: 2.45863 (Simulation time: 0 hr 23 min 18 sec) 
Heartbeat CPU 1 instructions: 150000003 cycles: 57164898 heartbeat IPC: 2.60601 cumulative IPC: 2.62399 (Simulation time: 0 hr 23 min 23 sec) 
Heartbeat CPU 0 instructions: 150000003 cycles: 57617793 heartbeat IPC: 2.46445 cumulative IPC: 2.60336 (Simulation time: 0 hr 23 min 33 sec) 
Heartbeat CPU 2 instructions: 140000000 cycles: 57693243 heartbeat IPC: 2.43073 cumulative IPC: 2.42663 (Simulation time: 0 hr 23 min 34 sec) 
Heartbeat CPU 3 instructions: 150000001 cycles: 60784220 heartbeat IPC: 2.60278 cumulative IPC: 2.46775 (Simulation time: 0 hr 24 min 42 sec) 
Heartbeat CPU 1 instructions: 160000000 cycles: 60912852 heartbeat IPC: 2.66812 cumulative IPC: 2.6267 (Simulation time: 0 hr 24 min 44 sec) 
Heartbeat CPU 0 instructions: 160000000 cycles: 61789253 heartbeat IPC: 2.39724 cumulative IPC: 2.58945 (Simulation time: 0 hr 25 min 2 sec) 
Heartbeat CPU 2 instructions: 150000000 cycles: 61817408 heartbeat IPC: 2.42473 cumulative IPC: 2.4265 (Simulation time: 0 hr 25 min 3 sec) 
Heartbeat CPU 1 instructions: 170000003 cycles: 64711268 heartbeat IPC: 2.63268 cumulative IPC: 2.62705 (Simulation time: 0 hr 26 min 6 sec) 
Heartbeat CPU 3 instructions: 160000000 cycles: 65065085 heartbeat IPC: 2.33598 cumulative IPC: 2.45908 (Simulation time: 0 hr 26 min 14 sec) 
Heartbeat CPU 0 instructions: 170000001 cycles: 65812914 heartbeat IPC: 2.4853 cumulative IPC: 2.58308 (Simulation time: 0 hr 26 min 30 sec) 
Heartbeat CPU 2 instructions: 160000000 cycles: 65943969 heartbeat IPC: 2.42333 cumulative IPC: 2.4263 (Simulation time: 0 hr 26 min 33 sec) 
Heartbeat CPU 1 instructions: 180000000 cycles: 68597896 heartbeat IPC: 2.57292 cumulative IPC: 2.62399 (Simulation time: 0 hr 27 min 34 sec) 
Heartbeat CPU 3 instructions: 170000002 cycles: 69162053 heartbeat IPC: 2.44083 cumulative IPC: 2.458 (Simulation time: 0 hr 27 min 46 sec) 
Heartbeat CPU 0 instructions: 180000000 cycles: 69981859 heartbeat IPC: 2.39869 cumulative IPC: 2.5721 (Simulation time: 0 hr 28 min 5 sec) 
Heartbeat CPU 2 instructions: 170000001 cycles: 70078291 heartbeat IPC: 2.41878 cumulative IPC: 2.42586 (Simulation time: 0 hr 28 min 7 sec) 
Heartbeat CPU 1 instructions: 190000000 cycles: 72438259 heartbeat IPC: 2.60392 cumulative IPC: 2.62292 (Simulation time: 0 hr 29 min 3 sec) 
Heartbeat CPU 3 instructions: 180000000 cycles: 73256072 heartbeat IPC: 2.44259 cumulative IPC: 2.45713 (Simulation time: 0 hr 29 min 24 sec) 
Heartbeat CPU 0 instructions: 190000000 cycles: 74167937 heartbeat IPC: 2.38887 cumulative IPC: 2.56175 (Simulation time: 0 hr 29 min 44 sec) 
Heartbeat CPU 2 instructions: 180000000 cycles: 74206144 heartbeat IPC: 2.42257 cumulative IPC: 2.42568 (Simulation time: 0 hr 29 min 45 sec) 
Heartbeat CPU 1 instructions: 200000000 cycles: 76232579 heartbeat IPC: 2.63552 cumulative IPC: 2.62355 (Simulation time: 0 hr 30 min 33 sec) 
Heartbeat CPU 3 instructions: 190000002 cycles: 77365572 heartbeat IPC: 2.43339 cumulative IPC: 2.45587 (Simulation time: 0 hr 31 min 1 sec) 
Heartbeat CPU 0 instructions: 200000000 cycles: 78184712 heartbeat IPC: 2.48956 cumulative IPC: 2.55804 (Simulation time: 0 hr 31 min 21 sec) 
Heartbeat CPU 2 instructions: 190000001 cycles: 78323713 heartbeat IPC: 2.42862 cumulative IPC: 2.42583 (Simulation time: 0 hr 31 min 24 sec) 
Heartbeat CPU 1 instructions: 210000001 cycles: 79954894 heartbeat IPC: 2.6865 cumulative IPC: 0.125071 (Simulation time: 0 hr 32 min 3 sec) 
Heartbeat CPU 3 instructions: 200000000 cycles: 81471892 heartbeat IPC: 2.43527 cumulative IPC: 2.45483 (Simulation time: 0 hr 32 min 42 sec) 
Heartbeat CPU 0 instructions: 210000002 cycles: 82359323 heartbeat IPC: 2.39543 cumulative IPC: 0.121419 (Simulation time: 0 hr 33 min 8 sec) 
Heartbeat CPU 2 instructions: 200000000 cycles: 82446235 heartbeat IPC: 2.4257 cumulative IPC: 2.42582 (Simulation time: 0 hr 33 min 10 sec) 

Warmup complete CPU 0 instructions: 210227049 cycles: 82446236 (Simulation time: 0 hr 33 min 10 sec) 
Warmup complete CPU 1 instructions: 216739995 cycles: 82446236 (Simulation time: 0 hr 33 min 10 sec) 
Warmup complete CPU 2 instructions: 200000002 cycles: 82446236 (Simulation time: 0 hr 33 min 10 sec) 
Warmup complete CPU 3 instructions: 202391988 cycles: 82446235 (Simulation time: 0 hr 33 min 10 sec) 

Heartbeat CPU 1 instructions: 220000000 cycles: 86321732 heartbeat IPC: 1.57064 cumulative IPC: 0.841184 (Simulation time: 0 hr 34 min 23 sec) 
Heartbeat CPU 3 instructions: 210000001 cycles: 88894147 heartbeat IPC: 1.3473 cumulative IPC: 1.17992 (Simulation time: 0 hr 35 min 10 sec) 
Heartbeat CPU 0 instructions: 220000000 cycles: 89187041 heartbeat IPC: 1.46462 cumulative IPC: 1.44982 (Simulation time: 0 hr 35 min 14 sec) 
Heartbeat CPU 2 instructions: 210000002 cycles: 94457602 heartbeat IPC: 0.832545 cumulative IPC: 0.832545 (Simulation time: 0 hr 36 min 49 sec) 
Heartbeat CPU 0 instructions: 230000000 cycles: 96074288 heartbeat IPC: 1.45196 cumulative IPC: 1.4509 (Simulation time: 0 hr 37 min 22 sec) 
Heartbeat CPU 1 instructions: 230000003 cycles: 96336631 heartbeat IPC: 0.998513 cumulative IPC: 0.954617 (Simulation time: 0 hr 37 min 26 sec) 
Heartbeat CPU 3 instructions: 220000000 cycles: 97293378 heartbeat IPC: 1.19059 cumulative IPC: 1.18595 (Simulation time: 0 hr 37 min 45 sec) 
Heartbeat CPU 0 instructions: 240000000 cycles: 102903800 heartbeat IPC: 1.46423 cumulative IPC: 1.45535 (Simulation time: 0 hr 39 min 15 sec) 
Heartbeat CPU 3 instructions: 230000000 cycles: 105724397 heartbeat IPC: 1.1861 cumulative IPC: 1.186 (Simulation time: 0 hr 39 min 58 sec) 
Heartbeat CPU 2 instructions: 220000000 cycles: 106455250 heartbeat IPC: 0.833497 cumulative IPC: 0.83302 (Simulation time: 0 hr 40 min 9 sec) 
Heartbeat CPU 1 instructions: 240000000 cycles: 106867572 heartbeat IPC: 0.949582 cumulative IPC: 0.952446 (Simulation time: 0 hr 40 min 15 sec) 
Heartbeat CPU 0 instructions: 250000001 cycles: 109861441 heartbeat IPC: 1.43727 cumulative IPC: 1.45076 (Simulation time: 0 hr 40 min 57 sec) 
Heartbeat CPU 3 instructions: 240000000 cycles: 114243399 heartbeat IPC: 1.17385 cumulative IPC: 1.18275 (Simulation time: 0 hr 42 min 0 sec) 
Heartbeat CPU 0 instructions: 260000000 cycles: 116631224 heartbeat IPC: 1.47715 cumulative IPC: 1.45599 (Simulation time: 0 hr 42 min 35 sec) 
Heartbeat CPU 1 instructions: 250000000 cycles: 117343228 heartbeat IPC: 0.954594 cumulative IPC: 0.953091 (Simulation time: 0 hr 42 min 46 sec) 
Heartbeat CPU 2 instructions: 230000003 cycles: 118591612 heartbeat IPC: 0.82397 cumulative IPC: 0.829982 (Simulation time: 0 hr 43 min 3 sec) 
Heartbeat CPU 3 instructions: 250000003 cycles: 122459460 heartbeat IPC: 1.21713 cumulative IPC: 1.18981 (Simulation time: 0 hr 44 min 0 sec) 
Heartbeat CPU 0 instructions: 270000000 cycles: 123412199 heartbeat IPC: 1.47471 cumulative IPC: 1.45909 (Simulation time: 0 hr 44 min 14 sec) 
Heartbeat CPU 1 instructions: 260000000 cycles: 127531958 heartbeat IPC: 0.981477 cumulative IPC: 0.959506 (Simulation time: 0 hr 45 min 11 sec) 
Heartbeat CPU 3 instructions: 260000000 cycles: 129786376 heartbeat IPC: 1.36483 cumulative IPC: 1.2169 (Simulation time: 0 hr 45 min 41 sec) 
Heartbeat CPU 0 instructions: 280000000 cycles: 130325873 heartbeat IPC: 1.44641 cumulative IPC: 1.45726 (Simulation time: 0 hr 45 min 48 sec) 
Heartbeat CPU 2 instructions: 240000000 cycles: 130636716 heartbeat IPC: 0.830213 cumulative IPC: 0.830039 (Simulation time: 0 hr 45 min 52 sec) 
Heartbeat CPU 0 instructions: 290000001 cycles: 137103813 heartbeat IPC: 1.47537 cumulative IPC: 1.4595 (Simulation time: 0 hr 47 min 15 sec) 
Heartbeat CPU 1 instructions: 270000002 cycles: 138010635 heartbeat IPC: 0.954319 cumulative IPC: 0.958528 (Simulation time: 0 hr 47 min 27 sec) 
Heartbeat CPU 3 instructions: 270000001 cycles: 139229536 heartbeat IPC: 1.05897 cumulative IPC: 1.19063 (Simulation time: 0 hr 47 min 42 sec) 
Heartbeat CPU 2 instructions: 250000000 cycles: 142799274 heartbeat IPC: 0.822195 cumulative IPC: 0.828459 (Simulation time: 0 hr 48 min 31 sec) 
Heartbeat CPU 0 instructions: 300000000 cycles: 143827324 heartbeat IPC: 1.48732 cumulative IPC: 1.46255 (Simulation time: 0 hr 48 min 44 sec) 
Heartbeat CPU 3 instructions: 280000000 cycles: 147712342 heartbeat IPC: 1.17886 cumulative IPC: 1.1891 (Simulation time: 0 hr 49 min 38 sec) 
Heartbeat CPU 1 instructions: 280000000 cycles: 148319651 heartbeat IPC: 0.970024 cumulative IPC: 0.960327 (Simulation time: 0 hr 49 min 47 sec) 
Heartbeat CPU 0 instructions: 310000000 cycles: 150779860 heartbeat IPC: 1.43832 cumulative IPC: 1.46009 (Simulation time: 0 hr 50 min 21 sec) 
Heartbeat CPU 2 instructions: 260000000 cycles: 155102120 heartbeat IPC: 0.81282 cumulative IPC: 0.825811 (Simulation time: 0 hr 51 min 22 sec) 
Heartbeat CPU 3 instructions: 290000000 cycles: 155466530 heartbeat IPC: 1.28963 cumulative IPC: 1.19978 (Simulation time: 0 hr 51 min 28 sec) 
Heartbeat CPU 0 instructions: 320000000 cycles: 157550515 heartbeat IPC: 1.47696 cumulative IPC: 1.46161 (Simulation time: 0 hr 51 min 57 sec) 
Heartbeat CPU 1 instructions: 290000003 cycles: 158342860 heartbeat IPC: 0.997685 cumulative IPC: 0.96526 (Simulation time: 0 hr 52 min 8 sec) 
Heartbeat CPU 3 instructions: 300000000 cycles: 164242577 heartbeat IPC: 1.13947 cumulative IPC: 1.19331 (Simulation time: 0 hr 53 min 27 sec) 
Heartbeat CPU 0 instructions: 330000000 cycles: 164272308 heartbeat IPC: 1.4877 cumulative IPC: 1.46375 (Simulation time: 0 hr 53 min 28 sec) 
Heartbeat CPU 2 instructions: 270000002 cycles: 167692645 heartbeat IPC: 0.794248 cumulative IPC: 0.821149 (Simulation time: 0 hr 54 min 14 sec) 
Heartbeat CPU 1 instructions: 300000000 cycles: 168533945 heartbeat IPC: 0.98125 cumulative IPC: 0.967153 (Simulation time: 0 hr 54 min 26 sec) 
Heartbeat CPU 0 instructions: 340000000 cycles: 170976593 heartbeat IPC: 1.49158 cumulative IPC: 1.46586 (Simulation time: 0 hr 54 min 59 sec) 
Heartbeat CPU 3 instructions: 310000000 cycles: 173879440 heartbeat IPC: 1.03768 cumulative IPC: 1.1769 (Simulation time: 0 hr 55 min 38 sec) 
Heartbeat CPU 0 instructions: 350000003 cycles: 177684329 heartbeat IPC: 1.49082 cumulative IPC: 1.46762 (Simulation time: 0 hr 56 min 29 sec) 
Heartbeat CPU 1 instructions: 310000000 cycles: 178495780 heartbeat IPC: 1.00383 cumulative IPC: 0.970957 (Simulation time: 0 hr 56 min 40 sec) 
Heartbeat CPU 2 instructions: 280000000 cycles: 179823233 heartbeat IPC: 0.824362 cumulative IPC: 0.821549 (Simulation time: 0 hr 56 min 58 sec) 
Heartbeat CPU 3 instructions: 320000000 cycles: 182151456 heartbeat IPC: 1.2089 cumulative IPC: 1.17956 (Simulation time: 0 hr 57 min 31 sec) 
Heartbeat CPU 0 instructions: 360000000 cycles: 184378273 heartbeat IPC: 1.49389 cumulative IPC: 1.46934 (Simulation time: 0 hr 58 min 2 sec) 
Heartbeat CPU 1 instructions: 320000000 cycles: 188457226 heartbeat IPC: 1.00387 cumulative IPC: 0.97405 (Simulation time: 0 hr 58 min 58 sec) 
Heartbeat CPU 3 instructions: 330000002 cycles: 189581230 heartbeat IPC: 1.34594 cumulative IPC: 1.1911 (Simulation time: 0 hr 59 min 14 sec) 
Heartbeat CPU 0 instructions: 370000000 cycles: 191065188 heartbeat IPC: 1.49546 cumulative IPC: 1.47095 (Simulation time: 0 hr 59 min 34 sec) 
Heartbeat CPU 2 instructions: 290000000 cycles: 191831318 heartbeat IPC: 0.832772 cumulative IPC: 0.822781 (Simulation time: 0 hr 59 min 44 sec) 
Heartbeat CPU 0 instructions: 380000000 cycles: 197789575 heartbeat IPC: 1.48712 cumulative IPC: 1.47189 (Simulation time: 1 hr 1 min 4 sec) 
Heartbeat CPU 1 instructions: 330000001 cycles: 198419050 heartbeat IPC: 1.00383 cumulative IPC: 0.976608 (Simulation time: 1 hr 1 min 12 sec) 
Heartbeat CPU 3 instructions: 340000000 cycles: 198520382 heartbeat IPC: 1.11867 cumulative IPC: 1.18552 (Simulation time: 1 hr 1 min 14 sec) 
Heartbeat CPU 2 instructions: 300000000 cycles: 204012837 heartbeat IPC: 0.820916 cumulative IPC: 0.822594 (Simulation time: 1 hr 2 min 28 sec) 
Heartbeat CPU 0 instructions: 390000003 cycles: 204526504 heartbeat IPC: 1.48436 cumulative IPC: 1.47258 (Simulation time: 1 hr 2 min 35 sec) 
Heartbeat CPU 3 instructions: 350000000 cycles: 207913561 heartbeat IPC: 1.0646 cumulative IPC: 1.17647 (Simulation time: 1 hr 3 min 22 sec) 
Heartbeat CPU 1 instructions: 340000000 cycles: 208608814 heartbeat IPC: 0.981377 cumulative IPC: 0.976993 (Simulation time: 1 hr 3 min 31 sec) 
Heartbeat CPU 0 instructions: 400000000 cycles: 214016640 heartbeat IPC: 1.05373 cumulative IPC: 1.44237 (Simulation time: 1 hr 4 min 44 sec) 
Heartbeat CPU 2 instructions: 310000003 cycles: 216287920 heartbeat IPC: 0.814659 cumulative IPC: 0.821867 (Simulation time: 1 hr 5 min 21 sec) 
Heartbeat CPU 3 instructions: 360000000 cycles: 217843750 heartbeat IPC: 1.00703 cumulative IPC: 1.16404 (Simulation time: 1 hr 5 min 52 sec) 
Heartbeat CPU 1 instructions: 350000000 cycles: 218627590 heartbeat IPC: 0.998126 cumulative IPC: 0.978548 (Simulation time: 1 hr 6 min 5 sec) 
Heartbeat CPU 0 instructions: 410000002 cycles: 219004565 heartbeat IPC: 2.00484 cumulative IPC: 1.46291 (Simulation time: 1 hr 6 min 12 sec) 
Heartbeat CPU 0 instructions: 420000000 cycles: 225370935 heartbeat IPC: 1.57075 cumulative IPC: 1.46772 (Simulation time: 1 hr 7 min 55 sec) 
Heartbeat CPU 3 instructions: 370000001 cycles: 226462543 heartbeat IPC: 1.16026 cumulative IPC: 1.16381 (Simulation time: 1 hr 8 min 10 sec) 
Heartbeat CPU 1 instructions: 360000000 cycles: 228703540 heartbeat IPC: 0.992462 cumulative IPC: 0.979507 (Simulation time: 1 hr 8 min 46 sec) 
Heartbeat CPU 2 instructions: 320000000 cycles: 229063536 heartbeat IPC: 0.782741 cumulative IPC: 0.818457 (Simulation time: 1 hr 8 min 51 sec) 
Heartbeat CPU 0 instructions: 430000000 cycles: 232720860 heartbeat IPC: 1.36056 cumulative IPC: 1.46248 (Simulation time: 1 hr 9 min 50 sec) 
Heartbeat CPU 3 instructions: 380000000 cycles: 235083810 heartbeat IPC: 1.15992 cumulative IPC: 1.16359 (Simulation time: 1 hr 10 min 28 sec) 
Heartbeat CPU 1 instructions: 370000001 cycles: 238839481 heartbeat IPC: 0.986588 cumulative IPC: 0.979966 (Simulation time: 1 hr 11 min 27 sec) 
Heartbeat CPU 0 instructions: 440000000 cycles: 239438372 heartbeat IPC: 1.48865 cumulative IPC: 1.4636 (Simulation time: 1 hr 11 min 36 sec) 
Heartbeat CPU 2 instructions: 330000002 cycles: 241391732 heartbeat IPC: 0.811149 cumulative IPC: 0.81789 (Simulation time: 1 hr 12 min 5 sec) 
Heartbeat CPU 3 instructions: 390000003 cycles: 243567683 heartbeat IPC: 1.17871 cumulative IPC: 1.16439 (Simulation time: 1 hr 12 min 37 sec) 
Heartbeat CPU 0 instructions: 450000002 cycles: 246094671 heartbeat IPC: 1.50234 cumulative IPC: 1.46517 (Simulation time: 1 hr 13 min 18 sec) 
Heartbeat CPU 1 instructions: 380000000 cycles: 250333273 heartbeat IPC: 0.870035 cumulative IPC: 0.97244 (Simulation time: 1 hr 14 min 26 sec) 
Heartbeat CPU 3 instructions: 400000000 cycles: 252046883 heartbeat IPC: 1.17936 cumulative IPC: 1.16514 (Simulation time: 1 hr 14 min 52 sec) 
Heartbeat CPU 0 instructions: 460000000 cycles: 252827278 heartbeat IPC: 1.48531 cumulative IPC: 1.46597 (Simulation time: 1 hr 15 min 6 sec) 
Heartbeat CPU 2 instructions: 340000000 cycles: 253317312 heartbeat IPC: 0.838533 cumulative IPC: 0.819331 (Simulation time: 1 hr 15 min 14 sec) 
Heartbeat CPU 0 instructions: 470000000 cycles: 259565270 heartbeat IPC: 1.48412 cumulative IPC: 1.46666 (Simulation time: 1 hr 16 min 44 sec) 
Heartbeat CPU 3 instructions: 410000001 cycles: 260584930 heartbeat IPC: 1.17123 cumulative IPC: 1.16543 (Simulation time: 1 hr 16 min 59 sec) 
Heartbeat CPU 1 instructions: 390000000 cycles: 260878474 heartbeat IPC: 0.948299 cumulative IPC: 0.971013 (Simulation time: 1 hr 17 min 3 sec) 
Heartbeat CPU 2 instructions: 350000001 cycles: 265406592 heartbeat IPC: 0.827179 cumulative IPC: 0.81985 (Simulation time: 1 hr 18 min 8 sec) 
Heartbeat CPU 0 instructions: 480000000 cycles: 266301183 heartbeat IPC: 1.48458 cumulative IPC: 1.46731 (Simulation time: 1 hr 18 min 21 sec) 
Heartbeat CPU 3 instructions: 420000000 cycles: 269061761 heartbeat IPC: 1.17969 cumulative IPC: 1.16608 (Simulation time: 1 hr 19 min 1 sec) 
Heartbeat CPU 1 instructions: 400000000 cycles: 271009291 heartbeat IPC: 0.987087 cumulative IPC: 0.971877 (Simulation time: 1 hr 19 min 29 sec) 
Heartbeat CPU 0 instructions: 490000002 cycles: 273058913 heartbeat IPC: 1.47979 cumulative IPC: 1.46776 (Simulation time: 1 hr 19 min 58 sec) 
Heartbeat CPU 3 instructions: 430000003 cycles: 277384971 heartbeat IPC: 1.20146 cumulative IPC: 1.16759 (Simulation time: 1 hr 21 min 1 sec) 
Heartbeat CPU 2 instructions: 360000000 cycles: 277510734 heartbeat IPC: 0.826163 cumulative IPC: 0.820242 (Simulation time: 1 hr 21 min 3 sec) 
Heartbeat CPU 0 instructions: 500000000 cycles: 279760376 heartbeat IPC: 1.49221 cumulative IPC: 1.46859 (Simulation time: 1 hr 21 min 36 sec) 
Heartbeat CPU 1 instructions: 410000001 cycles: 281085218 heartbeat IPC: 0.992465 cumulative IPC: 0.972921 (Simulation time: 1 hr 21 min 56 sec) 
Heartbeat CPU 3 instructions: 440000000 cycles: 284676900 heartbeat IPC: 1.37138 cumulative IPC: 1.17494 (Simulation time: 1 hr 22 min 49 sec) 
Heartbeat CPU 0 instructions: 510000001 cycles: 286461427 heartbeat IPC: 1.4923 cumulative IPC: 1.46937 (Simulation time: 1 hr 23 min 12 sec) 
Heartbeat CPU 2 instructions: 370000001 cycles: 289676932 heartbeat IPC: 0.82195 cumulative IPC: 0.820342 (Simulation time: 1 hr 23 min 57 sec) 
Heartbeat CPU 1 instructions: 420000000 cycles: 291103688 heartbeat IPC: 0.998156 cumulative IPC: 0.974132 (Simulation time: 1 hr 24 min 18 sec) 
Heartbeat CPU 0 instructions: 520000000 cycles: 293054276 heartbeat IPC: 1.51679 cumulative IPC: 1.47085 (Simulation time: 1 hr 24 min 44 sec) 
Heartbeat CPU 3 instructions: 450000000 cycles: 294892630 heartbeat IPC: 0.978883 cumulative IPC: 1.16551 (Simulation time: 1 hr 25 min 10 sec) 
Heartbeat CPU 0 instructions: 530000000 cycles: 299740065 heartbeat IPC: 1.49571 cumulative IPC: 1.47162 (Simulation time: 1 hr 26 min 18 sec) 
Heartbeat CPU 2 instructions: 380000000 cycles: 301752482 heartbeat IPC: 0.82812 cumulative IPC: 0.82077 (Simulation time: 1 hr 26 min 46 sec) 
Heartbeat CPU 1 instructions: 430000003 cycles: 302219084 heartbeat IPC: 0.899653 cumulative IPC: 0.970366 (Simulation time: 1 hr 26 min 53 sec) 
Heartbeat CPU 3 instructions: 460000000 cycles: 303484520 heartbeat IPC: 1.16389 cumulative IPC: 1.16545 (Simulation time: 1 hr 27 min 12 sec) 
Heartbeat CPU 0 instructions: 540000000 cycles: 306483410 heartbeat IPC: 1.48294 cumulative IPC: 1.47196 (Simulation time: 1 hr 27 min 55 sec) 
Heartbeat CPU 3 instructions: 470000003 cycles: 311261982 heartbeat IPC: 1.28577 cumulative IPC: 1.16953 (Simulation time: 1 hr 29 min 4 sec) 
Heartbeat CPU 1 instructions: 440000000 cycles: 312939720 heartbeat IPC: 0.93278 cumulative IPC: 0.968617 (Simulation time: 1 hr 29 min 27 sec) 
Heartbeat CPU 0 instructions: 550000003 cycles: 313139160 heartbeat IPC: 1.50246 cumulative IPC: 1.47284 (Simulation time: 1 hr 29 min 30 sec) 
Heartbeat CPU 2 instructions: 390000003 cycles: 314863947 heartbeat IPC: 0.762691 cumulative IPC: 0.817494 (Simulation time: 1 hr 29 min 53 sec) 
Heartbeat CPU 3 instructions: 480000000 cycles: 319891501 heartbeat IPC: 1.15881 cumulative IPC: 1.16915 (Simulation time: 1 hr 31 min 1 sec) 
Heartbeat CPU 0 instructions: 560000000 cycles: 319893780 heartbeat IPC: 1.48047 cumulative IPC: 1.47305 (Simulation time: 1 hr 31 min 1 sec) 
Heartbeat CPU 1 instructions: 450000001 cycles: 325398440 heartbeat IPC: 0.802651 cumulative IPC: 0.960107 (Simulation time: 1 hr 32 min 8 sec) 
Heartbeat CPU 2 instructions: 400000000 cycles: 327824888 heartbeat IPC: 0.771549 cumulative IPC: 0.815067 (Simulation time: 1 hr 32 min 41 sec) 
Heartbeat CPU 0 instructions: 570000001 cycles: 328493773 heartbeat IPC: 1.16279 cumulative IPC: 1.46221 (Simulation time: 1 hr 32 min 51 sec) 
Heartbeat CPU 3 instructions: 490000000 cycles: 329319055 heartbeat IPC: 1.06072 cumulative IPC: 1.165 (Simulation time: 1 hr 33 min 4 sec) 
Heartbeat CPU 0 instructions: 580000000 cycles: 333129579 heartbeat IPC: 2.15712 cumulative IPC: 1.47506 (Simulation time: 1 hr 34 min 3 sec) 
Heartbeat CPU 1 instructions: 460000000 cycles: 335473113 heartbeat IPC: 0.992588 cumulative IPC: 0.9614 (Simulation time: 1 hr 34 min 30 sec) 
Heartbeat CPU 3 instructions: 500000000 cycles: 338528074 heartbeat IPC: 1.08589 cumulative IPC: 1.16216 (Simulation time: 1 hr 35 min 10 sec) 
Heartbeat CPU 0 instructions: 590000002 cycles: 340786943 heartbeat IPC: 1.30593 cumulative IPC: 1.47005 (Simulation time: 1 hr 35 min 42 sec) 
Heartbeat CPU 2 instructions: 410000000 cycles: 341124535 heartbeat IPC: 0.7519 cumulative IPC: 0.811819 (Simulation time: 1 hr 35 min 46 sec) 
Heartbeat CPU 1 instructions: 470000001 cycles: 345605592 heartbeat IPC: 0.986925 cumulative IPC: 0.962383 (Simulation time: 1 hr 36 min 49 sec) 
Heartbeat CPU 3 instructions: 510000001 cycles: 345781648 heartbeat IPC: 1.37863 cumulative IPC: 1.16812 (Simulation time: 1 hr 36 min 51 sec) 
Heartbeat CPU 0 instructions: 600000000 cycles: 348178621 heartbeat IPC: 1.35287 cumulative IPC: 1.46679 (Simulation time: 1 hr 37 min 25 sec) 
Heartbeat CPU 2 instructions: 420000000 cycles: 353503544 heartbeat IPC: 0.807819 cumulative IPC: 0.811636 (Simulation time: 1 hr 38 min 34 sec) 
Heartbeat CPU 3 instructions: 520000000 cycles: 354394607 heartbeat IPC: 1.16104 cumulative IPC: 1.1679 (Simulation time: 1 hr 38 min 46 sec) 
Heartbeat CPU 0 instructions: 610000001 cycles: 355338149 heartbeat IPC: 1.39674 cumulative IPC: 1.46495 (Simulation time: 1 hr 38 min 59 sec) 
Heartbeat CPU 1 instructions: 480000000 cycles: 355852557 heartbeat IPC: 0.975899 cumulative IPC: 0.962889 (Simulation time: 1 hr 39 min 6 sec) 
Heartbeat CPU 0 instructions: 620000000 cycles: 362355705 heartbeat IPC: 1.425 cumulative IPC: 1.46395 (Simulation time: 1 hr 40 min 33 sec) 
Heartbeat CPU 3 instructions: 530000001 cycles: 363349269 heartbeat IPC: 1.11674 cumulative IPC: 1.16627 (Simulation time: 1 hr 40 min 45 sec) 
Heartbeat CPU 2 instructions: 430000001 cycles: 366220393 heartbeat IPC: 0.786358 cumulative IPC: 0.810504 (Simulation time: 1 hr 41 min 17 sec) 
Heartbeat CPU 0 instructions: 630000001 cycles: 369473526 heartbeat IPC: 1.40492 cumulative IPC: 1.46248 (Simulation time: 1 hr 41 min 56 sec) 
Heartbeat CPU 3 instructions: 540000000 cycles: 373493148 heartbeat IPC: 0.985816 cumulative IPC: 1.15998 (Simulation time: 1 hr 42 min 48 sec) 
Heartbeat CPU 1 instructions: 490000001 cycles: 373680587 heartbeat IPC: 0.560915 cumulative IPC: 0.938282 (Simulation time: 1 hr 42 min 51 sec) 
Heartbeat CPU 0 instructions: 640000000 cycles: 376554533 heartbeat IPC: 1.41223 cumulative IPC: 1.46127 (Simulation time: 1 hr 43 min 31 sec) 
Heartbeat CPU 2 instructions: 440000000 cycles: 379129596 heartbeat IPC: 0.774641 cumulative IPC: 0.808943 (Simulation time: 1 hr 44 min 7 sec) 
Heartbeat CPU 3 instructions: 550000003 cycles: 381984777 heartbeat IPC: 1.17763 cumulative IPC: 1.16048 (Simulation time: 1 hr 44 min 50 sec) 
Heartbeat CPU 0 instructions: 650000000 cycles: 383588518 heartbeat IPC: 1.42167 cumulative IPC: 1.46035 (Simulation time: 1 hr 45 min 19 sec) 
Heartbeat CPU 1 instructions: 500000000 cycles: 387369153 heartbeat IPC: 0.730537 cumulative IPC: 0.928956 (Simulation time: 1 hr 46 min 23 sec) 
Heartbeat CPU 3 instructions: 560000000 cycles: 390409722 heartbeat IPC: 1.18695 cumulative IPC: 1.1612 (Simulation time: 1 hr 47 min 14 sec) 
Heartbeat CPU 0 instructions: 660000000 cycles: 390596648 heartbeat IPC: 1.42691 cumulative IPC: 1.45959 (Simulation time: 1 hr 47 min 17 sec) 
Heartbeat CPU 2 instructions: 450000003 cycles: 392136017 heartbeat IPC: 0.768851 cumulative IPC: 0.807259 (Simulation time: 1 hr 47 min 36 sec) 
Heartbeat CPU 0 instructions: 670000002 cycles: 398763654 heartbeat IPC: 1.22444 cumulative IPC: 1.45352 (Simulation time: 1 hr 49 min 8 sec) 
Heartbeat CPU 3 instructions: 570000000 cycles: 398907957 heartbeat IPC: 1.17671 cumulative IPC: 1.16162 (Simulation time: 1 hr 49 min 10 sec) 
Heartbeat CPU 1 instructions: 510000000 cycles: 401111832 heartbeat IPC: 0.72766 cumulative IPC: 0.920275 (Simulation time: 1 hr 49 min 46 sec) 
Heartbeat CPU 0 instructions: 680000000 cycles: 403980907 heartbeat IPC: 1.91672 cumulative IPC: 1.46103 (Simulation time: 1 hr 50 min 28 sec) 
Heartbeat CPU 2 instructions: 460000000 cycles: 405225490 heartbeat IPC: 0.763972 cumulative IPC: 0.805504 (Simulation time: 1 hr 50 min 45 sec) 
Heartbeat CPU 3 instructions: 580000000 cycles: 407454426 heartbeat IPC: 1.17007 cumulative IPC: 1.16184 (Simulation time: 1 hr 51 min 16 sec) 
Heartbeat CPU 0 instructions: 690000000 cycles: 411306067 heartbeat IPC: 1.36516 cumulative IPC: 1.4589 (Simulation time: 1 hr 52 min 15 sec) 
Heartbeat CPU 1 instructions: 520000000 cycles: 414819354 heartbeat IPC: 0.729526 cumulative IPC: 0.912408 (Simulation time: 1 hr 53 min 4 sec) 
Heartbeat CPU 3 instructions: 590000002 cycles: 416017846 heartbeat IPC: 1.16776 cumulative IPC: 1.16199 (Simulation time: 1 hr 53 min 21 sec) 
Heartbeat CPU 2 instructions: 470000000 cycles: 418289431 heartbeat IPC: 0.765466 cumulative IPC: 0.803947 (Simulation time: 1 hr 53 min 52 sec) 
Heartbeat CPU 0 instructions: 700000000 cycles: 418867291 heartbeat IPC: 1.32254 cumulative IPC: 1.45583 (Simulation time: 1 hr 54 min 0 sec) 
Heartbeat CPU 3 instructions: 600000000 cycles: 424559208 heartbeat IPC: 1.17077 cumulative IPC: 1.16221 (Simulation time: 1 hr 55 min 20 sec) 
Heartbeat CPU 0 instructions: 710000000 cycles: 426394587 heartbeat IPC: 1.3285 cumulative IPC: 1.45305 (Simulation time: 1 hr 55 min 45 sec) 
Heartbeat CPU 1 instructions: 530000000 cycles: 428537824 heartbeat IPC: 0.728944 cumulative IPC: 0.905136 (Simulation time: 1 hr 56 min 15 sec) 
Heartbeat CPU 2 instructions: 480000000 cycles: 431352626 heartbeat IPC: 0.765509 cumulative IPC: 0.802508 (Simulation time: 1 hr 56 min 54 sec) 
Heartbeat CPU 3 instructions: 610000002 cycles: 433156918 heartbeat IPC: 1.1631 cumulative IPC: 1.16223 (Simulation time: 1 hr 57 min 19 sec) 
Heartbeat CPU 0 instructions: 720000000 cycles: 433849521 heartbeat IPC: 1.34139 cumulative IPC: 1.45068 (Simulation time: 1 hr 57 min 29 sec) 
Heartbeat CPU 3 instructions: 620000000 cycles: 440307295 heartbeat IPC: 1.39853 cumulative IPC: 1.16696 (Simulation time: 1 hr 59 min 1 sec) 
Heartbeat CPU 0 instructions: 730000000 cycles: 441308977 heartbeat IPC: 1.34058 cumulative IPC: 1.44839 (Simulation time: 1 hr 59 min 16 sec) 
Heartbeat CPU 1 instructions: 540000000 cycles: 442249488 heartbeat IPC: 0.729306 cumulative IPC: 0.898435 (Simulation time: 1 hr 59 min 29 sec) 
Heartbeat CPU 2 instructions: 490000000 cycles: 444428679 heartbeat IPC: 0.764757 cumulative IPC: 0.801144 (Simulation time: 1 hr 59 min 58 sec) 
Heartbeat CPU 0 instructions: 740000000 cycles: 448739902 heartbeat IPC: 1.34573 cumulative IPC: 1.44631 (Simulation time: 2 hr 1 min 2 sec) 
Heartbeat CPU 3 instructions: 630000001 cycles: 450014797 heartbeat IPC: 1.03013 cumulative IPC: 1.16334 (Simulation time: 2 hr 1 min 22 sec) 
Heartbeat CPU 1 instructions: 550000000 cycles: 455944477 heartbeat IPC: 0.730194 cumulative IPC: 0.892267 (Simulation time: 2 hr 2 min 54 sec) 
Heartbeat CPU 0 instructions: 750000003 cycles: 456159838 heartbeat IPC: 1.34772 cumulative IPC: 1.44435 (Simulation time: 2 hr 2 min 57 sec) 
Heartbeat CPU 2 instructions: 500000000 cycles: 457471808 heartbeat IPC: 0.766687 cumulative IPC: 0.799945 (Simulation time: 2 hr 3 min 15 sec) 
Heartbeat CPU 3 instructions: 640000000 cycles: 458935944 heartbeat IPC: 1.12093 cumulative IPC: 1.16234 (Simulation time: 2 hr 3 min 37 sec) 
Heartbeat CPU 0 instructions: 760000000 cycles: 466103032 heartbeat IPC: 1.00571 cumulative IPC: 1.43298 (Simulation time: 2 hr 5 min 9 sec) 
Heartbeat CPU 3 instructions: 650000000 cycles: 466819578 heartbeat IPC: 1.26845 cumulative IPC: 1.16451 (Simulation time: 2 hr 5 min 20 sec) 
Heartbeat CPU 2 instructions: 510000000 cycles: 470431027 heartbeat IPC: 0.771651 cumulative IPC: 0.799 (Simulation time: 2 hr 6 min 16 sec) 
Heartbeat CPU 0 instructions: 770000003 cycles: 470846859 heartbeat IPC: 2.108 cumulative IPC: 1.44123 (Simulation time: 2 hr 6 min 22 sec) 
Heartbeat CPU 1 instructions: 560000000 cycles: 471562670 heartbeat IPC: 0.640279 cumulative IPC: 0.882152 (Simulation time: 2 hr 6 min 32 sec) 
Heartbeat CPU 3 instructions: 660000000 cycles: 475414022 heartbeat IPC: 1.16354 cumulative IPC: 1.16449 (Simulation time: 2 hr 7 min 14 sec) 
Heartbeat CPU 0 instructions: 780000000 cycles: 478119323 heartbeat IPC: 1.37505 cumulative IPC: 1.44001 (Simulation time: 2 hr 7 min 43 sec) 
Heartbeat CPU 2 instructions: 520000000 cycles: 483603219 heartbeat IPC: 0.759175 cumulative IPC: 0.797693 (Simulation time: 2 hr 8 min 52 sec) 
Heartbeat CPU 3 instructions: 670000001 cycles: 484730822 heartbeat IPC: 1.07333 cumulative IPC: 1.16238 (Simulation time: 2 hr 9 min 7 sec) 
Heartbeat CPU 0 instructions: 790000003 cycles: 485632386 heartbeat IPC: 1.33102 cumulative IPC: 1.43798 (Simulation time: 2 hr 9 min 19 sec) 
Heartbeat CPU 1 instructions: 570000003 cycles: 489964472 heartbeat IPC: 0.543425 cumulative IPC: 0.866857 (Simulation time: 2 hr 10 min 15 sec) 
Heartbeat CPU 0 instructions: 800000000 cycles: 493110108 heartbeat IPC: 1.33731 cumulative IPC: 1.43615 (Simulation time: 2 hr 10 min 55 sec) 
Heartbeat CPU 3 instructions: 680000000 cycles: 494576461 heartbeat IPC: 1.01568 cumulative IPC: 1.15888 (Simulation time: 2 hr 11 min 13 sec) 
Heartbeat CPU 2 instructions: 530000002 cycles: 496573349 heartbeat IPC: 0.771002 cumulative IPC: 0.796857 (Simulation time: 2 hr 11 min 40 sec) 
Heartbeat CPU 0 instructions: 810000003 cycles: 500566982 heartbeat IPC: 1.34104 cumulative IPC: 1.43445 (Simulation time: 2 hr 12 min 32 sec) 
Heartbeat CPU 3 instructions: 690000000 cycles: 501493950 heartbeat IPC: 1.44561 cumulative IPC: 1.16361 (Simulation time: 2 hr 12 min 44 sec) 
Heartbeat CPU 1 instructions: 580000000 cycles: 503641752 heartbeat IPC: 0.731139 cumulative IPC: 0.86245 (Simulation time: 2 hr 13 min 13 sec) 
Heartbeat CPU 0 instructions: 820000000 cycles: 508030382 heartbeat IPC: 1.33987 cumulative IPC: 1.43279 (Simulation time: 2 hr 14 min 11 sec) 
Heartbeat CPU 3 instructions: 700000000 cycles: 509021434 heartbeat IPC: 1.32847 cumulative IPC: 1.16652 (Simulation time: 2 hr 14 min 24 sec) 
Heartbeat CPU 2 instructions: 540000000 cycles: 509513573 heartbeat IPC: 0.772784 cumulative IPC: 0.796127 (Simulation time: 2 hr 14 min 30 sec) 
Heartbeat CPU 0 instructions: 830000003 cycles: 515514999 heartbeat IPC: 1.33607 cumulative IPC: 1.43112 (Simulation time: 2 hr 15 min 46 sec) 
Heartbeat CPU 1 instructions: 590000002 cycles: 517334963 heartbeat IPC: 0.730289 cumulative IPC: 0.858289 (Simulation time: 2 hr 16 min 10 sec) 
Heartbeat CPU 3 instructions: 710000001 cycles: 518380911 heartbeat IPC: 1.06844 cumulative IPC: 1.16441 (Simulation time: 2 hr 16 min 23 sec) 
Heartbeat CPU 2 instructions: 550000002 cycles: 522470065 heartbeat IPC: 0.771814 cumulative IPC: 0.795411 (Simulation time: 2 hr 17 min 17 sec) 
Heartbeat CPU 0 instructions: 840000000 cycles: 522981999 heartbeat IPC: 1.33923 cumulative IPC: 1.42956 (Simulation time: 2 hr 17 min 23 sec) 
Heartbeat CPU 3 instructions: 720000000 cycles: 528075795 heartbeat IPC: 1.03147 cumulative IPC: 1.16152 (Simulation time: 2 hr 18 min 30 sec) 
Heartbeat CPU 0 instructions: 850000001 cycles: 530487404 heartbeat IPC: 1.33237 cumulative IPC: 1.42793 (Simulation time: 2 hr 18 min 59 sec) 
Heartbeat CPU 1 instructions: 600000000 cycles: 531005747 heartbeat IPC: 0.731487 cumulative IPC: 0.854424 (Simulation time: 2 hr 19 min 6 sec) 
Heartbeat CPU 2 instructions: 560000000 cycles: 535403375 heartbeat IPC: 0.773197 cumulative IPC: 0.794777 (Simulation time: 2 hr 20 min 5 sec) 
Heartbeat CPU 3 instructions: 730000000 cycles: 536984399 heartbeat IPC: 1.12251 cumulative IPC: 1.16076 (Simulation time: 2 hr 20 min 26 sec) 
Heartbeat CPU 0 instructions: 860000000 cycles: 537961855 heartbeat IPC: 1.33789 cumulative IPC: 1.42646 (Simulation time: 2 hr 20 min 40 sec) 
Heartbeat CPU 1 instructions: 610000002 cycles: 544706711 heartbeat IPC: 0.729876 cumulative IPC: 0.850733 (Simulation time: 2 hr 22 min 12 sec) 
Heartbeat CPU 0 instructions: 870000001 cycles: 545477064 heartbeat IPC: 1.33064 cumulative IPC: 1.4249 (Simulation time: 2 hr 22 min 22 sec) 
Heartbeat CPU 3 instructions: 740000000 cycles: 545601083 heartbeat IPC: 1.16054 cumulative IPC: 1.16075 (Simulation time: 2 hr 22 min 24 sec) 
Heartbeat CPU 2 instructions: 570000001 cycles: 548320826 heartbeat IPC: 0.774147 cumulative IPC: 0.794205 (Simulation time: 2 hr 23 min 1 sec) 
Heartbeat CPU 0 instructions: 880000000 cycles: 553006780 heartbeat IPC: 1.32807 cumulative IPC: 1.42335 (Simulation time: 2 hr 24 min 4 sec) 
Heartbeat CPU 3 instructions: 750000001 cycles: 554268476 heartbeat IPC: 1.15375 cumulative IPC: 1.16062 (Simulation time: 2 hr 24 min 22 sec) 
Heartbeat CPU 1 instructions: 620000000 cycles: 558370262 heartbeat IPC: 0.731874 cumulative IPC: 0.84732 (Simulation time: 2 hr 25 min 17 sec) 
Heartbeat CPU 0 instructions: 890000000 cycles: 560516972 heartbeat IPC: 1.33152 cumulative IPC: 1.42191 (Simulation time: 2 hr 25 min 46 sec) 
Heartbeat CPU 2 instructions: 580000000 cycles: 561186637 heartbeat IPC: 0.777254 cumulative IPC: 0.79375 (Simulation time: 2 hr 25 min 56 sec) 
Heartbeat CPU 3 instructions: 760000000 cycles: 562897878 heartbeat IPC: 1.15883 cumulative IPC: 1.16059 (Simulation time: 2 hr 26 min 19 sec) 
Heartbeat CPU 0 instructions: 900000000 cycles: 568020428 heartbeat IPC: 1.33272 cumulative IPC: 1.42053 (Simulation time: 2 hr 27 min 29 sec) 
Heartbeat CPU 3 instructions: 770000003 cycles: 571350988 heartbeat IPC: 1.183 cumulative IPC: 1.16098 (Simulation time: 2 hr 28 min 14 sec) 
Heartbeat CPU 1 instructions: 630000002 cycles: 572058173 heartbeat IPC: 0.730572 cumulative IPC: 0.844056 (Simulation time: 2 hr 28 min 24 sec) 
Heartbeat CPU 2 instructions: 590000002 cycles: 574105478 heartbeat IPC: 0.774063 cumulative IPC: 0.793232 (Simulation time: 2 hr 28 min 52 sec) 
Heartbeat CPU 0 instructions: 910000000 cycles: 575499598 heartbeat IPC: 1.33705 cumulative IPC: 1.41926 (Simulation time: 2 hr 29 min 11 sec) 
Heartbeat CPU 3 instructions: 780000000 cycles: 579966627 heartbeat IPC: 1.16068 cumulative IPC: 1.16097 (Simulation time: 2 hr 30 min 6 sec) 
Heartbeat CPU 0 instructions: 920000000 cycles: 582969869 heartbeat IPC: 1.33864 cumulative IPC: 1.41806 (Simulation time: 2 hr 30 min 41 sec) 
Heartbeat CPU 2 instructions: 600000000 cycles: 587035324 heartbeat IPC: 0.773404 cumulative IPC: 0.792724 (Simulation time: 2 hr 31 min 30 sec) 
Heartbeat CPU 3 instructions: 790000001 cycles: 589106413 heartbeat IPC: 1.09412 cumulative IPC: 1.15977 (Simulation time: 2 hr 31 min 58 sec) 
Heartbeat CPU 0 instructions: 930000002 cycles: 590477448 heartbeat IPC: 1.33199 cumulative IPC: 1.41679 (Simulation time: 2 hr 32 min 17 sec) 
Heartbeat CPU 1 instructions: 640000000 cycles: 591197101 heartbeat IPC: 0.522495 cumulative IPC: 0.831959 (Simulation time: 2 hr 32 min 27 sec) 
Heartbeat CPU 3 instructions: 800000000 cycles: 596852224 heartbeat IPC: 1.29102 cumulative IPC: 1.16174 (Simulation time: 2 hr 33 min 45 sec) 
Heartbeat CPU 0 instructions: 940000000 cycles: 597980136 heartbeat IPC: 1.33286 cumulative IPC: 1.41557 (Simulation time: 2 hr 34 min 1 sec) 
Heartbeat CPU 2 instructions: 610000002 cycles: 599902324 heartbeat IPC: 0.777182 cumulative IPC: 0.792338 (Simulation time: 2 hr 34 min 28 sec) 
Heartbeat CPU 1 instructions: 650000001 cycles: 604875547 heartbeat IPC: 0.731077 cumulative IPC: 0.829318 (Simulation time: 2 hr 35 min 30 sec) 
Heartbeat CPU 3 instructions: 810000000 cycles: 604919123 heartbeat IPC: 1.23963 cumulative IPC: 1.16295 (Simulation time: 2 hr 35 min 31 sec) 
Heartbeat CPU 0 instructions: 950000002 cycles: 605468963 heartbeat IPC: 1.33532 cumulative IPC: 1.41442 (Simulation time: 2 hr 35 min 38 sec) 
Heartbeat CPU 2 instructions: 620000000 cycles: 612806895 heartbeat IPC: 0.774919 cumulative IPC: 0.791914 (Simulation time: 2 hr 37 min 8 sec) 
Heartbeat CPU 0 instructions: 960000000 cycles: 612958898 heartbeat IPC: 1.33512 cumulative IPC: 1.4133 (Simulation time: 2 hr 37 min 10 sec) 
Heartbeat CPU 3 instructions: 820000000 cycles: 614491948 heartbeat IPC: 1.04462 cumulative IPC: 1.16082 (Simulation time: 2 hr 37 min 30 sec) 
Heartbeat CPU 1 instructions: 660000000 cycles: 618558283 heartbeat IPC: 0.730848 cumulative IPC: 0.826805 (Simulation time: 2 hr 38 min 21 sec) 
Heartbeat CPU 0 instructions: 970000001 cycles: 620453754 heartbeat IPC: 1.33425 cumulative IPC: 1.4122 (Simulation time: 2 hr 38 min 46 sec) 
Heartbeat CPU 3 instructions: 830000001 cycles: 622610739 heartbeat IPC: 1.23171 cumulative IPC: 1.16188 (Simulation time: 2 hr 39 min 15 sec) 
Heartbeat CPU 2 instructions: 630000002 cycles: 625790729 heartbeat IPC: 0.770189 cumulative IPC: 0.791395 (Simulation time: 2 hr 39 min 56 sec) 
Heartbeat CPU 0 instructions: 980000000 cycles: 627989892 heartbeat IPC: 1.32694 cumulative IPC: 1.41102 (Simulation time: 2 hr 40 min 25 sec) 
Heartbeat CPU 3 instructions: 840000000 cycles: 630038344 heartbeat IPC: 1.34633 cumulative IPC: 1.16438 (Simulation time: 2 hr 40 min 52 sec) 
Heartbeat CPU 1 instructions: 670000000 cycles: 632236388 heartbeat IPC: 0.731095 cumulative IPC: 0.824424 (Simulation time: 2 hr 41 min 21 sec) 
Heartbeat CPU 0 instructions: 990000002 cycles: 635505247 heartbeat IPC: 1.33061 cumulative IPC: 1.40993 (Simulation time: 2 hr 42 min 0 sec) 
Heartbeat CPU 2 instructions: 640000000 cycles: 638816583 heartbeat IPC: 0.767704 cumulative IPC: 0.79084 (Simulation time: 2 hr 42 min 40 sec) 
Heartbeat CPU 3 instructions: 850000001 cycles: 638896110 heartbeat IPC: 1.12895 cumulative IPC: 1.16382 (Simulation time: 2 hr 42 min 40 sec) 
Heartbeat CPU 0 instructions: 1000000000 cycles: 643021238 heartbeat IPC: 1.3305 cumulative IPC: 1.40886 (Simulation time: 2 hr 43 min 33 sec) 
Heartbeat CPU 1 instructions: 680000000 cycles: 645934308 heartbeat IPC: 0.730038 cumulative IPC: 0.822129 (Simulation time: 2 hr 44 min 8 sec) 
Heartbeat CPU 3 instructions: 860000000 cycles: 648541659 heartbeat IPC: 1.03675 cumulative IPC: 1.16166 (Simulation time: 2 hr 44 min 40 sec) 
Heartbeat CPU 0 instructions: 1010000000 cycles: 650549354 heartbeat IPC: 1.32835 cumulative IPC: 1.4078 (Simulation time: 2 hr 45 min 4 sec) 
Heartbeat CPU 2 instructions: 650000001 cycles: 651802695 heartbeat IPC: 0.770054 cumulative IPC: 0.790366 (Simulation time: 2 hr 45 min 19 sec) 
Heartbeat CPU 3 instructions: 870000001 cycles: 656692804 heartbeat IPC: 1.22682 cumulative IPC: 1.16258 (Simulation time: 2 hr 46 min 20 sec) 
Heartbeat CPU 0 instructions: 1020000000 cycles: 658056619 heartbeat IPC: 1.33204 cumulative IPC: 1.40681 (Simulation time: 2 hr 46 min 37 sec) 
Heartbeat CPU 1 instructions: 690000000 cycles: 659631517 heartbeat IPC: 0.730076 cumulative IPC: 0.819945 (Simulation time: 2 hr 46 min 57 sec) 
Heartbeat CPU 3 instructions: 880000000 cycles: 663875248 heartbeat IPC: 1.39228 cumulative IPC: 1.16542 (Simulation time: 2 hr 47 min 51 sec) 
Heartbeat CPU 2 instructions: 660000000 cycles: 664770966 heartbeat IPC: 0.771113 cumulative IPC: 0.789937 (Simulation time: 2 hr 48 min 3 sec) 
Heartbeat CPU 0 instructions: 1030000001 cycles: 665551409 heartbeat IPC: 1.33426 cumulative IPC: 1.40587 (Simulation time: 2 hr 48 min 12 sec) 
Heartbeat CPU 3 instructions: 890000000 cycles: 672938231 heartbeat IPC: 1.10339 cumulative IPC: 1.16447 (Simulation time: 2 hr 49 min 42 sec) 
Heartbeat CPU 0 instructions: 1040000000 cycles: 673055261 heartbeat IPC: 1.33265 cumulative IPC: 1.40494 (Simulation time: 2 hr 49 min 44 sec) 
Heartbeat CPU 1 instructions: 700000000 cycles: 673318241 heartbeat IPC: 0.730635 cumulative IPC: 0.817876 (Simulation time: 2 hr 49 min 47 sec) 
Heartbeat CPU 2 instructions: 670000000 cycles: 677766354 heartbeat IPC: 0.769504 cumulative IPC: 0.789491 (Simulation time: 2 hr 50 min 42 sec) 
Heartbeat CPU 0 instructions: 1050000003 cycles: 680547635 heartbeat IPC: 1.33469 cumulative IPC: 1.40406 (Simulation time: 2 hr 51 min 17 sec) 
Heartbeat CPU 3 instructions: 900000000 cycles: 682295194 heartbeat IPC: 1.06872 cumulative IPC: 1.16297 (Simulation time: 2 hr 51 min 39 sec) 
Heartbeat CPU 0 instructions: 1060000000 cycles: 688149079 heartbeat IPC: 1.31554 cumulative IPC: 1.40295 (Simulation time: 2 hr 52 min 45 sec) 
Heartbeat CPU 2 instructions: 680000000 cycles: 690734749 heartbeat IPC: 0.771105 cumulative IPC: 0.789099 (Simulation time: 2 hr 53 min 12 sec) 
Heartbeat CPU 3 instructions: 910000002 cycles: 692337368 heartbeat IPC: 0.9958 cumulative IPC: 1.16022 (Simulation time: 2 hr 53 min 30 sec) 
Heartbeat CPU 1 instructions: 710000000 cycles: 692624090 heartbeat IPC: 0.517978 cumulative IPC: 0.808387 (Simulation time: 2 hr 53 min 34 sec) 
Heartbeat CPU 0 instructions: 1070000002 cycles: 695807916 heartbeat IPC: 1.30568 cumulative IPC: 1.40174 (Simulation time: 2 hr 54 min 13 sec) 
Heartbeat CPU 3 instructions: 920000000 cycles: 700846717 heartbeat IPC: 1.17518 cumulative IPC: 1.16043 (Simulation time: 2 hr 55 min 19 sec) 
Heartbeat CPU 0 instructions: 1080000000 cycles: 703375727 heartbeat IPC: 1.32139 cumulative IPC: 1.40076 (Simulation time: 2 hr 55 min 52 sec) 
Heartbeat CPU 2 instructions: 690000001 cycles: 703801590 heartbeat IPC: 0.765296 cumulative IPC: 0.788599 (Simulation time: 2 hr 55 min 58 sec) 
Heartbeat CPU 1 instructions: 720000000 cycles: 706740732 heartbeat IPC: 0.708384 cumulative IPC: 0.806126 (Simulation time: 2 hr 56 min 36 sec) 
Heartbeat CPU 3 instructions: 930000002 cycles: 709313339 heartbeat IPC: 1.18111 cumulative IPC: 1.16071 (Simulation time: 2 hr 57 min 9 sec) 
Heartbeat CPU 0 instructions: 1090000001 cycles: 710951773 heartbeat IPC: 1.31995 cumulative IPC: 1.39979 (Simulation time: 2 hr 57 min 31 sec) 
Heartbeat CPU 2 instructions: 700000000 cycles: 716672646 heartbeat IPC: 0.776937 cumulative IPC: 0.788362 (Simulation time: 2 hr 58 min 46 sec) 
Heartbeat CPU 3 instructions: 940000000 cycles: 717523773 heartbeat IPC: 1.21796 cumulative IPC: 1.16145 (Simulation time: 2 hr 58 min 58 sec) 
Heartbeat CPU 0 instructions: 1100000000 cycles: 718518813 heartbeat IPC: 1.32152 cumulative IPC: 1.39885 (Simulation time: 2 hr 59 min 11 sec) 
Heartbeat CPU 1 instructions: 730000001 cycles: 720424307 heartbeat IPC: 0.730803 cumulative IPC: 0.80451 (Simulation time: 2 hr 59 min 36 sec) 
Heartbeat CPU 3 instructions: 950000003 cycles: 725863207 heartbeat IPC: 1.19912 cumulative IPC: 1.16193 (Simulation time: 3 hr 0 min 51 sec) 
Heartbeat CPU 0 instructions: 1110000002 cycles: 726047377 heartbeat IPC: 1.32827 cumulative IPC: 1.39803 (Simulation time: 3 hr 0 min 53 sec) 
Heartbeat CPU 2 instructions: 710000000 cycles: 729576868 heartbeat IPC: 0.77494 cumulative IPC: 0.788094 (Simulation time: 3 hr 1 min 42 sec) 
Heartbeat CPU 0 instructions: 1120000000 cycles: 733518274 heartbeat IPC: 1.33853 cumulative IPC: 1.39735 (Simulation time: 3 hr 2 min 36 sec) 
Heartbeat CPU 1 instructions: 740000000 cycles: 734103035 heartbeat IPC: 0.731062 cumulative IPC: 0.802969 (Simulation time: 3 hr 2 min 44 sec) 
Heartbeat CPU 3 instructions: 960000000 cycles: 734160730 heartbeat IPC: 1.20518 cumulative IPC: 1.16248 (Simulation time: 3 hr 2 min 45 sec) 
Heartbeat CPU 0 instructions: 1130000003 cycles: 740969682 heartbeat IPC: 1.34203 cumulative IPC: 1.39672 (Simulation time: 3 hr 4 min 18 sec) 
Heartbeat CPU 2 instructions: 720000000 cycles: 742474795 heartbeat IPC: 0.775318 cumulative IPC: 0.787845 (Simulation time: 3 hr 4 min 38 sec) 
Heartbeat CPU 3 instructions: 970000000 cycles: 742657692 heartbeat IPC: 1.17689 cumulative IPC: 1.16267 (Simulation time: 3 hr 4 min 41 sec) 
Heartbeat CPU 1 instructions: 750000002 cycles: 747770520 heartbeat IPC: 0.731664 cumulative IPC: 0.801504 (Simulation time: 3 hr 5 min 50 sec) 
Heartbeat CPU 0 instructions: 1140000000 cycles: 748420339 heartbeat IPC: 1.34216 cumulative IPC: 1.39611 (Simulation time: 3 hr 5 min 58 sec) 
Heartbeat CPU 3 instructions: 980000000 cycles: 751302377 heartbeat IPC: 1.15678 cumulative IPC: 1.16259 (Simulation time: 3 hr 6 min 36 sec) 
Heartbeat CPU 2 instructions: 730000003 cycles: 755363836 heartbeat IPC: 0.775853 cumulative IPC: 0.787615 (Simulation time: 3 hr 7 min 32 sec) 
Heartbeat CPU 0 instructions: 1150000000 cycles: 755889702 heartbeat IPC: 1.3388 cumulative IPC: 1.39547 (Simulation time: 3 hr 7 min 39 sec) 
Heartbeat CPU 3 instructions: 990000002 cycles: 758470492 heartbeat IPC: 1.39507 cumulative IPC: 1.16506 (Simulation time: 3 hr 8 min 14 sec) 
Heartbeat CPU 1 instructions: 760000000 cycles: 761462629 heartbeat IPC: 0.730348 cumulative IPC: 0.800069 (Simulation time: 3 hr 8 min 53 sec) 
Heartbeat CPU 0 instructions: 1160000000 cycles: 763364517 heartbeat IPC: 1.33783 cumulative IPC: 1.39484 (Simulation time: 3 hr 9 min 18 sec) 
Heartbeat CPU 2 instructions: 740000000 cycles: 768251825 heartbeat IPC: 0.775916 cumulative IPC: 0.787395 (Simulation time: 3 hr 10 min 21 sec) 
Heartbeat CPU 3 instructions: 1000000000 cycles: 768329001 heartbeat IPC: 1.01435 cumulative IPC: 1.16289 (Simulation time: 3 hr 10 min 22 sec) 
Heartbeat CPU 0 instructions: 1170000002 cycles: 770841606 heartbeat IPC: 1.33742 cumulative IPC: 1.39422 (Simulation time: 3 hr 10 min 55 sec) 
Heartbeat CPU 1 instructions: 770000002 cycles: 775109994 heartbeat IPC: 0.732742 cumulative IPC: 0.798743 (Simulation time: 3 hr 11 min 54 sec) 
Heartbeat CPU 3 instructions: 1010000002 cycles: 776746560 heartbeat IPC: 1.18799 cumulative IPC: 1.1632 (Simulation time: 3 hr 12 min 17 sec) 
Heartbeat CPU 0 instructions: 1180000000 cycles: 778314917 heartbeat IPC: 1.33809 cumulative IPC: 1.39361 (Simulation time: 3 hr 12 min 39 sec) 
Heartbeat CPU 2 instructions: 750000000 cycles: 781154509 heartbeat IPC: 0.775033 cumulative IPC: 0.787167 (Simulation time: 3 hr 13 min 18 sec) 
Heartbeat CPU 3 instructions: 1020000000 cycles: 784221628 heartbeat IPC: 1.33778 cumulative IPC: 1.16506 (Simulation time: 3 hr 14 min 1 sec) 
Heartbeat CPU 0 instructions: 1190000003 cycles: 785808211 heartbeat IPC: 1.33453 cumulative IPC: 1.39299 (Simulation time: 3 hr 14 min 23 sec) 
Heartbeat CPU 1 instructions: 780000000 cycles: 788825440 heartbeat IPC: 0.729105 cumulative IPC: 0.79739 (Simulation time: 3 hr 15 min 5 sec) 
Heartbeat CPU 3 instructions: 1030000000 cycles: 792420768 heartbeat IPC: 1.21964 cumulative IPC: 1.16569 (Simulation time: 3 hr 15 min 52 sec) 
Heartbeat CPU 0 instructions: 1200000000 cycles: 793338746 heartbeat IPC: 1.32793 cumulative IPC: 1.3923 (Simulation time: 3 hr 16 min 1 sec) 
Heartbeat CPU 2 instructions: 760000000 cycles: 794023558 heartbeat IPC: 0.777058 cumulative IPC: 0.786984 (Simulation time: 3 hr 16 min 8 sec) 
Heartbeat CPU 0 instructions: 1210000003 cycles: 800870557 heartbeat IPC: 1.3277 cumulative IPC: 1.39162 (Simulation time: 3 hr 17 min 27 sec) 
Finished CPU 0 instructions: 1000000003 cycles: 718601634 cumulative IPC: 1.39159 (Simulation time: 3 hr 17 min 29 sec) 
Heartbeat CPU 3 instructions: 1040000000 cycles: 802117184 heartbeat IPC: 1.03131 cumulative IPC: 1.16388 (Simulation time: 3 hr 17 min 41 sec) 
Heartbeat CPU 2 instructions: 770000002 cycles: 806880892 heartbeat IPC: 0.777766 cumulative IPC: 0.78682 (Simulation time: 3 hr 18 min 43 sec) 
Heartbeat CPU 0 instructions: 1220000000 cycles: 808349231 heartbeat IPC: 1.33714 cumulative IPC: 1.39106 (Simulation time: 3 hr 19 min 1 sec) 
Heartbeat CPU 1 instructions: 790000003 cycles: 808844745 heartbeat IPC: 0.499518 cumulative IPC: 0.789181 (Simulation time: 3 hr 19 min 7 sec) 
Heartbeat CPU 3 instructions: 1050000001 cycles: 811296955 heartbeat IPC: 1.08935 cumulative IPC: 1.16294 (Simulation time: 3 hr 19 min 40 sec) 
Heartbeat CPU 0 instructions: 1230000001 cycles: 815777455 heartbeat IPC: 1.34622 cumulative IPC: 1.3906 (Simulation time: 3 hr 20 min 39 sec) 
Heartbeat CPU 3 instructions: 1060000000 cycles: 818448234 heartbeat IPC: 1.39835 cumulative IPC: 1.16523 (Simulation time: 3 hr 21 min 12 sec) 
Heartbeat CPU 2 instructions: 780000000 cycles: 819777891 heartbeat IPC: 0.775374 cumulative IPC: 0.78662 (Simulation time: 3 hr 21 min 29 sec) 
Heartbeat CPU 1 instructions: 800000000 cycles: 822574045 heartbeat IPC: 0.728369 cumulative IPC: 0.788053 (Simulation time: 3 hr 22 min 5 sec) 
Heartbeat CPU 0 instructions: 1240000000 cycles: 823260095 heartbeat IPC: 1.33643 cumulative IPC: 1.39006 (Simulation time: 3 hr 22 min 13 sec) 
Heartbeat CPU 3 instructions: 1070000001 cycles: 827254350 heartbeat IPC: 1.13557 cumulative IPC: 1.16487 (Simulation time: 3 hr 23 min 1 sec) 
Heartbeat CPU 0 instructions: 1250000002 cycles: 830735481 heartbeat IPC: 1.33772 cumulative IPC: 1.38953 (Simulation time: 3 hr 23 min 43 sec) 
Heartbeat CPU 2 instructions: 790000002 cycles: 832591628 heartbeat IPC: 0.780413 cumulative IPC: 0.786514 (Simulation time: 3 hr 24 min 6 sec) 
Heartbeat CPU 3 instructions: 1080000000 cycles: 836328507 heartbeat IPC: 1.10203 cumulative IPC: 1.16412 (Simulation time: 3 hr 24 min 53 sec) 
Heartbeat CPU 1 instructions: 810000002 cycles: 836329079 heartbeat IPC: 0.727007 cumulative IPC: 0.786939 (Simulation time: 3 hr 24 min 53 sec) 
Heartbeat CPU 0 instructions: 1260000000 cycles: 838223756 heartbeat IPC: 1.33542 cumulative IPC: 1.389 (Simulation time: 3 hr 25 min 17 sec) 
Heartbeat CPU 2 instructions: 800000000 cycles: 845428751 heartbeat IPC: 0.778991 cumulative IPC: 0.786388 (Simulation time: 3 hr 26 min 47 sec) 
Heartbeat CPU 0 instructions: 1270000002 cycles: 845707052 heartbeat IPC: 1.33631 cumulative IPC: 1.38848 (Simulation time: 3 hr 26 min 50 sec) 
Heartbeat CPU 3 instructions: 1090000000 cycles: 846334862 heartbeat IPC: 0.999365 cumulative IPC: 1.16196 (Simulation time: 3 hr 26 min 58 sec) 
Heartbeat CPU 1 instructions: 820000000 cycles: 850038110 heartbeat IPC: 0.729446 cumulative IPC: 0.785912 (Simulation time: 3 hr 27 min 46 sec) 
Heartbeat CPU 0 instructions: 1280000000 cycles: 853200274 heartbeat IPC: 1.33454 cumulative IPC: 1.38796 (Simulation time: 3 hr 28 min 27 sec) 
Heartbeat CPU 3 instructions: 1100000000 cycles: 855206332 heartbeat IPC: 1.12721 cumulative IPC: 1.16156 (Simulation time: 3 hr 28 min 53 sec) 
Heartbeat CPU 2 instructions: 810000002 cycles: 858239302 heartbeat IPC: 0.780607 cumulative IPC: 0.786292 (Simulation time: 3 hr 29 min 32 sec) 
Heartbeat CPU 0 instructions: 1290000002 cycles: 861469076 heartbeat IPC: 1.20937 cumulative IPC: 1.38606 (Simulation time: 3 hr 30 min 15 sec) 
Heartbeat CPU 1 instructions: 830000000 cycles: 863799617 heartbeat IPC: 0.726665 cumulative IPC: 0.784869 (Simulation time: 3 hr 30 min 46 sec) 
Heartbeat CPU 3 instructions: 1110000001 cycles: 863934892 heartbeat IPC: 1.14566 cumulative IPC: 1.16138 (Simulation time: 3 hr 30 min 48 sec) 
Heartbeat CPU 0 instructions: 1300000000 cycles: 869018664 heartbeat IPC: 1.32458 cumulative IPC: 1.38547 (Simulation time: 3 hr 31 min 55 sec) 
Heartbeat CPU 2 instructions: 820000000 cycles: 871052594 heartbeat IPC: 0.780439 cumulative IPC: 0.786197 (Simulation time: 3 hr 32 min 22 sec) 
Heartbeat CPU 3 instructions: 1120000000 cycles: 872374357 heartbeat IPC: 1.18491 cumulative IPC: 1.16163 (Simulation time: 3 hr 32 min 39 sec) 
Heartbeat CPU 0 instructions: 1310000000 cycles: 876596078 heartbeat IPC: 1.31971 cumulative IPC: 1.38484 (Simulation time: 3 hr 33 min 35 sec) 
Heartbeat CPU 1 instructions: 840000000 cycles: 877524877 heartbeat IPC: 0.728584 cumulative IPC: 0.783897 (Simulation time: 3 hr 33 min 47 sec) 
Heartbeat CPU 3 instructions: 1130000000 cycles: 880898934 heartbeat IPC: 1.17308 cumulative IPC: 1.16176 (Simulation time: 3 hr 34 min 31 sec) 
Heartbeat CPU 2 instructions: 830000000 cycles: 883891794 heartbeat IPC: 0.778865 cumulative IPC: 0.78608 (Simulation time: 3 hr 35 min 11 sec) 
Heartbeat CPU 0 instructions: 1320000000 cycles: 884163144 heartbeat IPC: 1.32152 cumulative IPC: 1.38425 (Simulation time: 3 hr 35 min 14 sec) 
Heartbeat CPU 3 instructions: 1140000000 cycles: 889316700 heartbeat IPC: 1.18796 cumulative IPC: 1.16203 (Simulation time: 3 hr 36 min 22 sec) 
Heartbeat CPU 1 instructions: 850000000 cycles: 891258794 heartbeat IPC: 0.728124 cumulative IPC: 0.78295 (Simulation time: 3 hr 36 min 47 sec) 
Heartbeat CPU 0 instructions: 1330000001 cycles: 891744154 heartbeat IPC: 1.31909 cumulative IPC: 1.38364 (Simulation time: 3 hr 36 min 54 sec) 
Heartbeat CPU 2 instructions: 840000000 cycles: 896710662 heartbeat IPC: 0.7801 cumulative IPC: 0.785985 (Simulation time: 3 hr 37 min 59 sec) 
Heartbeat CPU 3 instructions: 1150000002 cycles: 897714761 heartbeat IPC: 1.19075 cumulative IPC: 1.16233 (Simulation time: 3 hr 38 min 12 sec) 
Heartbeat CPU 0 instructions: 1340000000 cycles: 899430992 heartbeat IPC: 1.30092 cumulative IPC: 1.38286 (Simulation time: 3 hr 38 min 35 sec) 
Heartbeat CPU 3 instructions: 1160000000 cycles: 906354009 heartbeat IPC: 1.15751 cumulative IPC: 1.16228 (Simulation time: 3 hr 39 min 53 sec) 
Heartbeat CPU 0 instructions: 1350000001 cycles: 907118043 heartbeat IPC: 1.30089 cumulative IPC: 1.38209 (Simulation time: 3 hr 40 min 2 sec) 
Heartbeat CPU 2 instructions: 850000002 cycles: 909544852 heartbeat IPC: 0.779169 cumulative IPC: 0.78588 (Simulation time: 3 hr 40 min 31 sec) 
Heartbeat CPU 1 instructions: 860000000 cycles: 910540492 heartbeat IPC: 0.518627 cumulative IPC: 0.776796 (Simulation time: 3 hr 40 min 44 sec) 
Heartbeat CPU 3 instructions: 1170000003 cycles: 913821472 heartbeat IPC: 1.33914 cumulative IPC: 1.16386 (Simulation time: 3 hr 41 min 29 sec) 
Heartbeat CPU 0 instructions: 1360000000 cycles: 914801355 heartbeat IPC: 1.30152 cumulative IPC: 1.38135 (Simulation time: 3 hr 41 min 42 sec) 
Heartbeat CPU 2 instructions: 860000000 cycles: 922409775 heartbeat IPC: 0.777307 cumulative IPC: 0.785748 (Simulation time: 3 hr 43 min 18 sec) 
Heartbeat CPU 0 instructions: 1370000003 cycles: 922466721 heartbeat IPC: 1.30457 cumulative IPC: 1.38065 (Simulation time: 3 hr 43 min 18 sec) 
Heartbeat CPU 3 instructions: 1180000000 cycles: 922654799 heartbeat IPC: 1.13208 cumulative IPC: 1.16353 (Simulation time: 3 hr 43 min 21 sec) 
Heartbeat CPU 1 instructions: 870000001 cycles: 924400407 heartbeat IPC: 0.721505 cumulative IPC: 0.775885 (Simulation time: 3 hr 43 min 42 sec) 
Heartbeat CPU 0 instructions: 1380000000 cycles: 930152401 heartbeat IPC: 1.30112 cumulative IPC: 1.37993 (Simulation time: 3 hr 44 min 55 sec) 
Heartbeat CPU 3 instructions: 1190000000 cycles: 931741640 heartbeat IPC: 1.10049 cumulative IPC: 1.16286 (Simulation time: 3 hr 45 min 16 sec) 
Heartbeat CPU 2 instructions: 870000000 cycles: 935353495 heartbeat IPC: 0.772575 cumulative IPC: 0.785548 (Simulation time: 3 hr 46 min 5 sec) 
Heartbeat CPU 0 instructions: 1390000001 cycles: 937833349 heartbeat IPC: 1.30192 cumulative IPC: 1.37923 (Simulation time: 3 hr 46 min 40 sec) 
Heartbeat CPU 1 instructions: 880000000 cycles: 938327496 heartbeat IPC: 0.718025 cumulative IPC: 0.774944 (Simulation time: 3 hr 46 min 47 sec) 
Heartbeat CPU 3 instructions: 1200000000 cycles: 939797347 heartbeat IPC: 1.24136 cumulative IPC: 1.16359 (Simulation time: 3 hr 47 min 7 sec) 
Finished CPU 3 instructions: 1000000002 cycles: 859028933 cumulative IPC: 1.16411 (Simulation time: 3 hr 47 min 31 sec) 
Heartbeat CPU 0 instructions: 1400000000 cycles: 945488063 heartbeat IPC: 1.30638 cumulative IPC: 1.37858 (Simulation time: 3 hr 48 min 27 sec) 
Heartbeat CPU 3 instructions: 1210000001 cycles: 947158261 heartbeat IPC: 1.35853 cumulative IPC: 1.16525 (Simulation time: 3 hr 48 min 50 sec) 
Heartbeat CPU 2 instructions: 880000000 cycles: 948336537 heartbeat IPC: 0.770236 cumulative IPC: 0.785319 (Simulation time: 3 hr 49 min 6 sec) 
Heartbeat CPU 1 instructions: 890000000 cycles: 952207893 heartbeat IPC: 0.720441 cumulative IPC: 0.774074 (Simulation time: 3 hr 49 min 54 sec) 
Heartbeat CPU 0 instructions: 1410000002 cycles: 953093246 heartbeat IPC: 1.31489 cumulative IPC: 1.37802 (Simulation time: 3 hr 50 min 6 sec) 
Heartbeat CPU 3 instructions: 1220000000 cycles: 956461326 heartbeat IPC: 1.07491 cumulative IPC: 1.16429 (Simulation time: 3 hr 50 min 51 sec) 
Heartbeat CPU 0 instructions: 1420000000 cycles: 960671556 heartbeat IPC: 1.31956 cumulative IPC: 1.37752 (Simulation time: 3 hr 51 min 46 sec) 
Heartbeat CPU 2 instructions: 890000001 cycles: 961274941 heartbeat IPC: 0.772893 cumulative IPC: 0.785136 (Simulation time: 3 hr 51 min 54 sec) 
Heartbeat CPU 1 instructions: 900000000 cycles: 966131460 heartbeat IPC: 0.718207 cumulative IPC: 0.773194 (Simulation time: 3 hr 52 min 56 sec) 
Heartbeat CPU 3 instructions: 1230000003 cycles: 966872698 heartbeat IPC: 0.960488 cumulative IPC: 1.16189 (Simulation time: 3 hr 53 min 5 sec) 
Heartbeat CPU 0 instructions: 1430000003 cycles: 968263821 heartbeat IPC: 1.31713 cumulative IPC: 1.377 (Simulation time: 3 hr 53 min 23 sec) 
Heartbeat CPU 3 instructions: 1240000000 cycles: 973713071 heartbeat IPC: 1.46191 cumulative IPC: 1.16419 (Simulation time: 3 hr 54 min 36 sec) 
Heartbeat CPU 2 instructions: 900000000 cycles: 974271097 heartbeat IPC: 0.769458 cumulative IPC: 0.784907 (Simulation time: 3 hr 54 min 43 sec) 
Heartbeat CPU 0 instructions: 1440000000 cycles: 975849188 heartbeat IPC: 1.31833 cumulative IPC: 1.3765 (Simulation time: 3 hr 55 min 4 sec) 
Heartbeat CPU 1 instructions: 910000002 cycles: 980037828 heartbeat IPC: 0.719095 cumulative IPC: 0.772356 (Simulation time: 3 hr 56 min 1 sec) 
Heartbeat CPU 3 instructions: 1250000000 cycles: 981325510 heartbeat IPC: 1.31364 cumulative IPC: 1.16546 (Simulation time: 3 hr 56 min 18 sec) 
Heartbeat CPU 0 instructions: 1450000000 cycles: 983420981 heartbeat IPC: 1.32069 cumulative IPC: 1.37604 (Simulation time: 3 hr 56 min 45 sec) 
Heartbeat CPU 2 instructions: 910000002 cycles: 987158113 heartbeat IPC: 0.775975 cumulative IPC: 0.78478 (Simulation time: 3 hr 57 min 32 sec) 
Heartbeat CPU 3 instructions: 1260000000 cycles: 990633976 heartbeat IPC: 1.07429 cumulative IPC: 1.16453 (Simulation time: 3 hr 58 min 18 sec) 
Heartbeat CPU 0 instructions: 1460000000 cycles: 991016283 heartbeat IPC: 1.3166 cumulative IPC: 1.37554 (Simulation time: 3 hr 58 min 23 sec) 
Heartbeat CPU 1 instructions: 920000000 cycles: 993885163 heartbeat IPC: 0.72216 cumulative IPC: 0.771593 (Simulation time: 3 hr 59 min 1 sec) 
Heartbeat CPU 0 instructions: 1470000001 cycles: 998604443 heartbeat IPC: 1.31784 cumulative IPC: 1.37506 (Simulation time: 4 hr 0 min 3 sec) 
Heartbeat CPU 2 instructions: 920000000 cycles: 1000047834 heartbeat IPC: 0.775812 cumulative IPC: 0.784654 (Simulation time: 4 hr 0 min 23 sec) 
Heartbeat CPU 3 instructions: 1270000002 cycles: 1000383579 heartbeat IPC: 1.02568 cumulative IPC: 1.16305 (Simulation time: 4 hr 0 min 27 sec) 
Heartbeat CPU 0 instructions: 1480000000 cycles: 1006179981 heartbeat IPC: 1.32004 cumulative IPC: 1.37461 (Simulation time: 4 hr 1 min 44 sec) 
Heartbeat CPU 1 instructions: 930000002 cycles: 1007840666 heartbeat IPC: 0.716563 cumulative IPC: 0.770763 (Simulation time: 4 hr 2 min 6 sec) 
Heartbeat CPU 3 instructions: 1280000000 cycles: 1009680624 heartbeat IPC: 1.07561 cumulative IPC: 1.16217 (Simulation time: 4 hr 2 min 31 sec) 
Heartbeat CPU 2 instructions: 930000000 cycles: 1012974587 heartbeat IPC: 0.773589 cumulative IPC: 0.784501 (Simulation time: 4 hr 3 min 10 sec) 
Heartbeat CPU 0 instructions: 1490000000 cycles: 1013771895 heartbeat IPC: 1.31719 cumulative IPC: 1.37414 (Simulation time: 4 hr 3 min 19 sec) 
Heartbeat CPU 3 instructions: 1290000001 cycles: 1018333733 heartbeat IPC: 1.15565 cumulative IPC: 1.16211 (Simulation time: 4 hr 4 min 16 sec) 
Heartbeat CPU 0 instructions: 1500000000 cycles: 1021729013 heartbeat IPC: 1.25674 cumulative IPC: 1.37315 (Simulation time: 4 hr 5 min 1 sec) 
Heartbeat CPU 2 instructions: 940000000 cycles: 1025879627 heartbeat IPC: 0.774891 cumulative IPC: 0.784369 (Simulation time: 4 hr 5 min 57 sec) 
Heartbeat CPU 3 instructions: 1300000000 cycles: 1026678175 heartbeat IPC: 1.1984 cumulative IPC: 1.16243 (Simulation time: 4 hr 6 min 8 sec) 
Heartbeat CPU 1 instructions: 940000000 cycles: 1027908058 heartbeat IPC: 0.498321 cumulative IPC: 0.764981 (Simulation time: 4 hr 6 min 25 sec) 
Heartbeat CPU 0 instructions: 1510000001 cycles: 1030057807 heartbeat IPC: 1.20065 cumulative IPC: 1.37163 (Simulation time: 4 hr 6 min 55 sec) 
Heartbeat CPU 3 instructions: 1310000001 cycles: 1034958762 heartbeat IPC: 1.20764 cumulative IPC: 1.16283 (Simulation time: 4 hr 8 min 3 sec) 
Heartbeat CPU 0 instructions: 1520000000 cycles: 1037166083 heartbeat IPC: 1.40681 cumulative IPC: 1.37189 (Simulation time: 4 hr 8 min 34 sec) 
Heartbeat CPU 2 instructions: 950000001 cycles: 1038794540 heartbeat IPC: 0.774299 cumulative IPC: 0.784233 (Simulation time: 4 hr 8 min 58 sec) 
Heartbeat CPU 1 instructions: 950000001 cycles: 1041804852 heartbeat IPC: 0.71959 cumulative IPC: 0.764323 (Simulation time: 4 hr 9 min 40 sec) 
Heartbeat CPU 3 instructions: 1320000000 cycles: 1043285492 heartbeat IPC: 1.20095 cumulative IPC: 1.16316 (Simulation time: 4 hr 10 min 1 sec) 
Heartbeat CPU 0 instructions: 1530000000 cycles: 1043966148 heartbeat IPC: 1.47057 cumulative IPC: 1.37259 (Simulation time: 4 hr 10 min 11 sec) 
Heartbeat CPU 0 instructions: 1540000000 cycles: 1050768854 heartbeat IPC: 1.47 cumulative IPC: 1.37327 (Simulation time: 4 hr 11 min 46 sec) 
Heartbeat CPU 3 instructions: 1330000000 cycles: 1051584573 heartbeat IPC: 1.20495 cumulative IPC: 1.16352 (Simulation time: 4 hr 11 min 57 sec) 
Heartbeat CPU 2 instructions: 960000000 cycles: 1051649580 heartbeat IPC: 0.777905 cumulative IPC: 0.784149 (Simulation time: 4 hr 11 min 58 sec) 
Heartbeat CPU 1 instructions: 960000000 cycles: 1055722991 heartbeat IPC: 0.718487 cumulative IPC: 0.763668 (Simulation time: 4 hr 12 min 54 sec) 
Heartbeat CPU 0 instructions: 1550000003 cycles: 1057620187 heartbeat IPC: 1.45957 cumulative IPC: 1.37388 (Simulation time: 4 hr 13 min 20 sec) 
Heartbeat CPU 3 instructions: 1340000000 cycles: 1060251354 heartbeat IPC: 1.15383 cumulative IPC: 1.16343 (Simulation time: 4 hr 13 min 57 sec) 
Heartbeat CPU 0 instructions: 1560000000 cycles: 1064472565 heartbeat IPC: 1.45935 cumulative IPC: 1.37448 (Simulation time: 4 hr 14 min 55 sec) 
Heartbeat CPU 2 instructions: 970000001 cycles: 1064517134 heartbeat IPC: 0.777149 cumulative IPC: 0.784057 (Simulation time: 4 hr 14 min 55 sec) 
Heartbeat CPU 3 instructions: 1350000001 cycles: 1068545040 heartbeat IPC: 1.20574 cumulative IPC: 1.16379 (Simulation time: 4 hr 15 min 52 sec) 
Heartbeat CPU 1 instructions: 970000000 cycles: 1069569624 heartbeat IPC: 0.722197 cumulative IPC: 0.763086 (Simulation time: 4 hr 16 min 7 sec) 
Heartbeat CPU 0 instructions: 1570000000 cycles: 1071327431 heartbeat IPC: 1.45882 cumulative IPC: 1.37506 (Simulation time: 4 hr 16 min 33 sec) 
Heartbeat CPU 3 instructions: 1360000000 cycles: 1076110639 heartbeat IPC: 1.32177 cumulative IPC: 1.16499 (Simulation time: 4 hr 17 min 39 sec) 
Heartbeat CPU 2 instructions: 980000000 cycles: 1077398523 heartbeat IPC: 0.776314 cumulative IPC: 0.783957 (Simulation time: 4 hr 17 min 56 sec) 
Heartbeat CPU 0 instructions: 1580000000 cycles: 1078173669 heartbeat IPC: 1.46066 cumulative IPC: 1.37565 (Simulation time: 4 hr 18 min 6 sec) 
Heartbeat CPU 1 instructions: 980000000 cycles: 1083499908 heartbeat IPC: 0.71786 cumulative IPC: 0.762457 (Simulation time: 4 hr 19 min 17 sec) 
Heartbeat CPU 3 instructions: 1370000000 cycles: 1085011423 heartbeat IPC: 1.1235 cumulative IPC: 1.16462 (Simulation time: 4 hr 19 min 38 sec) 
Heartbeat CPU 0 instructions: 1590000002 cycles: 1085038148 heartbeat IPC: 1.45678 cumulative IPC: 1.37621 (Simulation time: 4 hr 19 min 38 sec) 
Heartbeat CPU 2 instructions: 990000000 cycles: 1090239557 heartbeat IPC: 0.778753 cumulative IPC: 0.783891 (Simulation time: 4 hr 20 min 50 sec) 
Heartbeat CPU 0 instructions: 1600000000 cycles: 1091872323 heartbeat IPC: 1.46323 cumulative IPC: 1.3768 (Simulation time: 4 hr 21 min 13 sec) 
Heartbeat CPU 3 instructions: 1380000000 cycles: 1093423068 heartbeat IPC: 1.18883 cumulative IPC: 1.16482 (Simulation time: 4 hr 21 min 36 sec) 
Heartbeat CPU 1 instructions: 990000000 cycles: 1097359379 heartbeat IPC: 0.721528 cumulative IPC: 0.761898 (Simulation time: 4 hr 22 min 30 sec) 
Heartbeat CPU 0 instructions: 1610000002 cycles: 1098691852 heartbeat IPC: 1.46638 cumulative IPC: 1.3774 (Simulation time: 4 hr 22 min 49 sec) 
Heartbeat CPU 3 instructions: 1390000003 cycles: 1101057247 heartbeat IPC: 1.3099 cumulative IPC: 1.16591 (Simulation time: 4 hr 23 min 22 sec) 
Heartbeat CPU 2 instructions: 1000000000 cycles: 1103087962 heartbeat IPC: 0.778307 cumulative IPC: 0.783821 (Simulation time: 4 hr 23 min 51 sec) 
Heartbeat CPU 0 instructions: 1620000000 cycles: 1105558692 heartbeat IPC: 1.45627 cumulative IPC: 1.37793 (Simulation time: 4 hr 24 min 24 sec) 
Heartbeat CPU 3 instructions: 1400000000 cycles: 1109996796 heartbeat IPC: 1.11862 cumulative IPC: 1.1655 (Simulation time: 4 hr 25 min 21 sec) 
Heartbeat CPU 1 instructions: 1000000000 cycles: 1111302044 heartbeat IPC: 0.717223 cumulative IPC: 0.761292 (Simulation time: 4 hr 25 min 38 sec) 
Heartbeat CPU 0 instructions: 1630000002 cycles: 1112442711 heartbeat IPC: 1.45264 cumulative IPC: 1.37843 (Simulation time: 4 hr 25 min 54 sec) 
Heartbeat CPU 2 instructions: 1010000000 cycles: 1116000275 heartbeat IPC: 0.774455 cumulative IPC: 0.783704 (Simulation time: 4 hr 26 min 42 sec) 
Heartbeat CPU 0 instructions: 1640000000 cycles: 1119200612 heartbeat IPC: 1.47975 cumulative IPC: 1.37909 (Simulation time: 4 hr 27 min 23 sec) 
Heartbeat CPU 3 instructions: 1410000003 cycles: 1119813036 heartbeat IPC: 1.01872 cumulative IPC: 1.16411 (Simulation time: 4 hr 27 min 30 sec) 
Heartbeat CPU 0 instructions: 1650000000 cycles: 1126159468 heartbeat IPC: 1.43702 cumulative IPC: 1.37947 (Simulation time: 4 hr 28 min 42 sec) 
Heartbeat CPU 3 instructions: 1420000000 cycles: 1128159269 heartbeat IPC: 1.19814 cumulative IPC: 1.16438 (Simulation time: 4 hr 29 min 7 sec) 
Heartbeat CPU 2 instructions: 1020000000 cycles: 1128845167 heartbeat IPC: 0.77852 cumulative IPC: 0.78364 (Simulation time: 4 hr 29 min 16 sec) 
Heartbeat CPU 1 instructions: 1010000002 cycles: 1131511066 heartbeat IPC: 0.494829 cumulative IPC: 0.756159 (Simulation time: 4 hr 29 min 52 sec) 
Heartbeat CPU 0 instructions: 1660000000 cycles: 1132948040 heartbeat IPC: 1.47306 cumulative IPC: 1.38008 (Simulation time: 4 hr 30 min 12 sec) 
Heartbeat CPU 3 instructions: 1430000003 cycles: 1135581741 heartbeat IPC: 1.34726 cumulative IPC: 1.16567 (Simulation time: 4 hr 30 min 48 sec) 
Heartbeat CPU 0 instructions: 1670000002 cycles: 1139502527 heartbeat IPC: 1.52567 cumulative IPC: 1.38098 (Simulation time: 4 hr 31 min 41 sec) 
Heartbeat CPU 2 instructions: 1030000001 cycles: 1141686811 heartbeat IPC: 0.778717 cumulative IPC: 0.78358 (Simulation time: 4 hr 32 min 10 sec) 
Heartbeat CPU 3 instructions: 1440000000 cycles: 1144685217 heartbeat IPC: 1.09848 cumulative IPC: 1.16509 (Simulation time: 4 hr 32 min 49 sec) 
Heartbeat CPU 1 instructions: 1020000000 cycles: 1145388672 heartbeat IPC: 0.720585 cumulative IPC: 0.755695 (Simulation time: 4 hr 32 min 59 sec) 
Heartbeat CPU 0 instructions: 1680000000 cycles: 1146256688 heartbeat IPC: 1.48057 cumulative IPC: 1.38161 (Simulation time: 4 hr 33 min 10 sec) 
Heartbeat CPU 0 instructions: 1690000003 cycles: 1152749944 heartbeat IPC: 1.54006 cumulative IPC: 1.38257 (Simulation time: 4 hr 34 min 39 sec) 
Heartbeat CPU 3 instructions: 1450000001 cycles: 1154045909 heartbeat IPC: 1.0683 cumulative IPC: 1.16425 (Simulation time: 4 hr 34 min 56 sec) 
Heartbeat CPU 2 instructions: 1040000000 cycles: 1154539678 heartbeat IPC: 0.778036 cumulative IPC: 0.783514 (Simulation time: 4 hr 35 min 3 sec) 
Heartbeat CPU 1 instructions: 1030000000 cycles: 1159339812 heartbeat IPC: 0.716787 cumulative IPC: 0.755191 (Simulation time: 4 hr 36 min 8 sec) 
Heartbeat CPU 0 instructions: 1700000000 cycles: 1159419983 heartbeat IPC: 1.49924 cumulative IPC: 1.3833 (Simulation time: 4 hr 36 min 9 sec) 
Heartbeat CPU 3 instructions: 1460000000 cycles: 1163685641 heartbeat IPC: 1.03737 cumulative IPC: 1.16312 (Simulation time: 4 hr 37 min 8 sec) 
Heartbeat CPU 0 instructions: 1710000001 cycles: 1166058378 heartbeat IPC: 1.50639 cumulative IPC: 1.38405 (Simulation time: 4 hr 37 min 42 sec) 
Heartbeat CPU 2 instructions: 1050000002 cycles: 1167375608 heartbeat IPC: 0.779063 cumulative IPC: 0.783461 (Simulation time: 4 hr 38 min 0 sec) 
Heartbeat CPU 3 instructions: 1470000000 cycles: 1172422690 heartbeat IPC: 1.14455 cumulative IPC: 1.16297 (Simulation time: 4 hr 39 min 7 sec) 
Heartbeat CPU 1 instructions: 1040000000 cycles: 1173231101 heartbeat IPC: 0.719876 cumulative IPC: 0.754741 (Simulation time: 4 hr 39 min 16 sec) 
Heartbeat CPU 0 instructions: 1720000000 cycles: 1175363518 heartbeat IPC: 1.07467 cumulative IPC: 1.38142 (Simulation time: 4 hr 39 min 45 sec) 
Heartbeat CPU 0 instructions: 1730000003 cycles: 1180001700 heartbeat IPC: 2.15602 cumulative IPC: 1.38469 (Simulation time: 4 hr 40 min 59 sec) 
Heartbeat CPU 2 instructions: 1060000000 cycles: 1180212069 heartbeat IPC: 0.779031 cumulative IPC: 0.783409 (Simulation time: 4 hr 41 min 2 sec) 
Heartbeat CPU 3 instructions: 1480000000 cycles: 1181000715 heartbeat IPC: 1.16577 cumulative IPC: 1.16299 (Simulation time: 4 hr 41 min 15 sec) 
Heartbeat CPU 0 instructions: 1740000000 cycles: 1186300549 heartbeat IPC: 1.58759 cumulative IPC: 1.38585 (Simulation time: 4 hr 42 min 29 sec) 
Heartbeat CPU 1 instructions: 1050000000 cycles: 1187145713 heartbeat IPC: 0.718669 cumulative IPC: 0.754287 (Simulation time: 4 hr 42 min 41 sec) 
Heartbeat CPU 3 instructions: 1490000002 cycles: 1189582552 heartbeat IPC: 1.16525 cumulative IPC: 1.16301 (Simulation time: 4 hr 43 min 15 sec) 
Heartbeat CPU 2 instructions: 1070000000 cycles: 1193029712 heartbeat IPC: 0.780175 cumulative IPC: 0.783372 (Simulation time: 4 hr 44 min 3 sec) 
Heartbeat CPU 0 instructions: 1750000003 cycles: 1193346762 heartbeat IPC: 1.4192 cumulative IPC: 1.38606 (Simulation time: 4 hr 44 min 8 sec) 
Heartbeat CPU 3 instructions: 1500000000 cycles: 1198247478 heartbeat IPC: 1.15408 cumulative IPC: 1.16294 (Simulation time: 4 hr 45 min 17 sec) 
Heartbeat CPU 0 instructions: 1760000000 cycles: 1200049124 heartbeat IPC: 1.49201 cumulative IPC: 1.38669 (Simulation time: 4 hr 45 min 42 sec) 
Heartbeat CPU 1 instructions: 1060000000 cycles: 1201074884 heartbeat IPC: 0.717918 cumulative IPC: 0.753834 (Simulation time: 4 hr 45 min 56 sec) 
Heartbeat CPU 2 instructions: 1080000000 cycles: 1205838406 heartbeat IPC: 0.78072 cumulative IPC: 0.783342 (Simulation time: 4 hr 47 min 4 sec) 
Heartbeat CPU 3 instructions: 1510000002 cycles: 1206778868 heartbeat IPC: 1.17214 cumulative IPC: 1.16301 (Simulation time: 4 hr 47 min 17 sec) 
Heartbeat CPU 0 instructions: 1770000000 cycles: 1206866716 heartbeat IPC: 1.46679 cumulative IPC: 1.38718 (Simulation time: 4 hr 47 min 18 sec) 
Heartbeat CPU 0 instructions: 1780000000 cycles: 1213456694 heartbeat IPC: 1.51746 cumulative IPC: 1.38794 (Simulation time: 4 hr 49 min 4 sec) 
Heartbeat CPU 1 instructions: 1070000001 cycles: 1214942071 heartbeat IPC: 0.721127 cumulative IPC: 0.753433 (Simulation time: 4 hr 49 min 25 sec) 
[...]
Heartbeat CPU 3 instructions: 1660000000 cycles: 1338147192 heartbeat IPC: 1.14652 cumulative IPC: 1.16079 (Simulation time: 5 hr 19 min 24 sec) 
Heartbeat CPU 0 instructions: 1970000000 cycles: 1345575057 heartbeat IPC: 1.32459 cumulative IPC: 1.39319 (Simulation time: 5 hr 20 min 54 sec) 
Heartbeat CPU 2 instructions: 1190000002 cycles: 1346840657 heartbeat IPC: 0.7729 cumulative IPC: 0.782984 (Simulation time: 5 hr 21 min 10 sec) 
Heartbeat CPU 3 instructions: 1670000000 cycles: 1346955579 heartbeat IPC: 1.13528 cumulative IPC: 1.16061 (Simulation time: 5 hr 21 min 12 sec) 
Heartbeat CPU 1 instructions: 1160000000 cycles: 1352201222 heartbeat IPC: 0.503781 cumulative IPC: 0.742868 (Simulation time: 5 hr 22 min 26 sec) 
Heartbeat CPU 0 instructions: 1980000000 cycles: 1352959507 heartbeat IPC: 1.3542 cumulative IPC: 1.39296 (Simulation time: 5 hr 22 min 40 sec) 
Heartbeat CPU 3 instructions: 1680000000 cycles: 1355472429 heartbeat IPC: 1.17414 cumulative IPC: 1.16071 (Simulation time: 5 hr 23 min 18 sec) 
Heartbeat CPU 2 instructions: 1200000000 cycles: 1359745021 heartbeat IPC: 0.774931 cumulative IPC: 0.782902 (Simulation time: 5 hr 24 min 25 sec) 
Finished CPU 2 instructions: 1000000001 cycles: 1277298798 cumulative IPC: 0.782902 (Simulation time: 5 hr 24 min 25 sec) 
Heartbeat CPU 0 instructions: 1990000001 cycles: 1362642207 heartbeat IPC: 1.03277 cumulative IPC: 1.39023 (Simulation time: 5 hr 25 min 8 sec) 
Heartbeat CPU 3 instructions: 1690000002 cycles: 1364036948 heartbeat IPC: 1.16761 cumulative IPC: 1.16075 (Simulation time: 5 hr 25 min 32 sec) 
Heartbeat CPU 1 instructions: 1170000000 cycles: 1365894129 heartbeat IPC: 0.730305 cumulative IPC: 0.742734 (Simulation time: 5 hr 26 min 3 sec) 
*** Reached end of trace for Core: 0 Repeating trace: /scratch/user/djimenez/champsim-traces/speccpu2017/xz/625.x264_s/625.x264_s-18B.champsimtrace.xz
Heartbeat CPU 0 instructions: 2000000000 cycles: 1367292579 heartbeat IPC: 2.15037 cumulative IPC: 1.39299 (Simulation time: 5 hr 26 min 26 sec) 
Heartbeat CPU 3 instructions: 1700000000 cycles: 1372453691 heartbeat IPC: 1.18811 cumulative IPC: 1.16093 (Simulation time: 5 hr 27 min 37 sec) 
Heartbeat CPU 2 instructions: 1210000000 cycles: 1372608522 heartbeat IPC: 0.777393 cumulative IPC: 0.782847 (Simulation time: 5 hr 27 min 39 sec) 
Heartbeat CPU 0 instructions: 2010000000 cycles: 1374937049 heartbeat IPC: 1.30814 cumulative IPC: 1.39248 (Simulation time: 5 hr 28 min 12 sec) 
Heartbeat CPU 1 instructions: 1180000000 cycles: 1379606452 heartbeat IPC: 0.729271 cumulative IPC: 0.742591 (Simulation time: 5 hr 29 min 15 sec) 
Heartbeat CPU 3 instructions: 1710000000 cycles: 1381184686 heartbeat IPC: 1.14534 cumulative IPC: 1.16083 (Simulation time: 5 hr 29 min 36 sec) 
Heartbeat CPU 0 instructions: 2020000000 cycles: 1382629540 heartbeat IPC: 1.29997 cumulative IPC: 1.39194 (Simulation time: 5 hr 29 min 54 sec) 
Heartbeat CPU 2 instructions: 1220000000 cycles: 1385461922 heartbeat IPC: 0.778004 cumulative IPC: 0.782799 (Simulation time: 5 hr 30 min 31 sec) 
Heartbeat CPU 3 instructions: 1720000000 cycles: 1388934547 heartbeat IPC: 1.29035 cumulative IPC: 1.16159 (Simulation time: 5 hr 31 min 18 sec) 
Heartbeat CPU 0 instructions: 2030000003 cycles: 1390219745 heartbeat IPC: 1.31749 cumulative IPC: 1.3915 (Simulation time: 5 hr 31 min 35 sec) 
Heartbeat CPU 1 instructions: 1190000003 cycles: 1393278472 heartbeat IPC: 0.731421 cumulative IPC: 0.742475 (Simulation time: 5 hr 32 min 15 sec) 
Heartbeat CPU 3 instructions: 1730000002 cycles: 1397641013 heartbeat IPC: 1.14857 cumulative IPC: 1.16151 (Simulation time: 5 hr 33 min 9 sec) 
Heartbeat CPU 0 instructions: 2040000000 cycles: 1397753440 heartbeat IPC: 1.32737 cumulative IPC: 1.39114 (Simulation time: 5 hr 33 min 10 sec) 
Heartbeat CPU 2 instructions: 1230000000 cycles: 1398329351 heartbeat IPC: 0.777156 cumulative IPC: 0.782744 (Simulation time: 5 hr 33 min 17 sec) 
Heartbeat CPU 0 instructions: 2050000000 cycles: 1405280464 heartbeat IPC: 1.32855 cumulative IPC: 1.39078 (Simulation time: 5 hr 34 min 50 sec) 
Heartbeat CPU 3 instructions: 1740000000 cycles: 1406347736 heartbeat IPC: 1.14854 cumulative IPC: 1.16142 (Simulation time: 5 hr 35 min 3 sec) 
Heartbeat CPU 1 instructions: 1200000000 cycles: 1406960091 heartbeat IPC: 0.730907 cumulative IPC: 0.742355 (Simulation time: 5 hr 35 min 12 sec) 
Heartbeat CPU 2 instructions: 1240000000 cycles: 1411177824 heartbeat IPC: 0.778303 cumulative IPC: 0.782701 (Simulation time: 5 hr 36 min 8 sec) 
Heartbeat CPU 0 instructions: 2060000000 cycles: 1412793156 heartbeat IPC: 1.33108 cumulative IPC: 1.39044 (Simulation time: 5 hr 36 min 29 sec) 
Heartbeat CPU 3 instructions: 1750000002 cycles: 1414480625 heartbeat IPC: 1.22958 cumulative IPC: 1.16184 (Simulation time: 5 hr 36 min 51 sec) 
Heartbeat CPU 0 instructions: 2070000003 cycles: 1420360555 heartbeat IPC: 1.32146 cumulative IPC: 1.39005 (Simulation time: 5 hr 38 min 13 sec) 
Heartbeat CPU 1 instructions: 1210000000 cycles: 1420651958 heartbeat IPC: 0.730361 cumulative IPC: 0.742233 (Simulation time: 5 hr 38 min 17 sec) 
Heartbeat CPU 3 instructions: 1760000000 cycles: 1422103640 heartbeat IPC: 1.31182 cumulative IPC: 1.16269 (Simulation time: 5 hr 38 min 37 sec) 
Heartbeat CPU 2 instructions: 1250000000 cycles: 1424041808 heartbeat IPC: 0.777364 cumulative IPC: 0.78265 (Simulation time: 5 hr 39 min 2 sec) 
Heartbeat CPU 0 instructions: 2080000000 cycles: 1427932962 heartbeat IPC: 1.32058 cumulative IPC: 1.38966 (Simulation time: 5 hr 39 min 51 sec) 
Finished CPU 1 instructions: 1000000000 cycles: 1347438405 cumulative IPC: 0.742149 (Simulation time: 5 hr 40 min 17 sec) 

CPU 0 Branch Prediction Accuracy: 97.8231% MPKI: 0.72622

CPU 1 Branch Prediction Accuracy: 99.7927% MPKI: 0.193258

CPU 2 Branch Prediction Accuracy: 99.9474% MPKI: 0.134204

CPU 3 Branch Prediction Accuracy: 97.5778% MPKI: 3.55359

ChampSim completed all CPUs

Total Simulation Statistics (not including warmup)

CPU 0 cumulative IPC: 1.38956 instructions: 1872343238 cycles: 1347438405
L1D TOTAL     ACCESS:  300498093  HIT:  295553876  MISS:    4944217
L1D LOAD      ACCESS:  165553100  HIT:  162073488  MISS:    3479612
L1D RFO       ACCESS:  134944993  HIT:  133480388  MISS:    1464605
L1D PREFETCH  ACCESS:          0  HIT:          0  MISS:          0
L1D WRITEBACK ACCESS:          0  HIT:          0  MISS:          0
L1I TOTAL     ACCESS:  442250905  HIT:  439041960  MISS:    3208945
L1I LOAD      ACCESS:  442250905  HIT:  439041960  MISS:    3208945
L1I RFO       ACCESS:          0  HIT:          0  MISS:          0
L1I PREFETCH  ACCESS:          0  HIT:          0  MISS:          0
L1I WRITEBACK ACCESS:          0  HIT:          0  MISS:          0
L2C TOTAL     ACCESS:   11321886  HIT:    8520165  MISS:    2801721
L2C LOAD      ACCESS:    6688520  HIT:    5757372  MISS:     931148
L2C RFO       ACCESS:    1460736  HIT:     712517  MISS:     748219
L2C PREFETCH  ACCESS:    1461350  HIT:     352545  MISS:    1108805
L2C WRITEBACK ACCESS:    1711280  HIT:    1697731  MISS:      13549

L2C Best-offset prefetcher final stats
LLC TOTAL     ACCESS:    3780601  HIT:    1921645  MISS:    1858956
LLC LOAD      ACCESS:     881567  HIT:     439499  MISS:     442068
LLC RFO       ACCESS:     747243  HIT:      42123  MISS:     705120
LLC PREFETCH  ACCESS:    1226655  HIT:     520521  MISS:     706134
LLC WRITEBACK ACCESS:     925136  HIT:     919502  MISS:       5634

CPU 1 cumulative IPC: 0.742149 instructions: 1000000000 cycles: 1347438405
L1D TOTAL     ACCESS:  236367566  HIT:  233845890  MISS:    2521676
L1D LOAD      ACCESS:  145888296  HIT:  144374034  MISS:    1514262
L1D RFO       ACCESS:   90479270  HIT:   89471856  MISS:    1007414
L1D PREFETCH  ACCESS:          0  HIT:          0  MISS:          0
L1D WRITEBACK ACCESS:          0  HIT:          0  MISS:          0
L1I TOTAL     ACCESS:  363545001  HIT:  363544930  MISS:         71
L1I LOAD      ACCESS:  363545001  HIT:  363544930  MISS:         71
L1I RFO       ACCESS:          0  HIT:          0  MISS:          0
L1I PREFETCH  ACCESS:          0  HIT:          0  MISS:          0
L1I WRITEBACK ACCESS:          0  HIT:          0  MISS:          0
L2C TOTAL     ACCESS:    4738465  HIT:    2145583  MISS:    2592882
L2C LOAD      ACCESS:    1514333  HIT:    1139256  MISS:     375077
L2C RFO       ACCESS:    1007404  HIT:        639  MISS:    1006765
L2C PREFETCH  ACCESS:    1209165  HIT:        170  MISS:    1208995
L2C WRITEBACK ACCESS:    1007563  HIT:    1005518  MISS:       2045

L2C Best-offset prefetcher final stats
LLC TOTAL     ACCESS:    3638730  HIT:    1042707  MISS:    2596023
LLC LOAD      ACCESS:     239781  HIT:      35685  MISS:     204096
LLC RFO       ACCESS:    1006765  HIT:        104  MISS:    1006661
LLC PREFETCH  ACCESS:    1385275  HIT:      19102  MISS:    1366173
LLC WRITEBACK ACCESS:    1006909  HIT:     987816  MISS:      19093

CPU 2 cumulative IPC: 0.782619 instructions: 1054530457 cycles: 1347438405
L1D TOTAL     ACCESS:  218729558  HIT:  190223528  MISS:   28506030
L1D LOAD      ACCESS:  197809658  HIT:  169303629  MISS:   28506029
L1D RFO       ACCESS:   20919900  HIT:   20919899  MISS:          1
L1D PREFETCH  ACCESS:          0  HIT:          0  MISS:          0
L1D WRITEBACK ACCESS:          0  HIT:          0  MISS:          0
L1I TOTAL     ACCESS:  364795334  HIT:  364795323  MISS:         11
L1I LOAD      ACCESS:  364795334  HIT:  364795323  MISS:         11
L1I RFO       ACCESS:          0  HIT:          0  MISS:          0
L1I PREFETCH  ACCESS:          0  HIT:          0  MISS:          0
L1I WRITEBACK ACCESS:          0  HIT:          0  MISS:          0
L2C TOTAL     ACCESS:   53236430  HIT:   25238669  MISS:   27997761
L2C LOAD      ACCESS:   28506040  HIT:   25107614  MISS:    3398426
L2C RFO       ACCESS:          1  HIT:          0  MISS:          1
L2C PREFETCH  ACCESS:   24728217  HIT:     128883  MISS:   24599334
L2C WRITEBACK ACCESS:       2172  HIT:       2172  MISS:          0

L2C Best-offset prefetcher final stats
LLC TOTAL     ACCESS:   27999950  HIT:   27502995  MISS:     496955
LLC LOAD      ACCESS:    3363304  HIT:    3295069  MISS:      68235
LLC RFO       ACCESS:          1  HIT:          0  MISS:          1
LLC PREFETCH  ACCESS:   24634581  HIT:   24205863  MISS:     428718
LLC WRITEBACK ACCESS:       2064  HIT:       2063  MISS:          1

CPU 3 cumulative IPC: 1.1622 instructions: 1565998854 cycles: 1347438406
L1D TOTAL     ACCESS:  294324922  HIT:  267211897  MISS:   27113025
L1D LOAD      ACCESS:  211320839  HIT:  193304050  MISS:   18016789
L1D RFO       ACCESS:   83004083  HIT:   73907847  MISS:    9096236
L1D PREFETCH  ACCESS:          0  HIT:          0  MISS:          0
L1D WRITEBACK ACCESS:          0  HIT:          0  MISS:          0
L1I TOTAL     ACCESS:  375916124  HIT:  375135643  MISS:     780481
L1I LOAD      ACCESS:  375916124  HIT:  375135643  MISS:     780481
L1I RFO       ACCESS:          0  HIT:          0  MISS:          0
L1I PREFETCH  ACCESS:          0  HIT:          0  MISS:          0
L1I WRITEBACK ACCESS:          0  HIT:          0  MISS:          0
L2C TOTAL     ACCESS:   46419524  HIT:   32806953  MISS:   13612571
L2C LOAD      ACCESS:   18795879  HIT:   16075100  MISS:    2720779
L2C RFO       ACCESS:    9095754  HIT:    4797706  MISS:    4298048
L2C PREFETCH  ACCESS:    6951279  HIT:     367910  MISS:    6583369
L2C WRITEBACK ACCESS:   11576612  HIT:   11566237  MISS:      10375

L2C Best-offset prefetcher final stats
LLC TOTAL     ACCESS:   19647986  HIT:   14718609  MISS:    4929377
LLC LOAD      ACCESS:    2153765  HIT:    1775352  MISS:     378413
LLC RFO       ACCESS:    4298000  HIT:    2314805  MISS:    1983195
LLC PREFETCH  ACCESS:    7203066  HIT:    4644215  MISS:    2558851
LLC WRITEBACK ACCESS:    5993155  HIT:    5984237  MISS:       8918

Region of Interest Statistics

CPU 0 cumulative IPC: 1.39159 instructions: 1000000003 cycles: 718601634
L1D TOTAL     ACCESS:  161142597  HIT:  158424036  MISS:    2718561
L1D LOAD      ACCESS:   86923543  HIT:   85007318  MISS:    1916225
L1D RFO       ACCESS:   74219054  HIT:   73416718  MISS:     802336
L1D PREFETCH  ACCESS:          0  HIT:          0  MISS:          0
L1D WRITEBACK ACCESS:          0  HIT:          0  MISS:          0
L1D PREFETCH  REQUESTED:          0  ISSUED:          0  USEFUL:          0  USELESS:          0
L1I TOTAL     ACCESS:  234361756  HIT:  232682868  MISS:    1678888
L1I LOAD      ACCESS:  234361756  HIT:  232682868  MISS:    1678888
L1I RFO       ACCESS:          0  HIT:          0  MISS:          0
L1I PREFETCH  ACCESS:          0  HIT:          0  MISS:          0
L1I WRITEBACK ACCESS:          0  HIT:          0  MISS:          0
L1I PREFETCH  REQUESTED:          0  ISSUED:          0  USEFUL:          0  USELESS:          0
L2C TOTAL     ACCESS:    6118784  HIT:    4639523  MISS:    1479261
L2C LOAD      ACCESS:    3595087  HIT:    3123904  MISS:     471183
L2C RFO       ACCESS:     800259  HIT:     395782  MISS:     404477
L2C PREFETCH  ACCESS:     786536  HIT:     189300  MISS:     597236
L2C WRITEBACK ACCESS:     936902  HIT:     930537  MISS:       6365
L2C PREFETCH  REQUESTED:    1705260  ISSUED:    1703698  USEFUL:     950486  USELESS:     220691
LLC TOTAL     ACCESS:    2013229  HIT:    1020080  MISS:     993149
LLC LOAD      ACCESS:     445159  HIT:     219739  MISS:     225420
LLC RFO       ACCESS:     404427  HIT:      22508  MISS:     381919
LLC PREFETCH  ACCESS:     660703  HIT:     278174  MISS:     382529
LLC WRITEBACK ACCESS:     502940  HIT:     499659  MISS:       3281
LLC PREFETCH  REQUESTED:          0  ISSUED:          0  USEFUL:     474391  USELESS:    5182233
Major fault: 0 Minor fault: 14375

CPU 1 cumulative IPC: 0.742149 instructions: 1000000000 cycles: 1347438405
L1D TOTAL     ACCESS:  236367566  HIT:  233845890  MISS:    2521676
L1D LOAD      ACCESS:  145888296  HIT:  144374034  MISS:    1514262
L1D RFO       ACCESS:   90479270  HIT:   89471856  MISS:    1007414
L1D PREFETCH  ACCESS:          0  HIT:          0  MISS:          0
L1D WRITEBACK ACCESS:          0  HIT:          0  MISS:          0
L1D PREFETCH  REQUESTED:          0  ISSUED:          0  USEFUL:          0  USELESS:          0
L1I TOTAL     ACCESS:  363545001  HIT:  363544930  MISS:         71
L1I LOAD      ACCESS:  363545001  HIT:  363544930  MISS:         71
L1I RFO       ACCESS:          0  HIT:          0  MISS:          0
L1I PREFETCH  ACCESS:          0  HIT:          0  MISS:          0
L1I WRITEBACK ACCESS:          0  HIT:          0  MISS:          0
L1I PREFETCH  REQUESTED:          0  ISSUED:          0  USEFUL:          0  USELESS:          0
L2C TOTAL     ACCESS:    4738465  HIT:    2145583  MISS:    2592882
L2C LOAD      ACCESS:    1514333  HIT:    1139256  MISS:     375077
L2C RFO       ACCESS:    1007404  HIT:        639  MISS:    1006765
L2C PREFETCH  ACCESS:    1209165  HIT:        170  MISS:    1208995
L2C WRITEBACK ACCESS:    1007563  HIT:    1005518  MISS:       2045
L2C PREFETCH  REQUESTED:    1406712  ISSUED:    1406712  USEFUL:    1158407  USELESS:      70288
LLC TOTAL     ACCESS:    3638730  HIT:    1042707  MISS:    2596023
LLC LOAD      ACCESS:     239781  HIT:      35685  MISS:     204096
LLC RFO       ACCESS:    1006765  HIT:        104  MISS:    1006661
LLC PREFETCH  ACCESS:    1385275  HIT:      19102  MISS:    1366173
LLC WRITEBACK ACCESS:    1006909  HIT:     987816  MISS:      19093
LLC PREFETCH  REQUESTED:          0  ISSUED:          0  USEFUL:     474391  USELESS:    5182233
Major fault: 0 Minor fault: 18319

CPU 2 cumulative IPC: 0.782902 instructions: 1000000001 cycles: 1277298798
L1D TOTAL     ACCESS:  207512652  HIT:  180481548  MISS:   27031104
L1D LOAD      ACCESS:  187707452  HIT:  160676349  MISS:   27031103
L1D RFO       ACCESS:   19805200  HIT:   19805199  MISS:          1
L1D PREFETCH  ACCESS:          0  HIT:          0  MISS:          0
L1D WRITEBACK ACCESS:          0  HIT:          0  MISS:          0
L1D PREFETCH  REQUESTED:          0  ISSUED:          0  USEFUL:          0  USELESS:          0
L1I TOTAL     ACCESS:  345991260  HIT:  345991249  MISS:         11
L1I LOAD      ACCESS:  345991260  HIT:  345991249  MISS:         11
L1I RFO       ACCESS:          0  HIT:          0  MISS:          0
L1I PREFETCH  ACCESS:          0  HIT:          0  MISS:          0
L1I WRITEBACK ACCESS:          0  HIT:          0  MISS:          0
L1I PREFETCH  REQUESTED:          0  ISSUED:          0  USEFUL:          0  USELESS:          0
L2C TOTAL     ACCESS:   50433742  HIT:   23924275  MISS:   26509467
L2C LOAD      ACCESS:   27031114  HIT:   23797589  MISS:    3233525
L2C RFO       ACCESS:          1  HIT:          0  MISS:          1
L2C PREFETCH  ACCESS:   23400522  HIT:     124581  MISS:   23275941
L2C WRITEBACK ACCESS:       2105  HIT:       2105  MISS:          0
L2C PREFETCH  REQUESTED:   29287485  ISSUED:   29287485  USEFUL:   28755480  USELESS:     350584
LLC TOTAL     ACCESS:   26511586  HIT:   26019330  MISS:     492256
LLC LOAD      ACCESS:    3198713  HIT:    3130942  MISS:      67771
LLC RFO       ACCESS:          1  HIT:          0  MISS:          1
LLC PREFETCH  ACCESS:   23310876  HIT:   22886393  MISS:     424483
LLC WRITEBACK ACCESS:       1996  HIT:       1995  MISS:          1
LLC PREFETCH  REQUESTED:          0  ISSUED:          0  USEFUL:     474391  USELESS:    5182233
Major fault: 0 Minor fault: 4619

CPU 3 cumulative IPC: 1.16411 instructions: 1000000002 cycles: 859028933
L1D TOTAL     ACCESS:  188521975  HIT:  171102852  MISS:   17419123
L1D LOAD      ACCESS:  135154678  HIT:  123558064  MISS:   11596614
L1D RFO       ACCESS:   53367297  HIT:   47544788  MISS:    5822509
L1D PREFETCH  ACCESS:          0  HIT:          0  MISS:          0
L1D WRITEBACK ACCESS:          0  HIT:          0  MISS:          0
L1D PREFETCH  REQUESTED:          0  ISSUED:          0  USEFUL:          0  USELESS:          0
L1I TOTAL     ACCESS:  240310534  HIT:  239801646  MISS:     508888
L1I LOAD      ACCESS:  240310534  HIT:  239801646  MISS:     508888
L1I RFO       ACCESS:          0  HIT:          0  MISS:          0
L1I PREFETCH  ACCESS:          0  HIT:          0  MISS:          0
L1I WRITEBACK ACCESS:          0  HIT:          0  MISS:          0
L1I PREFETCH  REQUESTED:          0  ISSUED:          0  USEFUL:          0  USELESS:          0
L2C TOTAL     ACCESS:   29817210  HIT:   21070262  MISS:    8746948
L2C LOAD      ACCESS:   12104756  HIT:   10303945  MISS:    1800811
L2C RFO       ACCESS:    5822168  HIT:    3098571  MISS:    2723597
L2C PREFETCH  ACCESS:    4456691  HIT:     240460  MISS:    4216231
L2C WRITEBACK ACCESS:    7433595  HIT:    7427286  MISS:       6309
L2C PREFETCH  REQUESTED:    9017006  ISSUED:    9015418  USEFUL:    6704825  USELESS:     921829
LLC TOTAL     ACCESS:   12601788  HIT:    9472781  MISS:    3129007
LLC LOAD      ACCESS:    1425162  HIT:    1171533  MISS:     253629
LLC RFO       ACCESS:    2723554  HIT:    1515461  MISS:    1208093
LLC PREFETCH  ACCESS:    4626663  HIT:    2965152  MISS:    1661511
LLC WRITEBACK ACCESS:    3826409  HIT:    3820635  MISS:       5774
LLC PREFETCH  REQUESTED:          0  ISSUED:          0  USEFUL:     474391  USELESS:    5182233
Major fault: 0 Minor fault: 48994

L2C Best-offset prefetcher final stats

L2C Best-offset prefetcher final stats

L2C Best-offset prefetcher final stats

L2C Best-offset prefetcher final stats

DRAM Statistics
 CHANNEL 0
 RQ ROW_BUFFER_HIT:    2675012  ROW_BUFFER_MISS:    2255980
 DBUS_CONGESTED:    6782476
 WQ ROW_BUFFER_HIT:     422550  ROW_BUFFER_MISS:    1812726  FULL:          0

 CHANNEL 1
 RQ ROW_BUFFER_HIT:    2653120  ROW_BUFFER_MISS:    2262799
 DBUS_CONGESTED:    6782476
 WQ ROW_BUFFER_HIT:     400827  ROW_BUFFER_MISS:    1830790  FULL:          0

 AVG_CONGESTED_CYCLE: 13
