
*** ChampSim Multicore Out-of-Order Simulator ***

Warmup Instructions: 200000000
Simulation Instructions: 1000000000
Number of CPUs: 4
LLC sets: 8192
LLC ways: 16
Off-chip DRAM Size: 8192 MB Channels: 2 Width: 64-bit Data Rate: 1600 MT/s

CPU 0 runs /scratch/user/djimenez/champsim-traces/speccpu2017/xz/603.bwaves_s/603.bwaves_s-1740B.champsimtrace.xz
CPU 1 runs /scratch/user/djimenez/champsim-traces/speccpu2017/xz/621.wrf_s/621.wrf_s-575B.champsimtrace.xz
CPU 2 runs /scratch/user/djimenez/champsim-traces/speccpu2017/xz/619.lbm_s/619.lbm_s-4268B.champsimtrace.xz
CPU 3 runs /scratch/user/djimenez/champsim-traces/speccpu2017/xz/603.bwaves_s/603.bwaves_s-2931B.champsimtrace.xz
L2C Best-offset prefetcher
L2C Best-offset prefetcher
L2C Best-offset prefetcher
L2C Best-offset prefetcher
Heartbeat CPU 2 instructions: 10000001 cycles: 4900657 heartbeat IPC: 2.04054 cumulative IPC: 2.04054 (Simulation time: 0 hr 1 min 59 sec) 
Heartbeat CPU 3 instructions: 10000000 cycles: 5228257 heartbeat IPC: 1.91268 cumulative IPC: 1.91268 (Simulation time: 0 hr 2 min 7 sec) 
Heartbeat CPU 0 instructions: 10000001 cycles: 5273835 heartbeat IPC: 1.89615 cumulative IPC: 1.89615 (Simulation time: 0 hr 2 min 8 sec) 
Heartbeat CPU 1 instructions: 10000002 cycles: 5339306 heartbeat IPC: 1.8729 cumulative IPC: 1.8729 (Simulation time: 0 hr 2 min 9 sec) 
Heartbeat CPU 2 instructions: 20000000 cycles: 9796118 heartbeat IPC: 2.04271 cumulative IPC: 2.04163 (Simulation time: 0 hr 3 min 57 sec) 
Heartbeat CPU 3 instructions: 20000000 cycles: 10456062 heartbeat IPC: 1.91285 cumulative IPC: 1.91277 (Simulation time: 0 hr 4 min 13 sec) 
Heartbeat CPU 0 instructions: 20000000 cycles: 10549886 heartbeat IPC: 1.89536 cumulative IPC: 1.89576 (Simulation time: 0 hr 4 min 16 sec) 
Heartbeat CPU 1 instructions: 20000000 cycles: 10707300 heartbeat IPC: 1.86289 cumulative IPC: 1.86788 (Simulation time: 0 hr 4 min 19 sec) 
Heartbeat CPU 2 instructions: 30000000 cycles: 14679422 heartbeat IPC: 2.04779 cumulative IPC: 2.04368 (Simulation time: 0 hr 5 min 55 sec) 
Heartbeat CPU 3 instructions: 30000002 cycles: 15684134 heartbeat IPC: 1.91275 cumulative IPC: 1.91276 (Simulation time: 0 hr 6 min 20 sec) 
Heartbeat CPU 0 instructions: 30000002 cycles: 15824358 heartbeat IPC: 1.89592 cumulative IPC: 1.89581 (Simulation time: 0 hr 6 min 23 sec) 
Heartbeat CPU 1 instructions: 30000000 cycles: 16097655 heartbeat IPC: 1.85517 cumulative IPC: 1.86363 (Simulation time: 0 hr 6 min 30 sec) 
Heartbeat CPU 2 instructions: 40000000 cycles: 19588318 heartbeat IPC: 2.03712 cumulative IPC: 2.04203 (Simulation time: 0 hr 7 min 54 sec) 
Heartbeat CPU 3 instructions: 40000000 cycles: 20911841 heartbeat IPC: 1.91288 cumulative IPC: 1.91279 (Simulation time: 0 hr 8 min 26 sec) 
Heartbeat CPU 0 instructions: 40000000 cycles: 21097893 heartbeat IPC: 1.89626 cumulative IPC: 1.89592 (Simulation time: 0 hr 8 min 31 sec) 
Heartbeat CPU 1 instructions: 40000000 cycles: 21480283 heartbeat IPC: 1.85783 cumulative IPC: 1.86217 (Simulation time: 0 hr 8 min 40 sec) 
Heartbeat CPU 2 instructions: 50000001 cycles: 24503641 heartbeat IPC: 2.03445 cumulative IPC: 2.04051 (Simulation time: 0 hr 9 min 56 sec) 
Heartbeat CPU 3 instructions: 50000002 cycles: 26139922 heartbeat IPC: 1.91275 cumulative IPC: 1.91278 (Simulation time: 0 hr 10 min 36 sec) 
Heartbeat CPU 0 instructions: 50000003 cycles: 26372940 heartbeat IPC: 1.89572 cumulative IPC: 1.89588 (Simulation time: 0 hr 10 min 42 sec) 
Heartbeat CPU 1 instructions: 50000001 cycles: 26856911 heartbeat IPC: 1.8599 cumulative IPC: 1.86172 (Simulation time: 0 hr 10 min 54 sec) 
Heartbeat CPU 2 instructions: 60000000 cycles: 29438516 heartbeat IPC: 2.02639 cumulative IPC: 2.03815 (Simulation time: 0 hr 12 min 1 sec) 
Heartbeat CPU 3 instructions: 60000000 cycles: 31367808 heartbeat IPC: 1.91282 cumulative IPC: 1.91279 (Simulation time: 0 hr 12 min 48 sec) 
Heartbeat CPU 0 instructions: 60000000 cycles: 31645447 heartbeat IPC: 1.89663 cumulative IPC: 1.89601 (Simulation time: 0 hr 12 min 55 sec) 
Heartbeat CPU 1 instructions: 60000000 cycles: 32230707 heartbeat IPC: 1.86088 cumulative IPC: 1.86158 (Simulation time: 0 hr 13 min 12 sec) 
Heartbeat CPU 2 instructions: 70000003 cycles: 34362351 heartbeat IPC: 2.03094 cumulative IPC: 2.03711 (Simulation time: 0 hr 14 min 16 sec) 
Heartbeat CPU 3 instructions: 70000001 cycles: 36595859 heartbeat IPC: 1.91276 cumulative IPC: 1.91278 (Simulation time: 0 hr 15 min 33 sec) 
Heartbeat CPU 0 instructions: 70000000 cycles: 36919847 heartbeat IPC: 1.89595 cumulative IPC: 1.896 (Simulation time: 0 hr 15 min 41 sec) 
Heartbeat CPU 1 instructions: 70000000 cycles: 37597556 heartbeat IPC: 1.86329 cumulative IPC: 1.86182 (Simulation time: 0 hr 16 min 0 sec) 
Heartbeat CPU 2 instructions: 80000000 cycles: 39261261 heartbeat IPC: 2.04127 cumulative IPC: 2.03763 (Simulation time: 0 hr 17 min 24 sec) 
Heartbeat CPU 3 instructions: 80000000 cycles: 41823750 heartbeat IPC: 1.91282 cumulative IPC: 1.91279 (Simulation time: 0 hr 19 min 35 sec) 
Heartbeat CPU 0 instructions: 80000000 cycles: 42195021 heartbeat IPC: 1.89567 cumulative IPC: 1.89596 (Simulation time: 0 hr 19 min 53 sec) 
Heartbeat CPU 1 instructions: 80000000 cycles: 42937804 heartbeat IPC: 1.87257 cumulative IPC: 1.86316 (Simulation time: 0 hr 20 min 25 sec) 
Heartbeat CPU 2 instructions: 90000000 cycles: 44177505 heartbeat IPC: 2.03407 cumulative IPC: 2.03724 (Simulation time: 0 hr 21 min 27 sec) 
Heartbeat CPU 3 instructions: 90000002 cycles: 47052096 heartbeat IPC: 1.91265 cumulative IPC: 1.91277 (Simulation time: 0 hr 23 min 51 sec) 
Heartbeat CPU 0 instructions: 90000000 cycles: 47469955 heartbeat IPC: 1.89576 cumulative IPC: 1.89594 (Simulation time: 0 hr 24 min 12 sec) 
Heartbeat CPU 1 instructions: 90000002 cycles: 48304991 heartbeat IPC: 1.86317 cumulative IPC: 1.86316 (Simulation time: 0 hr 24 min 53 sec) 
Heartbeat CPU 2 instructions: 100000000 cycles: 49075623 heartbeat IPC: 2.0416 cumulative IPC: 2.03767 (Simulation time: 0 hr 25 min 32 sec) 
Heartbeat CPU 3 instructions: 100000000 cycles: 52279803 heartbeat IPC: 1.91288 cumulative IPC: 1.91278 (Simulation time: 0 hr 28 min 13 sec) 
Heartbeat CPU 0 instructions: 100000000 cycles: 52744483 heartbeat IPC: 1.8959 cumulative IPC: 1.89593 (Simulation time: 0 hr 28 min 36 sec) 
Heartbeat CPU 1 instructions: 100000000 cycles: 53654339 heartbeat IPC: 1.86939 cumulative IPC: 1.86378 (Simulation time: 0 hr 29 min 21 sec) 
Heartbeat CPU 2 instructions: 110000002 cycles: 53992893 heartbeat IPC: 2.03365 cumulative IPC: 2.03731 (Simulation time: 0 hr 29 min 36 sec) 
Heartbeat CPU 3 instructions: 110000000 cycles: 57507580 heartbeat IPC: 1.91286 cumulative IPC: 1.91279 (Simulation time: 0 hr 31 min 12 sec) 
Heartbeat CPU 0 instructions: 110000001 cycles: 58018267 heartbeat IPC: 1.89617 cumulative IPC: 1.89595 (Simulation time: 0 hr 31 min 24 sec) 
Heartbeat CPU 2 instructions: 120000000 cycles: 58926629 heartbeat IPC: 2.02686 cumulative IPC: 2.03643 (Simulation time: 0 hr 31 min 53 sec) 
Heartbeat CPU 1 instructions: 110000001 cycles: 58983615 heartbeat IPC: 1.87643 cumulative IPC: 1.86492 (Simulation time: 0 hr 31 min 55 sec) 
Heartbeat CPU 3 instructions: 120000000 cycles: 62735472 heartbeat IPC: 1.91282 cumulative IPC: 1.91279 (Simulation time: 0 hr 33 min 34 sec) 
Heartbeat CPU 0 instructions: 120000000 cycles: 63292068 heartbeat IPC: 1.89617 cumulative IPC: 1.89597 (Simulation time: 0 hr 33 min 53 sec) 
Heartbeat CPU 2 instructions: 130000003 cycles: 63825551 heartbeat IPC: 2.04127 cumulative IPC: 2.0368 (Simulation time: 0 hr 34 min 5 sec) 
Heartbeat CPU 1 instructions: 120000000 cycles: 64253427 heartbeat IPC: 1.8976 cumulative IPC: 1.8676 (Simulation time: 0 hr 34 min 15 sec) 
Heartbeat CPU 3 instructions: 130000001 cycles: 67963333 heartbeat IPC: 1.91283 cumulative IPC: 1.9128 (Simulation time: 0 hr 35 min 44 sec) 
Heartbeat CPU 0 instructions: 130000003 cycles: 68565493 heartbeat IPC: 1.8963 cumulative IPC: 1.896 (Simulation time: 0 hr 35 min 58 sec) 
Heartbeat CPU 2 instructions: 140000000 cycles: 68734746 heartbeat IPC: 2.03699 cumulative IPC: 2.03682 (Simulation time: 0 hr 36 min 2 sec) 
Heartbeat CPU 1 instructions: 130000002 cycles: 69549222 heartbeat IPC: 1.88829 cumulative IPC: 1.86918 (Simulation time: 0 hr 36 min 22 sec) 
Heartbeat CPU 3 instructions: 140000000 cycles: 73191108 heartbeat IPC: 1.91286 cumulative IPC: 1.9128 (Simulation time: 0 hr 37 min 49 sec) 
Heartbeat CPU 2 instructions: 150000000 cycles: 73664845 heartbeat IPC: 2.02836 cumulative IPC: 2.03625 (Simulation time: 0 hr 38 min 0 sec) 
Heartbeat CPU 0 instructions: 140000000 cycles: 73840120 heartbeat IPC: 1.89587 cumulative IPC: 1.89599 (Simulation time: 0 hr 38 min 4 sec) 
Heartbeat CPU 1 instructions: 140000000 cycles: 74843395 heartbeat IPC: 1.88887 cumulative IPC: 1.87057 (Simulation time: 0 hr 38 min 28 sec) 
Heartbeat CPU 3 instructions: 150000000 cycles: 78419016 heartbeat IPC: 1.91281 cumulative IPC: 1.9128 (Simulation time: 0 hr 39 min 53 sec) 
Heartbeat CPU 2 instructions: 160000000 cycles: 78608413 heartbeat IPC: 2.02283 cumulative IPC: 2.03541 (Simulation time: 0 hr 39 min 58 sec) 
Heartbeat CPU 0 instructions: 150000002 cycles: 79115263 heartbeat IPC: 1.89568 cumulative IPC: 1.89597 (Simulation time: 0 hr 40 min 10 sec) 
Heartbeat CPU 1 instructions: 150000001 cycles: 80073349 heartbeat IPC: 1.91206 cumulative IPC: 1.87328 (Simulation time: 0 hr 40 min 32 sec) 
Heartbeat CPU 2 instructions: 170000000 cycles: 83542463 heartbeat IPC: 2.02673 cumulative IPC: 2.03489 (Simulation time: 0 hr 41 min 50 sec) 
Heartbeat CPU 3 instructions: 160000000 cycles: 83646941 heartbeat IPC: 1.9128 cumulative IPC: 1.9128 (Simulation time: 0 hr 41 min 52 sec) 
Heartbeat CPU 0 instructions: 160000000 cycles: 84389766 heartbeat IPC: 1.89591 cumulative IPC: 1.89596 (Simulation time: 0 hr 42 min 9 sec) 
Heartbeat CPU 1 instructions: 160000000 cycles: 85316628 heartbeat IPC: 1.9072 cumulative IPC: 1.87537 (Simulation time: 0 hr 42 min 30 sec) 
Heartbeat CPU 2 instructions: 180000000 cycles: 88470959 heartbeat IPC: 2.02902 cumulative IPC: 2.03457 (Simulation time: 0 hr 43 min 40 sec) 
Heartbeat CPU 3 instructions: 170000002 cycles: 88874680 heartbeat IPC: 1.91287 cumulative IPC: 1.91281 (Simulation time: 0 hr 43 min 49 sec) 
Heartbeat CPU 0 instructions: 170000000 cycles: 89664151 heartbeat IPC: 1.89596 cumulative IPC: 1.89596 (Simulation time: 0 hr 44 min 7 sec) 
Heartbeat CPU 1 instructions: 170000000 cycles: 90548986 heartbeat IPC: 1.91118 cumulative IPC: 1.87744 (Simulation time: 0 hr 44 min 27 sec) 
Heartbeat CPU 2 instructions: 190000001 cycles: 93408904 heartbeat IPC: 2.02513 cumulative IPC: 2.03407 (Simulation time: 0 hr 45 min 31 sec) 
Heartbeat CPU 3 instructions: 180000000 cycles: 94102950 heartbeat IPC: 1.91268 cumulative IPC: 1.9128 (Simulation time: 0 hr 45 min 46 sec) 
Heartbeat CPU 0 instructions: 180000000 cycles: 94937311 heartbeat IPC: 1.8964 cumulative IPC: 1.89599 (Simulation time: 0 hr 46 min 5 sec) 
Heartbeat CPU 1 instructions: 180000000 cycles: 95793089 heartbeat IPC: 1.9069 cumulative IPC: 1.87905 (Simulation time: 0 hr 46 min 24 sec) 
Heartbeat CPU 2 instructions: 200000000 cycles: 98337593 heartbeat IPC: 2.02894 cumulative IPC: 2.03381 (Simulation time: 0 hr 47 min 21 sec) 
Heartbeat CPU 3 instructions: 190000003 cycles: 99331028 heartbeat IPC: 1.91275 cumulative IPC: 1.9128 (Simulation time: 0 hr 47 min 43 sec) 
Heartbeat CPU 0 instructions: 190000002 cycles: 100210794 heartbeat IPC: 1.89628 cumulative IPC: 1.896 (Simulation time: 0 hr 48 min 2 sec) 
Heartbeat CPU 1 instructions: 190000002 cycles: 101056193 heartbeat IPC: 1.90002 cumulative IPC: 1.88014 (Simulation time: 0 hr 48 min 21 sec) 
Heartbeat CPU 2 instructions: 210000001 cycles: 103291152 heartbeat IPC: 2.01875 cumulative IPC: 0.0968137 (Simulation time: 0 hr 49 min 11 sec) 
Heartbeat CPU 3 instructions: 200000000 cycles: 104558525 heartbeat IPC: 1.91296 cumulative IPC: 1.9128 (Simulation time: 0 hr 49 min 39 sec) 
Heartbeat CPU 0 instructions: 200000000 cycles: 105486366 heartbeat IPC: 1.89553 cumulative IPC: 1.89598 (Simulation time: 0 hr 50 min 0 sec) 
Heartbeat CPU 1 instructions: 200000000 cycles: 106310419 heartbeat IPC: 1.90323 cumulative IPC: 1.88128 (Simulation time: 0 hr 50 min 18 sec) 

Warmup complete CPU 0 instructions: 201559822 cycles: 106310420 (Simulation time: 0 hr 50 min 18 sec) 
Warmup complete CPU 1 instructions: 200000001 cycles: 106310420 (Simulation time: 0 hr 50 min 18 sec) 
Warmup complete CPU 2 instructions: 216085058 cycles: 106310419 (Simulation time: 0 hr 50 min 18 sec) 
Warmup complete CPU 3 instructions: 203351046 cycles: 106310419 (Simulation time: 0 hr 50 min 18 sec) 

Heartbeat CPU 3 instructions: 210000003 cycles: 112722267 heartbeat IPC: 1.22493 cumulative IPC: 1.03698 (Simulation time: 0 hr 51 min 33 sec) 
Heartbeat CPU 2 instructions: 220000000 cycles: 114751606 heartbeat IPC: 0.872566 cumulative IPC: 0.46379 (Simulation time: 0 hr 51 min 57 sec) 
Heartbeat CPU 0 instructions: 210000002 cycles: 115351004 heartbeat IPC: 1.01372 cumulative IPC: 0.933588 (Simulation time: 0 hr 52 min 4 sec) 
Heartbeat CPU 3 instructions: 220000000 cycles: 122180276 heartbeat IPC: 1.0573 cumulative IPC: 1.04909 (Simulation time: 0 hr 53 min 25 sec) 
Heartbeat CPU 1 instructions: 210000000 cycles: 122781111 heartbeat IPC: 0.607139 cumulative IPC: 0.607139 (Simulation time: 0 hr 53 min 32 sec) 
Heartbeat CPU 0 instructions: 220000000 cycles: 125990638 heartbeat IPC: 0.939882 cumulative IPC: 0.936991 (Simulation time: 0 hr 54 min 11 sec) 
Heartbeat CPU 3 instructions: 230000003 cycles: 131795612 heartbeat IPC: 1.04001 cumulative IPC: 1.04566 (Simulation time: 0 hr 55 min 27 sec) 
Heartbeat CPU 2 instructions: 230000002 cycles: 135703059 heartbeat IPC: 0.477294 cumulative IPC: 0.473416 (Simulation time: 0 hr 56 min 13 sec) 
Heartbeat CPU 0 instructions: 230000002 cycles: 136932653 heartbeat IPC: 0.913909 cumulative IPC: 0.928743 (Simulation time: 0 hr 56 min 28 sec) 
Heartbeat CPU 1 instructions: 220000000 cycles: 139185908 heartbeat IPC: 0.609578 cumulative IPC: 0.608356 (Simulation time: 0 hr 56 min 55 sec) 
Heartbeat CPU 3 instructions: 240000000 cycles: 141174557 heartbeat IPC: 1.06622 cumulative IPC: 1.05119 (Simulation time: 0 hr 57 min 18 sec) 
Heartbeat CPU 0 instructions: 240000000 cycles: 147549992 heartbeat IPC: 0.941855 cumulative IPC: 0.932119 (Simulation time: 0 hr 58 min 35 sec) 
Heartbeat CPU 3 instructions: 250000000 cycles: 150479775 heartbeat IPC: 1.07467 cumulative IPC: 1.05614 (Simulation time: 0 hr 59 min 9 sec) 
Heartbeat CPU 1 instructions: 230000000 cycles: 155717801 heartbeat IPC: 0.604891 cumulative IPC: 0.607197 (Simulation time: 1 hr 0 min 11 sec) 
Heartbeat CPU 2 instructions: 240000000 cycles: 156883539 heartbeat IPC: 0.472133 cumulative IPC: 0.472879 (Simulation time: 1 hr 0 min 25 sec) 
Heartbeat CPU 0 instructions: 250000003 cycles: 158529982 heartbeat IPC: 0.910748 cumulative IPC: 0.927625 (Simulation time: 1 hr 0 min 45 sec) 
Heartbeat CPU 3 instructions: 260000000 cycles: 160075391 heartbeat IPC: 1.04214 cumulative IPC: 1.05364 (Simulation time: 1 hr 1 min 4 sec) 
Heartbeat CPU 0 instructions: 260000000 cycles: 169644825 heartbeat IPC: 0.899698 cumulative IPC: 0.922724 (Simulation time: 1 hr 3 min 2 sec) 
Heartbeat CPU 3 instructions: 270000000 cycles: 169656751 heartbeat IPC: 1.04369 cumulative IPC: 1.05214 (Simulation time: 1 hr 3 min 2 sec) 
Heartbeat CPU 1 instructions: 240000000 cycles: 172335858 heartbeat IPC: 0.601755 cumulative IPC: 0.605827 (Simulation time: 1 hr 3 min 36 sec) 
Heartbeat CPU 2 instructions: 250000000 cycles: 177483744 heartbeat IPC: 0.485432 cumulative IPC: 0.476512 (Simulation time: 1 hr 4 min 39 sec) 
Heartbeat CPU 3 instructions: 280000000 cycles: 179416023 heartbeat IPC: 1.02467 cumulative IPC: 1.04847 (Simulation time: 1 hr 5 min 2 sec) 
Heartbeat CPU 0 instructions: 270000001 cycles: 180363508 heartbeat IPC: 0.932951 cumulative IPC: 0.924204 (Simulation time: 1 hr 5 min 14 sec) 
Heartbeat CPU 1 instructions: 250000001 cycles: 189001524 heartbeat IPC: 0.600036 cumulative IPC: 0.60466 (Simulation time: 1 hr 7 min 1 sec) 
Heartbeat CPU 3 instructions: 290000002 cycles: 189133790 heartbeat IPC: 1.02904 cumulative IPC: 1.04619 (Simulation time: 1 hr 7 min 3 sec) 
Heartbeat CPU 0 instructions: 280000000 cycles: 191269598 heartbeat IPC: 0.916919 cumulative IPC: 0.923269 (Simulation time: 1 hr 7 min 29 sec) 
Heartbeat CPU 2 instructions: 260000000 cycles: 198121033 heartbeat IPC: 0.48456 cumulative IPC: 0.478321 (Simulation time: 1 hr 8 min 53 sec) 
Heartbeat CPU 3 instructions: 300000000 cycles: 198622746 heartbeat IPC: 1.05386 cumulative IPC: 1.04698 (Simulation time: 1 hr 8 min 59 sec) 
Heartbeat CPU 0 instructions: 290000002 cycles: 202303422 heartbeat IPC: 0.906304 cumulative IPC: 0.921319 (Simulation time: 1 hr 9 min 45 sec) 
Heartbeat CPU 1 instructions: 260000000 cycles: 205676104 heartbeat IPC: 0.599715 cumulative IPC: 0.60383 (Simulation time: 1 hr 10 min 28 sec) 
Heartbeat CPU 3 instructions: 310000003 cycles: 208527279 heartbeat IPC: 1.00964 cumulative IPC: 1.04336 (Simulation time: 1 hr 11 min 2 sec) 
Heartbeat CPU 0 instructions: 300000000 cycles: 212974114 heartbeat IPC: 0.937146 cumulative IPC: 0.922902 (Simulation time: 1 hr 11 min 58 sec) 
Heartbeat CPU 3 instructions: 320000000 cycles: 218021792 heartbeat IPC: 1.05324 cumulative IPC: 1.0442 (Simulation time: 1 hr 13 min 0 sec) 
Heartbeat CPU 2 instructions: 270000001 cycles: 218765548 heartbeat IPC: 0.48439 cumulative IPC: 0.479435 (Simulation time: 1 hr 13 min 9 sec) 
Heartbeat CPU 1 instructions: 270000000 cycles: 222328759 heartbeat IPC: 0.600505 cumulative IPC: 0.603353 (Simulation time: 1 hr 13 min 54 sec) 
Heartbeat CPU 0 instructions: 310000001 cycles: 223623502 heartbeat IPC: 0.939021 cumulative IPC: 0.924366 (Simulation time: 1 hr 14 min 10 sec) 
Heartbeat CPU 3 instructions: 330000000 cycles: 227893105 heartbeat IPC: 1.01304 cumulative IPC: 1.04167 (Simulation time: 1 hr 15 min 2 sec) 
Heartbeat CPU 0 instructions: 320000000 cycles: 234538786 heartbeat IPC: 0.916146 cumulative IPC: 0.923666 (Simulation time: 1 hr 16 min 25 sec) 
Heartbeat CPU 3 instructions: 340000000 cycles: 237388840 heartbeat IPC: 1.0531 cumulative IPC: 1.0425 (Simulation time: 1 hr 17 min 0 sec) 
Heartbeat CPU 1 instructions: 280000000 cycles: 238935118 heartbeat IPC: 0.602179 cumulative IPC: 0.603206 (Simulation time: 1 hr 17 min 20 sec) 
Heartbeat CPU 2 instructions: 280000000 cycles: 238989993 heartbeat IPC: 0.494451 cumulative IPC: 0.481724 (Simulation time: 1 hr 17 min 21 sec) 
Heartbeat CPU 0 instructions: 330000003 cycles: 245294250 heartbeat IPC: 0.92976 cumulative IPC: 0.924138 (Simulation time: 1 hr 18 min 40 sec) 
Heartbeat CPU 3 instructions: 350000000 cycles: 246725024 heartbeat IPC: 1.0711 cumulative IPC: 1.0444 (Simulation time: 1 hr 18 min 58 sec) 
Heartbeat CPU 1 instructions: 290000001 cycles: 255640326 heartbeat IPC: 0.598616 cumulative IPC: 0.602692 (Simulation time: 1 hr 20 min 50 sec) 
Heartbeat CPU 0 instructions: 340000000 cycles: 256151839 heartbeat IPC: 0.921014 cumulative IPC: 0.923911 (Simulation time: 1 hr 20 min 57 sec) 
Heartbeat CPU 3 instructions: 360000000 cycles: 256152889 heartbeat IPC: 1.06069 cumulative IPC: 1.04542 (Simulation time: 1 hr 20 min 57 sec) 
Heartbeat CPU 2 instructions: 290000001 cycles: 259548986 heartbeat IPC: 0.486405 cumulative IPC: 0.482352 (Simulation time: 1 hr 21 min 39 sec) 
Heartbeat CPU 3 instructions: 370000000 cycles: 265586029 heartbeat IPC: 1.06009 cumulative IPC: 1.04629 (Simulation time: 1 hr 22 min 55 sec) 
Heartbeat CPU 0 instructions: 350000002 cycles: 267007709 heartbeat IPC: 0.921161 cumulative IPC: 0.923725 (Simulation time: 1 hr 23 min 12 sec) 
Heartbeat CPU 1 instructions: 300000000 cycles: 272312703 heartbeat IPC: 0.599794 cumulative IPC: 0.602401 (Simulation time: 1 hr 24 min 14 sec) 
Heartbeat CPU 3 instructions: 380000000 cycles: 275239531 heartbeat IPC: 1.03589 cumulative IPC: 1.0457 (Simulation time: 1 hr 24 min 49 sec) 
Heartbeat CPU 0 instructions: 360000000 cycles: 277658955 heartbeat IPC: 0.938857 cumulative IPC: 0.924666 (Simulation time: 1 hr 25 min 18 sec) 
Heartbeat CPU 2 instructions: 300000000 cycles: 280573318 heartbeat IPC: 0.475639 cumulative IPC: 0.481542 (Simulation time: 1 hr 25 min 53 sec) 
Heartbeat CPU 3 instructions: 390000001 cycles: 284597644 heartbeat IPC: 1.06859 cumulative IPC: 1.0469 (Simulation time: 1 hr 26 min 44 sec) 
Heartbeat CPU 0 instructions: 370000000 cycles: 288148068 heartbeat IPC: 0.953369 cumulative IPC: 0.926322 (Simulation time: 1 hr 27 min 28 sec) 
Heartbeat CPU 1 instructions: 310000001 cycles: 288868500 heartbeat IPC: 0.604018 cumulative IPC: 0.602548 (Simulation time: 1 hr 27 min 37 sec) 
Heartbeat CPU 3 instructions: 400000000 cycles: 294002510 heartbeat IPC: 1.06328 cumulative IPC: 1.04772 (Simulation time: 1 hr 28 min 42 sec) 
Heartbeat CPU 0 instructions: 380000000 cycles: 298873153 heartbeat IPC: 0.932394 cumulative IPC: 0.92666 (Simulation time: 1 hr 29 min 42 sec) 
Heartbeat CPU 2 instructions: 310000002 cycles: 301413375 heartbeat IPC: 0.479845 cumulative IPC: 0.481361 (Simulation time: 1 hr 30 min 14 sec) 
Heartbeat CPU 3 instructions: 410000002 cycles: 303612420 heartbeat IPC: 1.04059 cumulative IPC: 1.04737 (Simulation time: 1 hr 30 min 41 sec) 
Heartbeat CPU 1 instructions: 320000000 cycles: 305662693 heartbeat IPC: 0.595444 cumulative IPC: 0.60195 (Simulation time: 1 hr 31 min 7 sec) 
Heartbeat CPU 0 instructions: 390000001 cycles: 309413480 heartbeat IPC: 0.948737 cumulative IPC: 0.927806 (Simulation time: 1 hr 31 min 56 sec) 
Heartbeat CPU 3 instructions: 420000000 cycles: 313013173 heartbeat IPC: 1.06374 cumulative IPC: 1.04812 (Simulation time: 1 hr 32 min 39 sec) 
Heartbeat CPU 0 instructions: 400000000 cycles: 320404011 heartbeat IPC: 0.909874 cumulative IPC: 0.926885 (Simulation time: 1 hr 34 min 10 sec) 
Heartbeat CPU 2 instructions: 320000000 cycles: 322292960 heartbeat IPC: 0.478937 cumulative IPC: 0.481127 (Simulation time: 1 hr 34 min 33 sec) 
Heartbeat CPU 1 instructions: 330000001 cycles: 322342107 heartbeat IPC: 0.599541 cumulative IPC: 0.601764 (Simulation time: 1 hr 34 min 33 sec) 
Heartbeat CPU 3 instructions: 430000001 cycles: 323145019 heartbeat IPC: 0.986987 cumulative IPC: 1.04526 (Simulation time: 1 hr 34 min 43 sec) 
Heartbeat CPU 0 instructions: 410000000 cycles: 331073083 heartbeat IPC: 0.937289 cumulative IPC: 0.927379 (Simulation time: 1 hr 36 min 23 sec) 
Heartbeat CPU 3 instructions: 440000000 cycles: 332864660 heartbeat IPC: 1.02884 cumulative IPC: 1.04456 (Simulation time: 1 hr 36 min 46 sec) 
Heartbeat CPU 1 instructions: 340000000 cycles: 339210663 heartbeat IPC: 0.592819 cumulative IPC: 0.601116 (Simulation time: 1 hr 38 min 6 sec) 
Heartbeat CPU 0 instructions: 420000000 cycles: 341756133 heartbeat IPC: 0.936062 cumulative IPC: 0.927773 (Simulation time: 1 hr 38 min 38 sec) 
Heartbeat CPU 3 instructions: 450000000 cycles: 342233797 heartbeat IPC: 1.06733 cumulative IPC: 1.04546 (Simulation time: 1 hr 38 min 44 sec) 
Heartbeat CPU 2 instructions: 330000003 cycles: 343210821 heartbeat IPC: 0.47806 cumulative IPC: 0.480856 (Simulation time: 1 hr 38 min 57 sec) 
Heartbeat CPU 3 instructions: 460000000 cycles: 351591242 heartbeat IPC: 1.06867 cumulative IPC: 1.04635 (Simulation time: 1 hr 40 min 43 sec) 
Heartbeat CPU 0 instructions: 430000000 cycles: 352311947 heartbeat IPC: 0.947345 cumulative IPC: 0.928613 (Simulation time: 1 hr 40 min 52 sec) 
Heartbeat CPU 1 instructions: 350000002 cycles: 356023281 heartbeat IPC: 0.594791 cumulative IPC: 0.60069 (Simulation time: 1 hr 41 min 39 sec) 
Heartbeat CPU 3 instructions: 470000001 cycles: 361214373 heartbeat IPC: 1.03916 cumulative IPC: 1.04608 (Simulation time: 1 hr 42 min 44 sec) 
Heartbeat CPU 0 instructions: 440000000 cycles: 362973105 heartbeat IPC: 0.937984 cumulative IPC: 0.929002 (Simulation time: 1 hr 43 min 6 sec) 
Heartbeat CPU 2 instructions: 340000000 cycles: 363696301 heartbeat IPC: 0.48815 cumulative IPC: 0.481436 (Simulation time: 1 hr 43 min 15 sec) 
Heartbeat CPU 3 instructions: 480000000 cycles: 370596648 heartbeat IPC: 1.06584 cumulative IPC: 1.04678 (Simulation time: 1 hr 44 min 42 sec) 
Heartbeat CPU 1 instructions: 360000000 cycles: 372657150 heartbeat IPC: 0.601183 cumulative IPC: 0.600721 (Simulation time: 1 hr 45 min 8 sec) 
Heartbeat CPU 0 instructions: 450000000 cycles: 373717693 heartbeat IPC: 0.930701 cumulative IPC: 0.92907 (Simulation time: 1 hr 45 min 21 sec) 
Heartbeat CPU 3 instructions: 490000003 cycles: 380536114 heartbeat IPC: 1.00609 cumulative IPC: 1.0453 (Simulation time: 1 hr 46 min 47 sec) 
Heartbeat CPU 2 instructions: 350000002 cycles: 383950243 heartbeat IPC: 0.493731 cumulative IPC: 0.482333 (Simulation time: 1 hr 47 min 30 sec) 
Heartbeat CPU 0 instructions: 460000000 cycles: 384308998 heartbeat IPC: 0.944171 cumulative IPC: 0.929646 (Simulation time: 1 hr 47 min 34 sec) 
Heartbeat CPU 1 instructions: 370000002 cycles: 389271005 heartbeat IPC: 0.601907 cumulative IPC: 0.60079 (Simulation time: 1 hr 48 min 37 sec) 
Heartbeat CPU 3 instructions: 500000000 cycles: 390198813 heartbeat IPC: 1.03491 cumulative IPC: 1.04495 (Simulation time: 1 hr 48 min 48 sec) 
Heartbeat CPU 0 instructions: 470000000 cycles: 395232721 heartbeat IPC: 0.915439 cumulative IPC: 0.929109 (Simulation time: 1 hr 49 min 52 sec) 
Heartbeat CPU 3 instructions: 510000001 cycles: 399561947 heartbeat IPC: 1.06802 cumulative IPC: 1.04569 (Simulation time: 1 hr 50 min 47 sec) 
Heartbeat CPU 2 instructions: 360000000 cycles: 404561048 heartbeat IPC: 0.485182 cumulative IPC: 0.48253 (Simulation time: 1 hr 51 min 49 sec) 
Heartbeat CPU 1 instructions: 380000000 cycles: 405810480 heartbeat IPC: 0.604614 cumulative IPC: 0.601002 (Simulation time: 1 hr 52 min 5 sec) 
Heartbeat CPU 0 instructions: 480000000 cycles: 405928783 heartbeat IPC: 0.934924 cumulative IPC: 0.929316 (Simulation time: 1 hr 52 min 7 sec) 
Heartbeat CPU 3 instructions: 520000000 cycles: 409243419 heartbeat IPC: 1.0329 cumulative IPC: 1.04528 (Simulation time: 1 hr 52 min 48 sec) 
Heartbeat CPU 0 instructions: 490000003 cycles: 416635474 heartbeat IPC: 0.933996 cumulative IPC: 0.929478 (Simulation time: 1 hr 54 min 20 sec) 
Heartbeat CPU 3 instructions: 530000001 cycles: 419332715 heartbeat IPC: 0.99115 cumulative IPC: 1.04353 (Simulation time: 1 hr 54 min 50 sec) 
Heartbeat CPU 1 instructions: 390000001 cycles: 423615739 heartbeat IPC: 0.561632 cumulative IPC: 0.598792 (Simulation time: 1 hr 55 min 41 sec) 
Heartbeat CPU 2 instructions: 370000001 cycles: 426204335 heartbeat IPC: 0.462037 cumulative IPC: 0.481144 (Simulation time: 1 hr 56 min 15 sec) 
Heartbeat CPU 0 instructions: 500000000 cycles: 427924146 heartbeat IPC: 0.885844 cumulative IPC: 0.927946 (Simulation time: 1 hr 56 min 38 sec) 
Heartbeat CPU 3 instructions: 540000000 cycles: 429754260 heartbeat IPC: 0.95955 cumulative IPC: 1.04083 (Simulation time: 1 hr 57 min 3 sec) 
Heartbeat CPU 1 instructions: 400000000 cycles: 433779338 heartbeat IPC: 0.983903 cumulative IPC: 0.610745 (Simulation time: 1 hr 57 min 58 sec) 
Heartbeat CPU 0 instructions: 510000002 cycles: 438800952 heartbeat IPC: 0.919388 cumulative IPC: 0.927666 (Simulation time: 1 hr 59 min 5 sec) 
Heartbeat CPU 3 instructions: 550000000 cycles: 439329044 heartbeat IPC: 1.04441 cumulative IPC: 1.04093 (Simulation time: 1 hr 59 min 13 sec) 
Heartbeat CPU 1 instructions: 410000001 cycles: 443734759 heartbeat IPC: 1.00448 cumulative IPC: 0.622362 (Simulation time: 2 hr 0 min 13 sec) 
Heartbeat CPU 2 instructions: 380000000 cycles: 446802928 heartbeat IPC: 0.48547 cumulative IPC: 0.481405 (Simulation time: 2 hr 0 min 55 sec) 
Heartbeat CPU 3 instructions: 560000000 cycles: 448893252 heartbeat IPC: 1.04556 cumulative IPC: 1.04106 (Simulation time: 2 hr 1 min 24 sec) 
Heartbeat CPU 0 instructions: 520000000 cycles: 449635847 heartbeat IPC: 0.922944 cumulative IPC: 0.927517 (Simulation time: 2 hr 1 min 33 sec) 
Heartbeat CPU 1 instructions: 420000000 cycles: 453408927 heartbeat IPC: 1.03368 cumulative IPC: 0.633826 (Simulation time: 2 hr 2 min 26 sec) 
Heartbeat CPU 3 instructions: 570000001 cycles: 458416635 heartbeat IPC: 1.05005 cumulative IPC: 1.0413 (Simulation time: 2 hr 3 min 34 sec) 
Heartbeat CPU 0 instructions: 530000003 cycles: 460658393 heartbeat IPC: 0.907232 cumulative IPC: 0.926886 (Simulation time: 2 hr 4 min 6 sec) 
Heartbeat CPU 1 instructions: 430000000 cycles: 463251616 heartbeat IPC: 1.01598 cumulative IPC: 0.644364 (Simulation time: 2 hr 4 min 47 sec) 
Heartbeat CPU 2 instructions: 390000000 cycles: 467522740 heartbeat IPC: 0.48263 cumulative IPC: 0.481476 (Simulation time: 2 hr 5 min 49 sec) 
Heartbeat CPU 3 instructions: 580000000 cycles: 467919271 heartbeat IPC: 1.05234 cumulative IPC: 1.04159 (Simulation time: 2 hr 5 min 55 sec) 
Heartbeat CPU 0 instructions: 540000000 cycles: 471564901 heartbeat IPC: 0.916883 cumulative IPC: 0.926587 (Simulation time: 2 hr 6 min 47 sec) 
Heartbeat CPU 1 instructions: 440000000 cycles: 473162973 heartbeat IPC: 1.00894 cumulative IPC: 0.654214 (Simulation time: 2 hr 7 min 18 sec) 
Heartbeat CPU 3 instructions: 590000002 cycles: 477511282 heartbeat IPC: 1.04253 cumulative IPC: 1.04162 (Simulation time: 2 hr 8 min 16 sec) 
Heartbeat CPU 0 instructions: 550000001 cycles: 482431596 heartbeat IPC: 0.920243 cumulative IPC: 0.926404 (Simulation time: 2 hr 9 min 23 sec) 
Heartbeat CPU 1 instructions: 450000003 cycles: 483026797 heartbeat IPC: 1.01381 cumulative IPC: 0.663629 (Simulation time: 2 hr 9 min 31 sec) 
Heartbeat CPU 3 instructions: 600000000 cycles: 487253314 heartbeat IPC: 1.02648 cumulative IPC: 1.04123 (Simulation time: 2 hr 10 min 29 sec) 
Heartbeat CPU 2 instructions: 400000000 cycles: 487931087 heartbeat IPC: 0.489996 cumulative IPC: 0.481931 (Simulation time: 2 hr 10 min 38 sec) 
Heartbeat CPU 1 instructions: 460000000 cycles: 492703598 heartbeat IPC: 1.0334 cumulative IPC: 0.67289 (Simulation time: 2 hr 11 min 43 sec) 
Heartbeat CPU 0 instructions: 560000000 cycles: 493325186 heartbeat IPC: 0.917971 cumulative IPC: 0.926167 (Simulation time: 2 hr 11 min 52 sec) 
Heartbeat CPU 3 instructions: 610000002 cycles: 496943382 heartbeat IPC: 1.03198 cumulative IPC: 1.041 (Simulation time: 2 hr 12 min 41 sec) 
Heartbeat CPU 1 instructions: 470000002 cycles: 502059985 heartbeat IPC: 1.06879 cumulative IPC: 0.68225 (Simulation time: 2 hr 13 min 51 sec) 
Heartbeat CPU 0 instructions: 570000003 cycles: 503996445 heartbeat IPC: 0.937097 cumulative IPC: 0.92646 (Simulation time: 2 hr 14 min 17 sec) 
Heartbeat CPU 3 instructions: 620000000 cycles: 506880214 heartbeat IPC: 1.00636 cumulative IPC: 1.04014 (Simulation time: 2 hr 14 min 57 sec) 
Heartbeat CPU 2 instructions: 410000001 cycles: 508892390 heartbeat IPC: 0.47707 cumulative IPC: 0.481678 (Simulation time: 2 hr 15 min 24 sec) 
Heartbeat CPU 1 instructions: 480000000 cycles: 511794201 heartbeat IPC: 1.0273 cumulative IPC: 0.690533 (Simulation time: 2 hr 16 min 32 sec) 
Heartbeat CPU 0 instructions: 580000000 cycles: 514786199 heartbeat IPC: 0.926805 cumulative IPC: 0.926469 (Simulation time: 2 hr 17 min 54 sec) 
Heartbeat CPU 3 instructions: 630000000 cycles: 516960173 heartbeat IPC: 0.992068 cumulative IPC: 1.03896 (Simulation time: 2 hr 18 min 55 sec) 
Heartbeat CPU 0 instructions: 590000001 cycles: 525723800 heartbeat IPC: 0.914277 cumulative IPC: 0.926151 (Simulation time: 2 hr 22 min 36 sec) 
Heartbeat CPU 1 instructions: 490000001 cycles: 525928277 heartbeat IPC: 0.70751 cumulative IPC: 0.691105 (Simulation time: 2 hr 22 min 38 sec) 
Heartbeat CPU 3 instructions: 640000000 cycles: 526617456 heartbeat IPC: 1.03549 cumulative IPC: 1.03888 (Simulation time: 2 hr 22 min 47 sec) 
Heartbeat CPU 2 instructions: 420000000 cycles: 529884843 heartbeat IPC: 0.476362 cumulative IPC: 0.481415 (Simulation time: 2 hr 23 min 28 sec) 
Heartbeat CPU 3 instructions: 650000000 cycles: 536023941 heartbeat IPC: 1.0631 cumulative IPC: 1.03941 (Simulation time: 2 hr 24 min 44 sec) 
Heartbeat CPU 0 instructions: 600000000 cycles: 536603365 heartbeat IPC: 0.919154 cumulative IPC: 0.925974 (Simulation time: 2 hr 24 min 52 sec) 
Heartbeat CPU 3 instructions: 660000000 cycles: 545523931 heartbeat IPC: 1.05263 cumulative IPC: 1.0397 (Simulation time: 2 hr 26 min 44 sec) 
Heartbeat CPU 1 instructions: 500000000 cycles: 546064120 heartbeat IPC: 0.496627 cumulative IPC: 0.6822 (Simulation time: 2 hr 26 min 50 sec) 
Heartbeat CPU 0 instructions: 610000000 cycles: 547324547 heartbeat IPC: 0.932733 cumulative IPC: 0.926139 (Simulation time: 2 hr 27 min 6 sec) 
Heartbeat CPU 2 instructions: 430000003 cycles: 551196209 heartbeat IPC: 0.469233 cumulative IPC: 0.480831 (Simulation time: 2 hr 27 min 54 sec) 
Heartbeat CPU 3 instructions: 670000001 cycles: 554943013 heartbeat IPC: 1.06167 cumulative IPC: 1.04016 (Simulation time: 2 hr 28 min 40 sec) 
Heartbeat CPU 0 instructions: 620000000 cycles: 558497758 heartbeat IPC: 0.894998 cumulative IPC: 0.925369 (Simulation time: 2 hr 29 min 25 sec) 
Heartbeat CPU 3 instructions: 680000000 cycles: 564417277 heartbeat IPC: 1.05549 cumulative IPC: 1.04048 (Simulation time: 2 hr 30 min 40 sec) 
Heartbeat CPU 1 instructions: 510000000 cycles: 566100361 heartbeat IPC: 0.499096 cumulative IPC: 0.674221 (Simulation time: 2 hr 31 min 1 sec) 
Heartbeat CPU 0 instructions: 630000002 cycles: 569043388 heartbeat IPC: 0.94826 cumulative IPC: 0.925891 (Simulation time: 2 hr 31 min 38 sec) 
Heartbeat CPU 2 instructions: 440000000 cycles: 572424024 heartbeat IPC: 0.47108 cumulative IPC: 0.480387 (Simulation time: 2 hr 32 min 21 sec) 
Heartbeat CPU 3 instructions: 690000002 cycles: 573830410 heartbeat IPC: 1.06235 cumulative IPC: 1.04092 (Simulation time: 2 hr 32 min 39 sec) 
Heartbeat CPU 0 instructions: 640000000 cycles: 580046555 heartbeat IPC: 0.908829 cumulative IPC: 0.925494 (Simulation time: 2 hr 33 min 56 sec) 
Heartbeat CPU 3 instructions: 700000000 cycles: 583307754 heartbeat IPC: 1.05515 cumulative IPC: 1.0412 (Simulation time: 2 hr 34 min 37 sec) 
Heartbeat CPU 1 instructions: 520000000 cycles: 586181114 heartbeat IPC: 0.497989 cumulative IPC: 0.666846 (Simulation time: 2 hr 35 min 13 sec) 
Heartbeat CPU 0 instructions: 650000000 cycles: 590659496 heartbeat IPC: 0.942246 cumulative IPC: 0.925862 (Simulation time: 2 hr 36 min 9 sec) 
Heartbeat CPU 3 instructions: 710000001 cycles: 592707825 heartbeat IPC: 1.06382 cumulative IPC: 1.04164 (Simulation time: 2 hr 36 min 35 sec) 
Heartbeat CPU 2 instructions: 450000002 cycles: 593021922 heartbeat IPC: 0.485487 cumulative IPC: 0.480603 (Simulation time: 2 hr 36 min 39 sec) 
Heartbeat CPU 0 instructions: 660000000 cycles: 601520414 heartbeat IPC: 0.920732 cumulative IPC: 0.925749 (Simulation time: 2 hr 38 min 26 sec) 
Heartbeat CPU 3 instructions: 720000000 cycles: 602169761 heartbeat IPC: 1.05687 cumulative IPC: 1.04193 (Simulation time: 2 hr 38 min 34 sec) 
Heartbeat CPU 1 instructions: 530000001 cycles: 605984488 heartbeat IPC: 0.504965 cumulative IPC: 0.66043 (Simulation time: 2 hr 39 min 21 sec) 
Heartbeat CPU 3 instructions: 730000001 cycles: 611721048 heartbeat IPC: 1.04698 cumulative IPC: 1.04202 (Simulation time: 2 hr 40 min 34 sec) 
Heartbeat CPU 0 instructions: 670000001 cycles: 612335922 heartbeat IPC: 0.924598 cumulative IPC: 0.925724 (Simulation time: 2 hr 40 min 41 sec) 
Heartbeat CPU 2 instructions: 460000000 cycles: 612975486 heartbeat IPC: 0.501163 cumulative IPC: 0.481413 (Simulation time: 2 hr 40 min 49 sec) 
Heartbeat CPU 3 instructions: 740000000 cycles: 621814225 heartbeat IPC: 0.990768 cumulative IPC: 1.04102 (Simulation time: 2 hr 42 min 38 sec) 
Heartbeat CPU 0 instructions: 680000000 cycles: 622942370 heartbeat IPC: 0.942823 cumulative IPC: 0.926075 (Simulation time: 2 hr 42 min 52 sec) 
Heartbeat CPU 1 instructions: 540000000 cycles: 625637622 heartbeat IPC: 0.508825 cumulative IPC: 0.654693 (Simulation time: 2 hr 43 min 26 sec) 
Heartbeat CPU 3 instructions: 750000003 cycles: 632068872 heartbeat IPC: 0.975168 cumulative IPC: 1.03973 (Simulation time: 2 hr 44 min 46 sec) 
Heartbeat CPU 2 instructions: 470000000 cycles: 632776828 heartbeat IPC: 0.505016 cumulative IPC: 0.4823 (Simulation time: 2 hr 44 min 54 sec) 
Heartbeat CPU 0 instructions: 690000003 cycles: 633502535 heartbeat IPC: 0.946955 cumulative IPC: 0.926494 (Simulation time: 2 hr 45 min 3 sec) 
Heartbeat CPU 3 instructions: 760000000 cycles: 642360989 heartbeat IPC: 0.971617 cumulative IPC: 1.03843 (Simulation time: 2 hr 46 min 52 sec) 
Heartbeat CPU 0 instructions: 700000000 cycles: 644479284 heartbeat IPC: 0.911016 cumulative IPC: 0.926178 (Simulation time: 2 hr 47 min 18 sec) 
Heartbeat CPU 1 instructions: 550000002 cycles: 645293200 heartbeat IPC: 0.508762 cumulative IPC: 0.649371 (Simulation time: 2 hr 47 min 28 sec) 
Heartbeat CPU 2 instructions: 480000000 cycles: 651870305 heartbeat IPC: 0.523739 cumulative IPC: 0.483751 (Simulation time: 2 hr 48 min 47 sec) 
Heartbeat CPU 3 instructions: 770000001 cycles: 652604458 heartbeat IPC: 0.976232 cumulative IPC: 1.03726 (Simulation time: 2 hr 48 min 55 sec) 
Heartbeat CPU 0 instructions: 710000002 cycles: 655272267 heartbeat IPC: 0.926528 cumulative IPC: 0.926185 (Simulation time: 2 hr 49 min 27 sec) 
Heartbeat CPU 3 instructions: 780000000 cycles: 662605012 heartbeat IPC: 0.999945 cumulative IPC: 1.03659 (Simulation time: 2 hr 50 min 55 sec) 
Heartbeat CPU 1 instructions: 560000000 cycles: 665158668 heartbeat IPC: 0.503386 cumulative IPC: 0.644182 (Simulation time: 2 hr 51 min 26 sec) 
Heartbeat CPU 0 instructions: 720000000 cycles: 666124492 heartbeat IPC: 0.92147 cumulative IPC: 0.926094 (Simulation time: 2 hr 51 min 38 sec) 
Heartbeat CPU 2 instructions: 490000000 cycles: 669953931 heartbeat IPC: 0.552986 cumulative IPC: 0.485972 (Simulation time: 2 hr 52 min 26 sec) 
Heartbeat CPU 3 instructions: 790000003 cycles: 672023180 heartbeat IPC: 1.06178 cumulative IPC: 1.03701 (Simulation time: 2 hr 52 min 53 sec) 
Heartbeat CPU 0 instructions: 730000000 cycles: 677023486 heartbeat IPC: 0.917516 cumulative IPC: 0.92593 (Simulation time: 2 hr 53 min 57 sec) 
Heartbeat CPU 3 instructions: 800000000 cycles: 681924180 heartbeat IPC: 1.01 cumulative IPC: 1.03654 (Simulation time: 2 hr 54 min 57 sec) 
Heartbeat CPU 1 instructions: 570000002 cycles: 685017185 heartbeat IPC: 0.503562 cumulative IPC: 0.639357 (Simulation time: 2 hr 55 min 36 sec) 
Heartbeat CPU 2 instructions: 500000000 cycles: 687361497 heartbeat IPC: 0.574463 cumulative IPC: 0.488623 (Simulation time: 2 hr 56 min 5 sec) 
Heartbeat CPU 0 instructions: 740000000 cycles: 687815992 heartbeat IPC: 0.926569 cumulative IPC: 0.925942 (Simulation time: 2 hr 56 min 11 sec) 
Heartbeat CPU 3 instructions: 810000003 cycles: 692573954 heartbeat IPC: 0.938987 cumulative IPC: 1.03477 (Simulation time: 2 hr 57 min 10 sec) 
Heartbeat CPU 0 instructions: 750000001 cycles: 698581551 heartbeat IPC: 0.928888 cumulative IPC: 0.925995 (Simulation time: 2 hr 58 min 25 sec) 
Heartbeat CPU 3 instructions: 820000000 cycles: 703201785 heartbeat IPC: 0.940925 cumulative IPC: 1.0331 (Simulation time: 2 hr 59 min 23 sec) 
Heartbeat CPU 2 instructions: 510000000 cycles: 704117327 heartbeat IPC: 0.596807 cumulative IPC: 0.491655 (Simulation time: 2 hr 59 min 34 sec) 
Heartbeat CPU 1 instructions: 580000000 cycles: 704894334 heartbeat IPC: 0.50309 cumulative IPC: 0.634832 (Simulation time: 2 hr 59 min 44 sec) 
Heartbeat CPU 0 instructions: 760000000 cycles: 709063527 heartbeat IPC: 0.954018 cumulative IPC: 0.926482 (Simulation time: 3 hr 0 min 37 sec) 
Heartbeat CPU 3 instructions: 830000002 cycles: 713848548 heartbeat IPC: 0.939253 cumulative IPC: 1.03146 (Simulation time: 3 hr 1 min 37 sec) 
Heartbeat CPU 0 instructions: 770000003 cycles: 719661741 heartbeat IPC: 0.943555 cumulative IPC: 0.926777 (Simulation time: 3 hr 2 min 47 sec) 
Heartbeat CPU 2 instructions: 520000000 cycles: 719899800 heartbeat IPC: 0.633614 cumulative IPC: 0.495307 (Simulation time: 3 hr 2 min 50 sec) 
Heartbeat CPU 3 instructions: 840000000 cycles: 724506385 heartbeat IPC: 0.938277 cumulative IPC: 1.02985 (Simulation time: 3 hr 3 min 46 sec) 
Heartbeat CPU 1 instructions: 590000001 cycles: 724606225 heartbeat IPC: 0.507308 cumulative IPC: 0.630766 (Simulation time: 3 hr 3 min 47 sec) 
Heartbeat CPU 0 instructions: 780000000 cycles: 730330323 heartbeat IPC: 0.937331 cumulative IPC: 0.926958 (Simulation time: 3 hr 4 min 56 sec) 
Heartbeat CPU 2 instructions: 530000000 cycles: 734986484 heartbeat IPC: 0.662836 cumulative IPC: 0.499327 (Simulation time: 3 hr 5 min 52 sec) 
Heartbeat CPU 3 instructions: 850000001 cycles: 735120491 heartbeat IPC: 0.942143 cumulative IPC: 1.02837 (Simulation time: 3 hr 5 min 54 sec) 
Heartbeat CPU 0 instructions: 790000002 cycles: 740912277 heartbeat IPC: 0.945005 cumulative IPC: 0.927259 (Simulation time: 3 hr 7 min 5 sec) 
Heartbeat CPU 1 instructions: 600000000 cycles: 744157333 heartbeat IPC: 0.51148 cumulative IPC: 0.62711 (Simulation time: 3 hr 7 min 47 sec) 
Heartbeat CPU 3 instructions: 860000000 cycles: 745760911 heartbeat IPC: 0.939812 cumulative IPC: 1.0269 (Simulation time: 3 hr 8 min 7 sec) 
Heartbeat CPU 2 instructions: 540000000 cycles: 749687139 heartbeat IPC: 0.680242 cumulative IPC: 0.503461 (Simulation time: 3 hr 8 min 57 sec) 
Heartbeat CPU 0 instructions: 800000000 cycles: 751688020 heartbeat IPC: 0.92801 cumulative IPC: 0.927271 (Simulation time: 3 hr 9 min 22 sec) 
Heartbeat CPU 3 instructions: 870000001 cycles: 756399689 heartbeat IPC: 0.939958 cumulative IPC: 1.02547 (Simulation time: 3 hr 10 min 22 sec) 
Heartbeat CPU 0 instructions: 810000000 cycles: 762322950 heartbeat IPC: 0.940298 cumulative IPC: 0.927483 (Simulation time: 3 hr 11 min 38 sec) 
Heartbeat CPU 2 instructions: 550000000 cycles: 763585071 heartbeat IPC: 0.719532 cumulative IPC: 0.50803 (Simulation time: 3 hr 11 min 54 sec) 
Heartbeat CPU 1 instructions: 610000003 cycles: 763979370 heartbeat IPC: 0.504489 cumulative IPC: 0.623414 (Simulation time: 3 hr 11 min 59 sec) 
Heartbeat CPU 3 instructions: 880000000 cycles: 767001383 heartbeat IPC: 0.943245 cumulative IPC: 1.02415 (Simulation time: 3 hr 12 min 37 sec) 
Heartbeat CPU 0 instructions: 820000000 cycles: 773190265 heartbeat IPC: 0.920191 cumulative IPC: 0.927364 (Simulation time: 3 hr 13 min 54 sec) 
Heartbeat CPU 3 instructions: 890000000 cycles: 777994988 heartbeat IPC: 0.90962 cumulative IPC: 1.02228 (Simulation time: 3 hr 14 min 51 sec) 
Heartbeat CPU 2 instructions: 560000000 cycles: 778312992 heartbeat IPC: 0.678982 cumulative IPC: 0.511776 (Simulation time: 3 hr 14 min 55 sec) 
Heartbeat CPU 1 instructions: 620000000 cycles: 784089267 heartbeat IPC: 0.497267 cumulative IPC: 0.619671 (Simulation time: 3 hr 16 min 2 sec) 
Heartbeat CPU 0 instructions: 830000002 cycles: 784624392 heartbeat IPC: 0.874575 cumulative IPC: 0.926474 (Simulation time: 3 hr 16 min 8 sec) 
Heartbeat CPU 3 instructions: 900000000 cycles: 789040934 heartbeat IPC: 0.905309 cumulative IPC: 1.02039 (Simulation time: 3 hr 17 min 3 sec) 
Heartbeat CPU 2 instructions: 570000001 cycles: 793508217 heartbeat IPC: 0.658102 cumulative IPC: 0.515012 (Simulation time: 3 hr 17 min 57 sec) 
Heartbeat CPU 0 instructions: 840000000 cycles: 796895592 heartbeat IPC: 0.814916 cumulative IPC: 0.924492 (Simulation time: 3 hr 18 min 36 sec) 
Heartbeat CPU 1 instructions: 630000002 cycles: 797972407 heartbeat IPC: 0.720298 cumulative IPC: 0.621691 (Simulation time: 3 hr 18 min 50 sec) 
Heartbeat CPU 3 instructions: 910000000 cycles: 800634509 heartbeat IPC: 0.862547 cumulative IPC: 1.01775 (Simulation time: 3 hr 19 min 22 sec) 
Heartbeat CPU 2 instructions: 580000000 cycles: 807940630 heartbeat IPC: 0.692885 cumulative IPC: 0.518671 (Simulation time: 3 hr 20 min 50 sec) 
Heartbeat CPU 0 instructions: 850000001 cycles: 809641570 heartbeat IPC: 0.784561 cumulative IPC: 0.921956 (Simulation time: 3 hr 21 min 10 sec) 
Heartbeat CPU 3 instructions: 920000000 cycles: 812175924 heartbeat IPC: 0.866445 cumulative IPC: 1.01528 (Simulation time: 3 hr 21 min 42 sec) 
Heartbeat CPU 1 instructions: 640000000 cycles: 812903333 heartbeat IPC: 0.669751 cumulative IPC: 0.622706 (Simulation time: 3 hr 21 min 50 sec) 
Heartbeat CPU 2 instructions: 590000003 cycles: 821637914 heartbeat IPC: 0.730072 cumulative IPC: 0.522719 (Simulation time: 3 hr 23 min 36 sec) 
Heartbeat CPU 0 instructions: 860000000 cycles: 821683134 heartbeat IPC: 0.830457 cumulative IPC: 0.920416 (Simulation time: 3 hr 23 min 36 sec) 
Heartbeat CPU 3 instructions: 930000002 cycles: 823707103 heartbeat IPC: 0.867214 cumulative IPC: 1.0129 (Simulation time: 3 hr 24 min 2 sec) 
Heartbeat CPU 1 instructions: 650000001 cycles: 829200912 heartbeat IPC: 0.613588 cumulative IPC: 0.622501 (Simulation time: 3 hr 25 min 7 sec) 
Heartbeat CPU 0 instructions: 870000001 cycles: 833018054 heartbeat IPC: 0.88223 cumulative IPC: 0.91982 (Simulation time: 3 hr 25 min 56 sec) 
Heartbeat CPU 2 instructions: 600000000 cycles: 834722386 heartbeat IPC: 0.764264 cumulative IPC: 0.527057 (Simulation time: 3 hr 26 min 18 sec) 
Heartbeat CPU 3 instructions: 940000000 cycles: 835027963 heartbeat IPC: 0.883325 cumulative IPC: 1.01088 (Simulation time: 3 hr 26 min 22 sec) 
Heartbeat CPU 0 instructions: 880000000 cycles: 843554381 heartbeat IPC: 0.949097 cumulative IPC: 0.920238 (Simulation time: 3 hr 28 min 7 sec) 
Heartbeat CPU 3 instructions: 950000000 cycles: 846003965 heartbeat IPC: 0.911079 cumulative IPC: 1.0094 (Simulation time: 3 hr 28 min 37 sec) 
Heartbeat CPU 2 instructions: 610000001 cycles: 846472637 heartbeat IPC: 0.851046 cumulative IPC: 0.532201 (Simulation time: 3 hr 28 min 43 sec) 
Heartbeat CPU 1 instructions: 660000000 cycles: 852078915 heartbeat IPC: 0.437101 cumulative IPC: 0.616813 (Simulation time: 3 hr 29 min 55 sec) 
Heartbeat CPU 0 instructions: 890000003 cycles: 854266212 heartbeat IPC: 0.933547 cumulative IPC: 0.920429 (Simulation time: 3 hr 30 min 23 sec) 
Heartbeat CPU 3 instructions: 960000000 cycles: 857136076 heartbeat IPC: 0.898302 cumulative IPC: 1.00776 (Simulation time: 3 hr 31 min 0 sec) 
Heartbeat CPU 2 instructions: 620000000 cycles: 858592443 heartbeat IPC: 0.825096 cumulative IPC: 0.53692 (Simulation time: 3 hr 31 min 19 sec) 
Heartbeat CPU 0 instructions: 900000000 cycles: 864834091 heartbeat IPC: 0.946263 cumulative IPC: 0.920789 (Simulation time: 3 hr 32 min 38 sec) 
Heartbeat CPU 1 instructions: 670000001 cycles: 867957361 heartbeat IPC: 0.629785 cumulative IPC: 0.617084 (Simulation time: 3 hr 33 min 19 sec) 
Heartbeat CPU 3 instructions: 970000001 cycles: 868454783 heartbeat IPC: 0.883493 cumulative IPC: 1.00591 (Simulation time: 3 hr 33 min 25 sec) 
Heartbeat CPU 2 instructions: 630000002 cycles: 871194363 heartbeat IPC: 0.79353 cumulative IPC: 0.541147 (Simulation time: 3 hr 33 min 54 sec) 
Heartbeat CPU 0 instructions: 910000002 cycles: 877555289 heartbeat IPC: 0.78609 cumulative IPC: 0.918567 (Simulation time: 3 hr 35 min 2 sec) 
Heartbeat CPU 3 instructions: 980000000 cycles: 880236108 heartbeat IPC: 0.848801 cumulative IPC: 1.00352 (Simulation time: 3 hr 35 min 31 sec) 
Heartbeat CPU 2 instructions: 640000000 cycles: 884695018 heartbeat IPC: 0.740705 cumulative IPC: 0.544609 (Simulation time: 3 hr 36 min 18 sec) 
Heartbeat CPU 0 instructions: 920000000 cycles: 889568975 heartbeat IPC: 0.832384 cumulative IPC: 0.917245 (Simulation time: 3 hr 37 min 24 sec) 
Heartbeat CPU 1 instructions: 680000000 cycles: 889778760 heartbeat IPC: 0.458266 cumulative IPC: 0.61266 (Simulation time: 3 hr 37 min 27 sec) 
Heartbeat CPU 3 instructions: 990000003 cycles: 890822080 heartbeat IPC: 0.944647 cumulative IPC: 1.00272 (Simulation time: 3 hr 37 min 41 sec) 
Heartbeat CPU 2 instructions: 650000001 cycles: 897118474 heartbeat IPC: 0.804929 cumulative IPC: 0.548698 (Simulation time: 3 hr 39 min 9 sec) 
Heartbeat CPU 1 instructions: 690000003 cycles: 899312187 heartbeat IPC: 1.04894 cumulative IPC: 0.617905 (Simulation time: 3 hr 39 min 40 sec) 
Heartbeat CPU 3 instructions: 1000000000 cycles: 900447022 heartbeat IPC: 1.03897 cumulative IPC: 1.00316 (Simulation time: 3 hr 39 min 55 sec) 
Heartbeat CPU 0 instructions: 930000000 cycles: 900514177 heartbeat IPC: 0.913642 cumulative IPC: 0.917196 (Simulation time: 3 hr 39 min 56 sec) 
Heartbeat CPU 2 instructions: 660000000 cycles: 908668772 heartbeat IPC: 0.865778 cumulative IPC: 0.553263 (Simulation time: 3 hr 41 min 51 sec) 
Heartbeat CPU 1 instructions: 700000000 cycles: 908690369 heartbeat IPC: 1.0663 cumulative IPC: 0.623146 (Simulation time: 3 hr 41 min 51 sec) 
Heartbeat CPU 3 instructions: 1010000002 cycles: 910123316 heartbeat IPC: 1.03345 cumulative IPC: 1.00353 (Simulation time: 3 hr 42 min 12 sec) 
Heartbeat CPU 0 instructions: 940000000 cycles: 911333633 heartbeat IPC: 0.924261 cumulative IPC: 0.917291 (Simulation time: 3 hr 42 min 30 sec) 
Heartbeat CPU 1 instructions: 710000003 cycles: 918667285 heartbeat IPC: 1.00231 cumulative IPC: 0.627803 (Simulation time: 3 hr 44 min 17 sec) 
Heartbeat CPU 3 instructions: 1020000000 cycles: 919411205 heartbeat IPC: 1.07667 cumulative IPC: 1.00436 (Simulation time: 3 hr 44 min 28 sec) 
Heartbeat CPU 2 instructions: 670000001 cycles: 920340294 heartbeat IPC: 0.856786 cumulative IPC: 0.557615 (Simulation time: 3 hr 44 min 42 sec) 
Heartbeat CPU 0 instructions: 950000002 cycles: 922140745 heartbeat IPC: 0.925317 cumulative IPC: 0.917397 (Simulation time: 3 hr 45 min 9 sec) 
Heartbeat CPU 1 instructions: 720000000 cycles: 927662966 heartbeat IPC: 1.11164 cumulative IPC: 0.633102 (Simulation time: 3 hr 46 min 30 sec) 
Heartbeat CPU 3 instructions: 1030000003 cycles: 928920974 heartbeat IPC: 1.05155 cumulative IPC: 1.00491 (Simulation time: 3 hr 46 min 48 sec) 
Heartbeat CPU 2 instructions: 680000000 cycles: 931765801 heartbeat IPC: 0.875235 cumulative IPC: 0.562011 (Simulation time: 3 hr 47 min 30 sec) 
Heartbeat CPU 0 instructions: 960000000 cycles: 933053545 heartbeat IPC: 0.916355 cumulative IPC: 0.917383 (Simulation time: 3 hr 47 min 49 sec) 
Heartbeat CPU 1 instructions: 730000000 cycles: 937027947 heartbeat IPC: 1.06781 cumulative IPC: 0.638003 (Simulation time: 3 hr 48 min 49 sec) 
Heartbeat CPU 3 instructions: 1040000000 cycles: 938534601 heartbeat IPC: 1.04019 cumulative IPC: 1.00532 (Simulation time: 3 hr 49 min 11 sec) 
Heartbeat CPU 2 instructions: 690000000 cycles: 943329657 heartbeat IPC: 0.864763 cumulative IPC: 0.566194 (Simulation time: 3 hr 50 min 21 sec) 
Heartbeat CPU 0 instructions: 970000000 cycles: 943740767 heartbeat IPC: 0.935697 cumulative IPC: 0.917617 (Simulation time: 3 hr 50 min 27 sec) 
Heartbeat CPU 3 instructions: 1050000001 cycles: 948531522 heartbeat IPC: 1.00031 cumulative IPC: 1.00526 (Simulation time: 3 hr 51 min 30 sec) 
Heartbeat CPU 1 instructions: 740000000 cycles: 948582014 heartbeat IPC: 0.865496 cumulative IPC: 0.641123 (Simulation time: 3 hr 51 min 31 sec) 
Heartbeat CPU 2 instructions: 700000000 cycles: 955089541 heartbeat IPC: 0.850349 cumulative IPC: 0.570131 (Simulation time: 3 hr 52 min 58 sec) 
Heartbeat CPU 0 instructions: 980000000 cycles: 955101702 heartbeat IPC: 0.880209 cumulative IPC: 0.917116 (Simulation time: 3 hr 52 min 58 sec) 
Heartbeat CPU 3 instructions: 1060000000 cycles: 958591990 heartbeat IPC: 0.993989 cumulative IPC: 1.00512 (Simulation time: 3 hr 53 min 45 sec) 
Heartbeat CPU 1 instructions: 750000002 cycles: 963160967 heartbeat IPC: 0.68592 cumulative IPC: 0.641886 (Simulation time: 3 hr 54 min 47 sec) 
Heartbeat CPU 2 instructions: 710000001 cycles: 966584267 heartbeat IPC: 0.869964 cumulative IPC: 0.574137 (Simulation time: 3 hr 55 min 31 sec) 
Heartbeat CPU 0 instructions: 990000003 cycles: 967021448 heartbeat IPC: 0.838944 cumulative IPC: 0.916034 (Simulation time: 3 hr 55 min 37 sec) 
Heartbeat CPU 3 instructions: 1070000002 cycles: 968554172 heartbeat IPC: 1.0038 cumulative IPC: 1.00511 (Simulation time: 3 hr 55 min 59 sec) 
Heartbeat CPU 2 instructions: 720000000 cycles: 977679113 heartbeat IPC: 0.901319 cumulative IPC: 0.578303 (Simulation time: 3 hr 58 min 7 sec) 
Heartbeat CPU 3 instructions: 1080000000 cycles: 978013208 heartbeat IPC: 1.05719 cumulative IPC: 1.00567 (Simulation time: 3 hr 58 min 12 sec) 
Heartbeat CPU 1 instructions: 760000000 cycles: 978029767 heartbeat IPC: 0.672549 cumulative IPC: 0.642409 (Simulation time: 3 hr 58 min 12 sec) 
Heartbeat CPU 0 instructions: 1000000000 cycles: 978633973 heartbeat IPC: 0.861139 cumulative IPC: 0.915303 (Simulation time: 3 hr 58 min 20 sec) 
Heartbeat CPU 3 instructions: 1090000002 cycles: 988278656 heartbeat IPC: 0.974142 cumulative IPC: 1.00531 (Simulation time: 4 hr 0 min 26 sec) 
Heartbeat CPU 2 instructions: 730000000 cycles: 989313814 heartbeat IPC: 0.859498 cumulative IPC: 0.582008 (Simulation time: 4 hr 0 min 39 sec) 
Heartbeat CPU 0 instructions: 1010000000 cycles: 990378457 heartbeat IPC: 0.851464 cumulative IPC: 0.914455 (Simulation time: 4 hr 0 min 52 sec) 
Heartbeat CPU 1 instructions: 770000003 cycles: 993608631 heartbeat IPC: 0.641896 cumulative IPC: 0.6424 (Simulation time: 4 hr 1 min 34 sec) 
Heartbeat CPU 3 instructions: 1100000000 cycles: 997801458 heartbeat IPC: 1.05011 cumulative IPC: 1.00579 (Simulation time: 4 hr 2 min 30 sec) 
Heartbeat CPU 2 instructions: 740000000 cycles: 1001083978 heartbeat IPC: 0.849606 cumulative IPC: 0.585528 (Simulation time: 4 hr 3 min 19 sec) 
Heartbeat CPU 0 instructions: 1020000000 cycles: 1002497767 heartbeat IPC: 0.82513 cumulative IPC: 0.913247 (Simulation time: 4 hr 3 min 39 sec) 
Heartbeat CPU 1 instructions: 780000000 cycles: 1004427134 heartbeat IPC: 0.924342 cumulative IPC: 0.645796 (Simulation time: 4 hr 4 min 7 sec) 
Heartbeat CPU 3 instructions: 1110000003 cycles: 1007154554 heartbeat IPC: 1.06916 cumulative IPC: 1.00644 (Simulation time: 4 hr 4 min 47 sec) 
Heartbeat CPU 2 instructions: 750000001 cycles: 1012534581 heartbeat IPC: 0.873317 cumulative IPC: 0.589164 (Simulation time: 4 hr 6 min 9 sec) 
Heartbeat CPU 1 instructions: 790000003 cycles: 1013344002 heartbeat IPC: 1.12147 cumulative IPC: 0.650472 (Simulation time: 4 hr 6 min 21 sec) 
Heartbeat CPU 0 instructions: 1030000002 cycles: 1013652163 heartbeat IPC: 0.896508 cumulative IPC: 0.913041 (Simulation time: 4 hr 6 min 25 sec) 
Heartbeat CPU 3 instructions: 1120000000 cycles: 1016618225 heartbeat IPC: 1.05667 cumulative IPC: 1.00697 (Simulation time: 4 hr 7 min 7 sec) 
Heartbeat CPU 2 instructions: 760000000 cycles: 1024000703 heartbeat IPC: 0.872134 cumulative IPC: 0.5927 (Simulation time: 4 hr 8 min 47 sec) 
Heartbeat CPU 0 instructions: 1040000000 cycles: 1024462136 heartbeat IPC: 0.925071 cumulative IPC: 0.913183 (Simulation time: 4 hr 8 min 53 sec) 
Heartbeat CPU 3 instructions: 1130000002 cycles: 1026849349 heartbeat IPC: 0.97741 cumulative IPC: 1.00664 (Simulation time: 4 hr 9 min 24 sec) 
Heartbeat CPU 1 instructions: 800000000 cycles: 1027918058 heartbeat IPC: 0.686151 cumulative IPC: 0.651036 (Simulation time: 4 hr 9 min 38 sec) 
Heartbeat CPU 2 instructions: 770000001 cycles: 1035346639 heartbeat IPC: 0.881373 cumulative IPC: 0.596225 (Simulation time: 4 hr 11 min 15 sec) 
Heartbeat CPU 0 instructions: 1050000002 cycles: 1035412560 heartbeat IPC: 0.913207 cumulative IPC: 0.913183 (Simulation time: 4 hr 11 min 16 sec) 
Heartbeat CPU 3 instructions: 1140000000 cycles: 1036970571 heartbeat IPC: 0.988023 cumulative IPC: 1.00644 (Simulation time: 4 hr 11 min 39 sec) 
Heartbeat CPU 1 instructions: 810000000 cycles: 1044165611 heartbeat IPC: 0.615477 cumulative IPC: 0.65042 (Simulation time: 4 hr 13 min 19 sec) 
Heartbeat CPU 0 instructions: 1060000000 cycles: 1046471057 heartbeat IPC: 0.904282 cumulative IPC: 0.913078 (Simulation time: 4 hr 13 min 50 sec) 
Heartbeat CPU 3 instructions: 1150000003 cycles: 1046643914 heartbeat IPC: 1.03377 cumulative IPC: 1.00672 (Simulation time: 4 hr 13 min 52 sec) 
Heartbeat CPU 2 instructions: 780000000 cycles: 1046824158 heartbeat IPC: 0.871268 cumulative IPC: 0.599582 (Simulation time: 4 hr 13 min 55 sec) 
Heartbeat CPU 3 instructions: 1160000000 cycles: 1056627191 heartbeat IPC: 1.00167 cumulative IPC: 1.00666 (Simulation time: 4 hr 15 min 52 sec) 
Heartbeat CPU 0 instructions: 1070000000 cycles: 1059327788 heartbeat IPC: 0.777803 cumulative IPC: 0.911253 (Simulation time: 4 hr 16 min 23 sec) 
Heartbeat CPU 2 instructions: 790000002 cycles: 1060406686 heartbeat IPC: 0.73624 cumulative IPC: 0.601527 (Simulation time: 4 hr 16 min 36 sec) 
Heartbeat CPU 1 instructions: 820000000 cycles: 1066594185 heartbeat IPC: 0.44586 cumulative IPC: 0.645642 (Simulation time: 4 hr 18 min 11 sec) 
Heartbeat CPU 3 instructions: 1170000001 cycles: 1066644771 heartbeat IPC: 0.998245 cumulative IPC: 1.00658 (Simulation time: 4 hr 18 min 12 sec) 
Heartbeat CPU 0 instructions: 1080000000 cycles: 1071005291 heartbeat IPC: 0.856347 cumulative IPC: 0.910589 (Simulation time: 4 hr 19 min 10 sec) 
Heartbeat CPU 2 instructions: 800000000 cycles: 1073007666 heartbeat IPC: 0.793589 cumulative IPC: 0.604031 (Simulation time: 4 hr 19 min 36 sec) 
Heartbeat CPU 3 instructions: 1180000000 cycles: 1076283738 heartbeat IPC: 1.03746 cumulative IPC: 1.00688 (Simulation time: 4 hr 20 min 22 sec) 
Heartbeat CPU 1 instructions: 830000001 cycles: 1081404899 heartbeat IPC: 0.675187 cumulative IPC: 0.646091 (Simulation time: 4 hr 21 min 32 sec) 
Heartbeat CPU 0 instructions: 1090000000 cycles: 1083093618 heartbeat IPC: 0.827244 cumulative IPC: 0.909557 (Simulation time: 4 hr 21 min 54 sec) 
Heartbeat CPU 2 instructions: 810000001 cycles: 1084663825 heartbeat IPC: 0.857916 cumulative IPC: 0.607056 (Simulation time: 4 hr 22 min 15 sec) 
Heartbeat CPU 3 instructions: 1190000002 cycles: 1086020842 heartbeat IPC: 1.027 cumulative IPC: 1.00708 (Simulation time: 4 hr 22 min 34 sec) 
Heartbeat CPU 0 instructions: 1100000000 cycles: 1094767246 heartbeat IPC: 0.856632 cumulative IPC: 0.908932 (Simulation time: 4 hr 24 min 33 sec) 
Heartbeat CPU 3 instructions: 1200000000 cycles: 1095643701 heartbeat IPC: 1.03919 cumulative IPC: 1.00739 (Simulation time: 4 hr 24 min 44 sec) 
Heartbeat CPU 2 instructions: 820000000 cycles: 1096444384 heartbeat IPC: 0.848856 cumulative IPC: 0.609933 (Simulation time: 4 hr 24 min 55 sec) 
Heartbeat CPU 1 instructions: 840000000 cycles: 1097591154 heartbeat IPC: 0.617808 cumulative IPC: 0.645629 (Simulation time: 4 hr 25 min 10 sec) 
Finished CPU 3 instructions: 1000000000 cycles: 992682885 cumulative IPC: 1.00737 (Simulation time: 4 hr 25 min 30 sec) 
Heartbeat CPU 3 instructions: 1210000000 cycles: 1105459647 heartbeat IPC: 1.01875 cumulative IPC: 1.00751 (Simulation time: 4 hr 26 min 58 sec) 
Heartbeat CPU 0 instructions: 1110000000 cycles: 1105877969 heartbeat IPC: 0.900031 cumulative IPC: 0.908833 (Simulation time: 4 hr 27 min 4 sec) 
Heartbeat CPU 2 instructions: 830000002 cycles: 1107984072 heartbeat IPC: 0.866575 cumulative IPC: 0.612889 (Simulation time: 4 hr 27 min 31 sec) 
Heartbeat CPU 3 instructions: 1220000000 cycles: 1115765141 heartbeat IPC: 0.970356 cumulative IPC: 1.00713 (Simulation time: 4 hr 29 min 6 sec) 
Heartbeat CPU 1 instructions: 850000002 cycles: 1118087645 heartbeat IPC: 0.487888 cumulative IPC: 0.642434 (Simulation time: 4 hr 29 min 35 sec) 
Heartbeat CPU 0 instructions: 1120000000 cycles: 1118484735 heartbeat IPC: 0.793225 cumulative IPC: 0.907393 (Simulation time: 4 hr 29 min 40 sec) 
Heartbeat CPU 2 instructions: 840000000 cycles: 1120403698 heartbeat IPC: 0.805177 cumulative IPC: 0.615244 (Simulation time: 4 hr 30 min 4 sec) 
Heartbeat CPU 3 instructions: 1230000001 cycles: 1125725885 heartbeat IPC: 1.00394 cumulative IPC: 1.0071 (Simulation time: 4 hr 31 min 9 sec) 
Heartbeat CPU 0 instructions: 1130000000 cycles: 1130244070 heartbeat IPC: 0.850388 cumulative IPC: 0.906739 (Simulation time: 4 hr 32 min 6 sec) 
Heartbeat CPU 2 instructions: 850000000 cycles: 1132260089 heartbeat IPC: 0.843427 cumulative IPC: 0.617881 (Simulation time: 4 hr 32 min 34 sec) 
Heartbeat CPU 3 instructions: 1240000000 cycles: 1135152582 heartbeat IPC: 1.06082 cumulative IPC: 1.00759 (Simulation time: 4 hr 33 min 16 sec) 
Heartbeat CPU 1 instructions: 860000000 cycles: 1139085101 heartbeat IPC: 0.476248 cumulative IPC: 0.639055 (Simulation time: 4 hr 34 min 11 sec) 
Heartbeat CPU 0 instructions: 1140000000 cycles: 1141115134 heartbeat IPC: 0.919873 cumulative IPC: 0.906877 (Simulation time: 4 hr 34 min 40 sec) 
Heartbeat CPU 2 instructions: 860000000 cycles: 1143461928 heartbeat IPC: 0.892711 cumulative IPC: 0.620849 (Simulation time: 4 hr 35 min 13 sec) 
Heartbeat CPU 3 instructions: 1250000000 cycles: 1144477352 heartbeat IPC: 1.07241 cumulative IPC: 1.00817 (Simulation time: 4 hr 35 min 27 sec) 
Heartbeat CPU 0 instructions: 1150000001 cycles: 1152915107 heartbeat IPC: 0.84746 cumulative IPC: 0.906207 (Simulation time: 4 hr 37 min 20 sec) 
Heartbeat CPU 3 instructions: 1260000000 cycles: 1153931814 heartbeat IPC: 1.0577 cumulative IPC: 1.00862 (Simulation time: 4 hr 37 min 34 sec) 
Heartbeat CPU 2 instructions: 870000003 cycles: 1154480098 heartbeat IPC: 0.907592 cumulative IPC: 0.623864 (Simulation time: 4 hr 37 min 41 sec) 
Heartbeat CPU 1 instructions: 870000002 cycles: 1154599406 heartbeat IPC: 0.644567 cumulative IPC: 0.639137 (Simulation time: 4 hr 37 min 43 sec) 
Heartbeat CPU 3 instructions: 1270000000 cycles: 1163395162 heartbeat IPC: 1.05671 cumulative IPC: 1.00905 (Simulation time: 4 hr 39 min 41 sec) 
Heartbeat CPU 0 instructions: 1160000000 cycles: 1164013325 heartbeat IPC: 0.901045 cumulative IPC: 0.906153 (Simulation time: 4 hr 39 min 49 sec) 
Heartbeat CPU 2 instructions: 880000000 cycles: 1165994325 heartbeat IPC: 0.868491 cumulative IPC: 0.626522 (Simulation time: 4 hr 40 min 13 sec) 
Heartbeat CPU 1 instructions: 880000000 cycles: 1170028873 heartbeat IPC: 0.64811 cumulative IPC: 0.639267 (Simulation time: 4 hr 41 min 11 sec) 
Heartbeat CPU 3 instructions: 1280000000 cycles: 1173737862 heartbeat IPC: 0.966866 cumulative IPC: 1.00864 (Simulation time: 4 hr 42 min 7 sec) 
Heartbeat CPU 0 instructions: 1170000000 cycles: 1175298481 heartbeat IPC: 0.88612 cumulative IPC: 0.905941 (Simulation time: 4 hr 42 min 30 sec) 
Heartbeat CPU 2 instructions: 890000003 cycles: 1177549318 heartbeat IPC: 0.865427 cumulative IPC: 0.629099 (Simulation time: 4 hr 43 min 3 sec) 
Heartbeat CPU 1 instructions: 890000003 cycles: 1179364132 heartbeat IPC: 1.07121 cumulative IPC: 0.643025 (Simulation time: 4 hr 43 min 29 sec) 
Heartbeat CPU 3 instructions: 1290000003 cycles: 1183722521 heartbeat IPC: 1.00154 cumulative IPC: 1.00857 (Simulation time: 4 hr 44 min 34 sec) 
Heartbeat CPU 0 instructions: 1180000000 cycles: 1186578645 heartbeat IPC: 0.886512 cumulative IPC: 0.905738 (Simulation time: 4 hr 45 min 12 sec) 
Heartbeat CPU 2 instructions: 900000000 cycles: 1189307458 heartbeat IPC: 0.850474 cumulative IPC: 0.631502 (Simulation time: 4 hr 45 min 47 sec) 
Heartbeat CPU 1 instructions: 900000000 cycles: 1191386562 heartbeat IPC: 0.831778 cumulative IPC: 0.645116 (Simulation time: 4 hr 46 min 18 sec) 
Heartbeat CPU 3 instructions: 1300000000 cycles: 1193529404 heartbeat IPC: 1.01969 cumulative IPC: 1.00867 (Simulation time: 4 hr 46 min 50 sec) 
Heartbeat CPU 0 instructions: 1190000003 cycles: 1197973822 heartbeat IPC: 0.877564 cumulative IPC: 0.905444 (Simulation time: 4 hr 47 min 56 sec) 
Heartbeat CPU 1 instructions: 910000003 cycles: 1200415714 heartbeat IPC: 1.10752 cumulative IPC: 0.648932 (Simulation time: 4 hr 48 min 31 sec) 
Heartbeat CPU 2 instructions: 910000002 cycles: 1200539686 heartbeat IPC: 0.890296 cumulative IPC: 0.634159 (Simulation time: 4 hr 48 min 33 sec) 
Heartbeat CPU 3 instructions: 1310000000 cycles: 1203857730 heartbeat IPC: 0.968211 cumulative IPC: 1.00829 (Simulation time: 4 hr 49 min 23 sec) 
Heartbeat CPU 0 instructions: 1200000000 cycles: 1208697611 heartbeat IPC: 0.932506 cumulative IPC: 0.905707 (Simulation time: 4 hr 50 min 29 sec) 
Finished CPU 0 instructions: 1000000000 cycles: 1104147041 cumulative IPC: 0.905676 (Simulation time: 4 hr 50 min 50 sec) 
Heartbeat CPU 1 instructions: 920000000 cycles: 1212347887 heartbeat IPC: 0.83807 cumulative IPC: 0.650973 (Simulation time: 4 hr 51 min 18 sec) 
Heartbeat CPU 2 instructions: 920000000 cycles: 1212525859 heartbeat IPC: 0.834294 cumulative IPC: 0.636327 (Simulation time: 4 hr 51 min 21 sec) 
Heartbeat CPU 3 instructions: 1320000000 cycles: 1214546495 heartbeat IPC: 0.935562 cumulative IPC: 1.00759 (Simulation time: 4 hr 51 min 50 sec) 
Heartbeat CPU 0 instructions: 1210000001 cycles: 1219484000 heartbeat IPC: 0.927094 cumulative IPC: 0.905915 (Simulation time: 4 hr 53 min 3 sec) 
Heartbeat CPU 1 instructions: 930000002 cycles: 1222049576 heartbeat IPC: 1.03075 cumulative IPC: 0.654275 (Simulation time: 4 hr 53 min 39 sec) 
Heartbeat CPU 2 instructions: 930000001 cycles: 1223600878 heartbeat IPC: 0.902933 cumulative IPC: 0.63897 (Simulation time: 4 hr 54 min 2 sec) 
Heartbeat CPU 3 instructions: 1330000000 cycles: 1225249246 heartbeat IPC: 0.934339 cumulative IPC: 1.00689 (Simulation time: 4 hr 54 min 25 sec) 
Heartbeat CPU 0 instructions: 1220000000 cycles: 1230135658 heartbeat IPC: 0.938821 cumulative IPC: 0.906226 (Simulation time: 4 hr 55 min 33 sec) 
Heartbeat CPU 1 instructions: 940000000 cycles: 1234943595 heartbeat IPC: 0.775553 cumulative IPC: 0.65566 (Simulation time: 4 hr 56 min 36 sec) 
Heartbeat CPU 2 instructions: 940000000 cycles: 1235476262 heartbeat IPC: 0.842078 cumulative IPC: 0.641106 (Simulation time: 4 hr 56 min 43 sec) 
Heartbeat CPU 3 instructions: 1340000000 cycles: 1236269739 heartbeat IPC: 0.9074 cumulative IPC: 1.00592 (Simulation time: 4 hr 56 min 55 sec) 
Heartbeat CPU 0 instructions: 1230000002 cycles: 1241188010 heartbeat IPC: 0.904785 cumulative IPC: 0.906212 (Simulation time: 4 hr 58 min 8 sec) 
Heartbeat CPU 1 instructions: 950000000 cycles: 1243925992 heartbeat IPC: 1.11329 cumulative IPC: 0.659274 (Simulation time: 4 hr 58 min 48 sec) 
Heartbeat CPU 3 instructions: 1350000001 cycles: 1246842224 heartbeat IPC: 0.945852 cumulative IPC: 1.00536 (Simulation time: 4 hr 59 min 25 sec) 
Heartbeat CPU 0 instructions: 1240000000 cycles: 1252298410 heartbeat IPC: 0.900057 cumulative IPC: 0.906153 (Simulation time: 5 hr 0 min 32 sec) 
Heartbeat CPU 3 instructions: 1360000000 cycles: 1256672916 heartbeat IPC: 1.01722 cumulative IPC: 1.00546 (Simulation time: 5 hr 1 min 19 sec) 
Heartbeat CPU 1 instructions: 960000000 cycles: 1257497410 heartbeat IPC: 0.736843 cumulative IPC: 0.660188 (Simulation time: 5 hr 1 min 29 sec) 
Heartbeat CPU 0 instructions: 1250000000 cycles: 1263941455 heartbeat IPC: 0.858882 cumulative IPC: 0.905677 (Simulation time: 5 hr 2 min 46 sec) 
Heartbeat CPU 2 instructions: 950000003 cycles: 1264446996 heartbeat IPC: 0.345176 cumulative IPC: 0.633703 (Simulation time: 5 hr 2 min 52 sec) 
Heartbeat CPU 3 instructions: 1370000000 cycles: 1266718032 heartbeat IPC: 0.995509 cumulative IPC: 1.00538 (Simulation time: 5 hr 3 min 19 sec) 
Heartbeat CPU 1 instructions: 970000003 cycles: 1272549005 heartbeat IPC: 0.664382 cumulative IPC: 0.660242 (Simulation time: 5 hr 4 min 30 sec) 
Heartbeat CPU 0 instructions: 1260000000 cycles: 1275036409 heartbeat IPC: 0.901311 cumulative IPC: 0.905636 (Simulation time: 5 hr 4 min 59 sec) 
Heartbeat CPU 3 instructions: 1380000000 cycles: 1276298706 heartbeat IPC: 1.04377 cumulative IPC: 1.00569 (Simulation time: 5 hr 5 min 15 sec) 
Heartbeat CPU 0 instructions: 1270000002 cycles: 1285580990 heartbeat IPC: 0.948355 cumulative IPC: 0.906018 (Simulation time: 5 hr 7 min 25 sec) 
Heartbeat CPU 3 instructions: 1390000000 cycles: 1286000295 heartbeat IPC: 1.03076 cumulative IPC: 1.0059 (Simulation time: 5 hr 7 min 31 sec) 
Heartbeat CPU 2 instructions: 960000000 cycles: 1286471294 heartbeat IPC: 0.454044 cumulative IPC: 0.63035 (Simulation time: 5 hr 7 min 38 sec) 
Heartbeat CPU 1 instructions: 980000000 cycles: 1287591208 heartbeat IPC: 0.664796 cumulative IPC: 0.6603 (Simulation time: 5 hr 7 min 54 sec) 
Heartbeat CPU 3 instructions: 1400000000 cycles: 1295677766 heartbeat IPC: 1.03333 cumulative IPC: 1.00612 (Simulation time: 5 hr 9 min 49 sec) 
Heartbeat CPU 0 instructions: 1280000000 cycles: 1296123768 heartbeat IPC: 0.948516 cumulative IPC: 0.906394 (Simulation time: 5 hr 9 min 55 sec) 
Heartbeat CPU 2 instructions: 970000000 cycles: 1297423894 heartbeat IPC: 0.913025 cumulative IPC: 0.63295 (Simulation time: 5 hr 10 min 16 sec) 
Heartbeat CPU 1 instructions: 990000003 cycles: 1302627732 heartbeat IPC: 0.665048 cumulative IPC: 0.66036 (Simulation time: 5 hr 11 min 30 sec) 
Heartbeat CPU 3 instructions: 1410000002 cycles: 1305052220 heartbeat IPC: 1.06673 cumulative IPC: 1.0066 (Simulation time: 5 hr 12 min 4 sec) 
Heartbeat CPU 0 instructions: 1290000001 cycles: 1306836215 heartbeat IPC: 0.933494 cumulative IPC: 0.906636 (Simulation time: 5 hr 12 min 30 sec) 
Heartbeat CPU 2 instructions: 980000000 cycles: 1308165256 heartbeat IPC: 0.930981 cumulative IPC: 0.635613 (Simulation time: 5 hr 12 min 49 sec) 
Heartbeat CPU 3 instructions: 1420000000 cycles: 1314903158 heartbeat IPC: 1.01513 cumulative IPC: 1.00667 (Simulation time: 5 hr 14 min 12 sec) 
Heartbeat CPU 0 instructions: 1300000000 cycles: 1318317070 heartbeat IPC: 0.871015 cumulative IPC: 0.906299 (Simulation time: 5 hr 14 min 59 sec) 
Heartbeat CPU 1 instructions: 1000000000 cycles: 1319272811 heartbeat IPC: 0.600778 cumulative IPC: 0.659542 (Simulation time: 5 hr 15 min 11 sec) 
Heartbeat CPU 2 instructions: 990000001 cycles: 1320346597 heartbeat IPC: 0.820928 cumulative IPC: 0.637473 (Simulation time: 5 hr 15 min 24 sec) 
Heartbeat CPU 3 instructions: 1430000002 cycles: 1324910486 heartbeat IPC: 0.999268 cumulative IPC: 1.00661 (Simulation time: 5 hr 16 min 21 sec) 
Heartbeat CPU 0 instructions: 1310000000 cycles: 1329289232 heartbeat IPC: 0.911397 cumulative IPC: 0.906345 (Simulation time: 5 hr 17 min 16 sec) 
Heartbeat CPU 2 instructions: 1000000000 cycles: 1331705612 heartbeat IPC: 0.880358 cumulative IPC: 0.639724 (Simulation time: 5 hr 17 min 46 sec) 
Heartbeat CPU 3 instructions: 1440000000 cycles: 1335083311 heartbeat IPC: 0.983011 cumulative IPC: 1.00641 (Simulation time: 5 hr 18 min 25 sec) 
Heartbeat CPU 1 instructions: 1010000001 cycles: 1341311499 heartbeat IPC: 0.453748 cumulative IPC: 0.65587 (Simulation time: 5 hr 19 min 33 sec) 
Heartbeat CPU 0 instructions: 1320000000 cycles: 1341680706 heartbeat IPC: 0.807006 cumulative IPC: 0.905348 (Simulation time: 5 hr 19 min 38 sec) 
Heartbeat CPU 2 instructions: 1010000000 cycles: 1344984232 heartbeat IPC: 0.75309 cumulative IPC: 0.640939 (Simulation time: 5 hr 20 min 25 sec) 
Heartbeat CPU 3 instructions: 1450000002 cycles: 1345185370 heartbeat IPC: 0.989897 cumulative IPC: 1.00628 (Simulation time: 5 hr 20 min 28 sec) 
Heartbeat CPU 1 instructions: 1020000000 cycles: 1350182853 heartbeat IPC: 1.12722 cumulative IPC: 0.659232 (Simulation time: 5 hr 21 min 40 sec) 
Heartbeat CPU 0 instructions: 1330000000 cycles: 1352591386 heartbeat IPC: 0.916533 cumulative IPC: 0.905446 (Simulation time: 5 hr 22 min 14 sec) 
Heartbeat CPU 3 instructions: 1460000000 cycles: 1354720999 heartbeat IPC: 1.0487 cumulative IPC: 1.0066 (Simulation time: 5 hr 22 min 44 sec) 
Heartbeat CPU 2 instructions: 1020000000 cycles: 1356112504 heartbeat IPC: 0.898612 cumulative IPC: 0.643234 (Simulation time: 5 hr 23 min 4 sec) 
Heartbeat CPU 1 instructions: 1030000001 cycles: 1359986248 heartbeat IPC: 1.02005 cumulative IPC: 0.662053 (Simulation time: 5 hr 24 min 0 sec) 
Heartbeat CPU 0 instructions: 1340000000 cycles: 1363495175 heartbeat IPC: 0.917112 cumulative IPC: 0.905547 (Simulation time: 5 hr 24 min 50 sec) 
Heartbeat CPU 3 instructions: 1470000000 cycles: 1364368718 heartbeat IPC: 1.03651 cumulative IPC: 1.00683 (Simulation time: 5 hr 25 min 3 sec) 
Heartbeat CPU 2 instructions: 1030000000 cycles: 1367325312 heartbeat IPC: 0.891837 cumulative IPC: 0.645444 (Simulation time: 5 hr 25 min 44 sec) 
Heartbeat CPU 1 instructions: 1040000000 cycles: 1369659107 heartbeat IPC: 1.03382 cumulative IPC: 0.6649 (Simulation time: 5 hr 26 min 18 sec) 
Heartbeat CPU 3 instructions: 1480000000 cycles: 1374265782 heartbeat IPC: 1.0104 cumulative IPC: 1.00686 (Simulation time: 5 hr 27 min 24 sec) 
Heartbeat CPU 0 instructions: 1350000002 cycles: 1374300983 heartbeat IPC: 0.925428 cumulative IPC: 0.905717 (Simulation time: 5 hr 27 min 24 sec) 
Heartbeat CPU 2 instructions: 1040000000 cycles: 1378414903 heartbeat IPC: 0.901747 cumulative IPC: 0.647679 (Simulation time: 5 hr 28 min 23 sec) 
Heartbeat CPU 1 instructions: 1050000002 cycles: 1378440503 heartbeat IPC: 1.13877 cumulative IPC: 0.668171 (Simulation time: 5 hr 28 min 24 sec) 
Heartbeat CPU 3 instructions: 1490000001 cycles: 1383653908 heartbeat IPC: 1.06518 cumulative IPC: 1.00728 (Simulation time: 5 hr 29 min 38 sec) 
Heartbeat CPU 0 instructions: 1360000000 cycles: 1385339532 heartbeat IPC: 0.905916 cumulative IPC: 0.905718 (Simulation time: 5 hr 30 min 2 sec) 
Heartbeat CPU 1 instructions: 1060000000 cycles: 1387920307 heartbeat IPC: 1.05487 cumulative IPC: 0.671031 (Simulation time: 5 hr 30 min 39 sec) 
Heartbeat CPU 2 instructions: 1050000002 cycles: 1389699283 heartbeat IPC: 0.886181 cumulative IPC: 0.649776 (Simulation time: 5 hr 31 min 5 sec) 
Heartbeat CPU 3 instructions: 1500000000 cycles: 1393331296 heartbeat IPC: 1.03334 cumulative IPC: 1.00748 (Simulation time: 5 hr 31 min 57 sec) 
Heartbeat CPU 0 instructions: 1370000003 cycles: 1396034726 heartbeat IPC: 0.935 cumulative IPC: 0.905961 (Simulation time: 5 hr 32 min 36 sec) 
Heartbeat CPU 1 instructions: 1070000000 cycles: 1396854870 heartbeat IPC: 1.11925 cumulative IPC: 0.674134 (Simulation time: 5 hr 32 min 47 sec) 
Heartbeat CPU 2 instructions: 1060000000 cycles: 1400966862 heartbeat IPC: 0.887502 cumulative IPC: 0.651845 (Simulation time: 5 hr 33 min 41 sec) 
Heartbeat CPU 3 instructions: 1510000000 cycles: 1402982257 heartbeat IPC: 1.03617 cumulative IPC: 1.00769 (Simulation time: 5 hr 34 min 7 sec) 
Heartbeat CPU 0 instructions: 1380000000 cycles: 1407501190 heartbeat IPC: 0.872108 cumulative IPC: 0.905663 (Simulation time: 5 hr 35 min 7 sec) 
Heartbeat CPU 1 instructions: 1080000000 cycles: 1412048786 heartbeat IPC: 0.658158 cumulative IPC: 0.673948 (Simulation time: 5 hr 36 min 5 sec) 
Heartbeat CPU 2 instructions: 1070000002 cycles: 1412438765 heartbeat IPC: 0.871695 cumulative IPC: 0.653776 (Simulation time: 5 hr 36 min 10 sec) 
Heartbeat CPU 3 instructions: 1520000000 cycles: 1412695747 heartbeat IPC: 1.0295 cumulative IPC: 1.00786 (Simulation time: 5 hr 36 min 13 sec) 
Heartbeat CPU 0 instructions: 1390000003 cycles: 1419700845 heartbeat IPC: 0.819696 cumulative IPC: 0.904864 (Simulation time: 5 hr 37 min 47 sec) 
Heartbeat CPU 3 instructions: 1530000001 cycles: 1422623314 heartbeat IPC: 1.0073 cumulative IPC: 1.00785 (Simulation time: 5 hr 38 min 26 sec) 
Heartbeat CPU 2 instructions: 1080000000 cycles: 1423688368 heartbeat IPC: 0.88892 cumulative IPC: 0.655784 (Simulation time: 5 hr 38 min 41 sec) 
Heartbeat CPU 1 instructions: 1090000001 cycles: 1427365888 heartbeat IPC: 0.652865 cumulative IPC: 0.673704 (Simulation time: 5 hr 39 min 33 sec) 
Heartbeat CPU 0 instructions: 1400000000 cycles: 1431030013 heartbeat IPC: 0.882677 cumulative IPC: 0.904675 (Simulation time: 5 hr 40 min 24 sec) 
Heartbeat CPU 3 instructions: 1540000000 cycles: 1432301505 heartbeat IPC: 1.03325 cumulative IPC: 1.00804 (Simulation time: 5 hr 40 min 41 sec) 
Heartbeat CPU 2 instructions: 1090000001 cycles: 1434766865 heartbeat IPC: 0.90265 cumulative IPC: 0.657842 (Simulation time: 5 hr 41 min 14 sec) 
Heartbeat CPU 3 instructions: 1550000003 cycles: 1441798953 heartbeat IPC: 1.05291 cumulative IPC: 1.00836 (Simulation time: 5 hr 42 min 44 sec) 
Heartbeat CPU 0 instructions: 1410000001 cycles: 1442342256 heartbeat IPC: 0.883998 cumulative IPC: 0.9045 (Simulation time: 5 hr 42 min 51 sec) 
Heartbeat CPU 1 instructions: 1100000000 cycles: 1442856362 heartbeat IPC: 0.645558 cumulative IPC: 0.673378 (Simulation time: 5 hr 42 min 58 sec) 
Heartbeat CPU 2 instructions: 1100000000 cycles: 1446333031 heartbeat IPC: 0.864591 cumulative IPC: 0.659627 (Simulation time: 5 hr 43 min 41 sec) 
Heartbeat CPU 3 instructions: 1560000000 cycles: 1451476495 heartbeat IPC: 1.03332 cumulative IPC: 1.00854 (Simulation time: 5 hr 44 min 48 sec) 
Heartbeat CPU 0 instructions: 1420000000 cycles: 1453712009 heartbeat IPC: 0.879526 cumulative IPC: 0.904289 (Simulation time: 5 hr 45 min 17 sec) 
Heartbeat CPU 2 instructions: 1110000000 cycles: 1457757234 heartbeat IPC: 0.875335 cumulative IPC: 0.66145 (Simulation time: 5 hr 46 min 9 sec) 
Heartbeat CPU 1 instructions: 1110000001 cycles: 1458429303 heartbeat IPC: 0.64214 cumulative IPC: 0.673018 (Simulation time: 5 hr 46 min 18 sec) 
Heartbeat CPU 3 instructions: 1570000001 cycles: 1461154965 heartbeat IPC: 1.03322 cumulative IPC: 1.00871 (Simulation time: 5 hr 46 min 53 sec) 
Heartbeat CPU 0 instructions: 1430000002 cycles: 1464378349 heartbeat IPC: 0.937529 cumulative IPC: 0.90455 (Simulation time: 5 hr 47 min 36 sec) 
Heartbeat CPU 2 instructions: 1120000000 cycles: 1469609157 heartbeat IPC: 0.843745 cumulative IPC: 0.663035 (Simulation time: 5 hr 48 min 43 sec) 
Heartbeat CPU 3 instructions: 1580000000 cycles: 1471307685 heartbeat IPC: 0.984958 cumulative IPC: 1.00854 (Simulation time: 5 hr 49 min 1 sec) 
Heartbeat CPU 1 instructions: 1120000000 cycles: 1475164228 heartbeat IPC: 0.597553 cumulative IPC: 0.672095 (Simulation time: 5 hr 49 min 45 sec) 
Heartbeat CPU 0 instructions: 1440000000 cycles: 1476584422 heartbeat IPC: 0.819264 cumulative IPC: 0.90379 (Simulation time: 5 hr 50 min 1 sec) 
Heartbeat CPU 3 instructions: 1590000001 cycles: 1481572915 heartbeat IPC: 0.974162 cumulative IPC: 1.00828 (Simulation time: 5 hr 50 min 58 sec) 
Heartbeat CPU 2 instructions: 1130000001 cycles: 1483952585 heartbeat IPC: 0.697183 cumulative IPC: 0.663391 (Simulation time: 5 hr 51 min 30 sec) 
Heartbeat CPU 0 instructions: 1450000001 cycles: 1488517077 heartbeat IPC: 0.838037 cumulative IPC: 0.903223 (Simulation time: 5 hr 52 min 26 sec) 
Heartbeat CPU 3 instructions: 1600000000 cycles: 1491463784 heartbeat IPC: 1.01103 cumulative IPC: 1.0083 (Simulation time: 5 hr 53 min 2 sec) 
Heartbeat CPU 1 instructions: 1130000000 cycles: 1492438061 heartbeat IPC: 0.57891 cumulative IPC: 0.670934 (Simulation time: 5 hr 53 min 14 sec) 
Heartbeat CPU 2 instructions: 1140000000 cycles: 1498434005 heartbeat IPC: 0.69054 cumulative IPC: 0.663673 (Simulation time: 5 hr 54 min 27 sec) 
Heartbeat CPU 3 instructions: 1610000001 cycles: 1501203685 heartbeat IPC: 1.0267 cumulative IPC: 1.00843 (Simulation time: 5 hr 55 min 0 sec) 
Heartbeat CPU 0 instructions: 1460000000 cycles: 1501501275 heartbeat IPC: 0.770167 cumulative IPC: 0.901984 (Simulation time: 5 hr 55 min 4 sec) 
Heartbeat CPU 1 instructions: 1140000000 cycles: 1506721165 heartbeat IPC: 0.700128 cumulative IPC: 0.671232 (Simulation time: 5 hr 56 min 12 sec) 
Heartbeat CPU 3 instructions: 1620000000 cycles: 1510900977 heartbeat IPC: 1.03122 cumulative IPC: 1.00858 (Simulation time: 5 hr 57 min 2 sec) 
Heartbeat CPU 0 instructions: 1470000003 cycles: 1513268735 heartbeat IPC: 0.849801 cumulative IPC: 0.901548 (Simulation time: 5 hr 57 min 30 sec) 
Heartbeat CPU 2 instructions: 1150000000 cycles: 1513867713 heartbeat IPC: 0.647932 cumulative IPC: 0.6635 (Simulation time: 5 hr 57 min 37 sec) 
Heartbeat CPU 3 instructions: 1630000003 cycles: 1520772822 heartbeat IPC: 1.01298 cumulative IPC: 1.00862 (Simulation time: 5 hr 59 min 1 sec) 
Heartbeat CPU 1 instructions: 1150000000 cycles: 1523653683 heartbeat IPC: 0.59058 cumulative IPC: 0.670268 (Simulation time: 5 hr 59 min 36 sec) 
Heartbeat CPU 0 instructions: 1480000000 cycles: 1524497166 heartbeat IPC: 0.890596 cumulative IPC: 0.901461 (Simulation time: 5 hr 59 min 45 sec) 
[...]
Heartbeat CPU 0 instructions: 1500000000 cycles: 1548707932 heartbeat IPC: 0.85005 cumulative IPC: 0.900196 (Simulation time: 6 hr 4 min 23 sec) 
Heartbeat CPU 3 instructions: 1660000000 cycles: 1550902285 heartbeat IPC: 0.998313 cumulative IPC: 1.00835 (Simulation time: 6 hr 4 min 50 sec) 
Heartbeat CPU 2 instructions: 1170000000 cycles: 1553026303 heartbeat IPC: 0.473795 cumulative IPC: 0.659366 (Simulation time: 6 hr 5 min 14 sec) 
Heartbeat CPU 1 instructions: 1170000000 cycles: 1558658869 heartbeat IPC: 0.614681 cumulative IPC: 0.667884 (Simulation time: 6 hr 6 min 18 sec) 
Heartbeat CPU 3 instructions: 1670000000 cycles: 1560479166 heartbeat IPC: 1.04418 cumulative IPC: 1.00858 (Simulation time: 6 hr 6 min 39 sec) 
Heartbeat CPU 0 instructions: 1510000000 cycles: 1560518322 heartbeat IPC: 0.846712 cumulative IPC: 0.899761 (Simulation time: 6 hr 6 min 39 sec) 
Heartbeat CPU 3 instructions: 1680000000 cycles: 1569873841 heartbeat IPC: 1.06443 cumulative IPC: 1.00894 (Simulation time: 6 hr 8 min 30 sec) 
Heartbeat CPU 0 instructions: 1520000000 cycles: 1571686059 heartbeat IPC: 0.895437 cumulative IPC: 0.899728 (Simulation time: 6 hr 8 min 50 sec) 
Heartbeat CPU 1 instructions: 1180000000 cycles: 1579592107 heartbeat IPC: 0.477709 cumulative IPC: 0.665182 (Simulation time: 6 hr 10 min 12 sec) 
Heartbeat CPU 2 instructions: 1180000000 cycles: 1579759524 heartbeat IPC: 0.374066 cumulative IPC: 0.65419 (Simulation time: 6 hr 10 min 13 sec) 
Heartbeat CPU 3 instructions: 1690000002 cycles: 1579872588 heartbeat IPC: 1.00013 cumulative IPC: 1.00888 (Simulation time: 6 hr 10 min 14 sec) 
Heartbeat CPU 0 instructions: 1530000000 cycles: 1584623071 heartbeat IPC: 0.772976 cumulative IPC: 0.898619 (Simulation time: 6 hr 11 min 4 sec) 
Heartbeat CPU 3 instructions: 1700000000 cycles: 1589881797 heartbeat IPC: 0.99908 cumulative IPC: 1.00881 (Simulation time: 6 hr 11 min 59 sec) 
Heartbeat CPU 0 instructions: 1540000000 cycles: 1595975844 heartbeat IPC: 0.880842 cumulative IPC: 0.898484 (Simulation time: 6 hr 13 min 2 sec) 
Heartbeat CPU 3 instructions: 1710000001 cycles: 1600277878 heartbeat IPC: 0.961901 cumulative IPC: 1.00849 (Simulation time: 6 hr 13 min 52 sec) 
Heartbeat CPU 1 instructions: 1190000003 cycles: 1602855082 heartbeat IPC: 0.429868 cumulative IPC: 0.661524 (Simulation time: 6 hr 14 min 23 sec) 
Heartbeat CPU 0 instructions: 1550000002 cycles: 1606492914 heartbeat IPC: 0.950835 cumulative IPC: 0.898851 (Simulation time: 6 hr 15 min 6 sec) 
Heartbeat CPU 2 instructions: 1190000001 cycles: 1607354358 heartbeat IPC: 0.362387 cumulative IPC: 0.648825 (Simulation time: 6 hr 15 min 17 sec) 
Heartbeat CPU 3 instructions: 1720000000 cycles: 1610288214 heartbeat IPC: 0.998967 cumulative IPC: 1.00843 (Simulation time: 6 hr 15 min 50 sec) 
Heartbeat CPU 0 instructions: 1560000000 cycles: 1617454346 heartbeat IPC: 0.912289 cumulative IPC: 0.898948 (Simulation time: 6 hr 17 min 9 sec) 
Heartbeat CPU 1 instructions: 1200000000 cycles: 1618195335 heartbeat IPC: 0.65188 cumulative IPC: 0.661426 (Simulation time: 6 hr 17 min 18 sec) 
Finished CPU 1 instructions: 1000000002 cycles: 1511884923 cumulative IPC: 0.661426 (Simulation time: 6 hr 17 min 18 sec) 
Heartbeat CPU 3 instructions: 1730000000 cycles: 1620580848 heartbeat IPC: 0.971569 cumulative IPC: 1.00817 (Simulation time: 6 hr 17 min 43 sec) 
Heartbeat CPU 0 instructions: 1570000002 cycles: 1628926281 heartbeat IPC: 0.871693 cumulative IPC: 0.898743 (Simulation time: 6 hr 19 min 16 sec) 
Heartbeat CPU 3 instructions: 1740000000 cycles: 1630586983 heartbeat IPC: 0.999387 cumulative IPC: 1.00812 (Simulation time: 6 hr 19 min 35 sec) 
Heartbeat CPU 1 instructions: 1210000003 cycles: 1633980053 heartbeat IPC: 0.633524 cumulative IPC: 0.661138 (Simulation time: 6 hr 20 min 14 sec) 
Heartbeat CPU 2 instructions: 1200000000 cycles: 1636381503 heartbeat IPC: 0.344505 cumulative IPC: 0.643052 (Simulation time: 6 hr 20 min 42 sec) 
Heartbeat CPU 0 instructions: 1580000000 cycles: 1639667666 heartbeat IPC: 0.930978 cumulative IPC: 0.898969 (Simulation time: 6 hr 21 min 18 sec) 
Heartbeat CPU 3 instructions: 1750000002 cycles: 1640334365 heartbeat IPC: 1.02592 cumulative IPC: 1.00823 (Simulation time: 6 hr 21 min 25 sec) 
Heartbeat CPU 3 instructions: 1760000000 cycles: 1650156223 heartbeat IPC: 1.01814 cumulative IPC: 1.00829 (Simulation time: 6 hr 23 min 12 sec) 
Heartbeat CPU 0 instructions: 1590000000 cycles: 1650838710 heartbeat IPC: 0.895171 cumulative IPC: 0.898941 (Simulation time: 6 hr 23 min 20 sec) 
Heartbeat CPU 1 instructions: 1220000000 cycles: 1652111839 heartbeat IPC: 0.551517 cumulative IPC: 0.659852 (Simulation time: 6 hr 23 min 34 sec) 
Heartbeat CPU 3 instructions: 1770000003 cycles: 1659898390 heartbeat IPC: 1.02647 cumulative IPC: 1.00841 (Simulation time: 6 hr 25 min 4 sec) 
Heartbeat CPU 0 instructions: 1600000000 cycles: 1661906554 heartbeat IPC: 0.903518 cumulative IPC: 0.898974 (Simulation time: 6 hr 25 min 28 sec) 
Heartbeat CPU 2 instructions: 1210000000 cycles: 1663277427 heartbeat IPC: 0.371804 cumulative IPC: 0.638366 (Simulation time: 6 hr 25 min 43 sec) 
Heartbeat CPU 1 instructions: 1230000003 cycles: 1666231048 heartbeat IPC: 0.708255 cumulative IPC: 0.66029 (Simulation time: 6 hr 26 min 16 sec) 
Heartbeat CPU 3 instructions: 1780000000 cycles: 1669568912 heartbeat IPC: 1.03407 cumulative IPC: 1.00857 (Simulation time: 6 hr 26 min 54 sec) 
Heartbeat CPU 0 instructions: 1610000001 cycles: 1673177334 heartbeat IPC: 0.88725 cumulative IPC: 0.898889 (Simulation time: 6 hr 27 min 34 sec) 
Finished CPU 2 instructions: 1000000001 cycles: 1572985630 cumulative IPC: 0.635734 (Simulation time: 6 hr 28 min 38 sec) 

CPU 0 Branch Prediction Accuracy: 99.9709% MPKI: 0.00726535

CPU 1 Branch Prediction Accuracy: 98.9681% MPKI: 0.816104

CPU 2 Branch Prediction Accuracy: 98.4624% MPKI: 0.212269

CPU 3 Branch Prediction Accuracy: 96.7442% MPKI: 0.27421

ChampSim completed all CPUs

Total Simulation Statistics (not including warmup)

CPU 0 cumulative IPC: 0.898618 instructions: 1413512791 cycles: 1572985629
L1D TOTAL     ACCESS:  537338913  HIT:  507996755  MISS:   29342158
L1D LOAD      ACCESS:  459173066  HIT:  430717184  MISS:   28455882
L1D RFO       ACCESS:   78165847  HIT:   77279571  MISS:     886276
L1D PREFETCH  ACCESS:          0  HIT:          0  MISS:          0
L1D WRITEBACK ACCESS:          0  HIT:          0  MISS:          0
L1I TOTAL     ACCESS:  351291902  HIT:  351291902  MISS:          0
L1I LOAD      ACCESS:  351291902  HIT:  351291902  MISS:          0
L1I RFO       ACCESS:          0  HIT:          0  MISS:          0
L1I PREFETCH  ACCESS:          0  HIT:          0  MISS:          0
L1I WRITEBACK ACCESS:          0  HIT:          0  MISS:          0
L2C TOTAL     ACCESS:   44877005  HIT:   17943066  MISS:   26933939
L2C LOAD      ACCESS:   28448192  HIT:   16702101  MISS:   11746091
L2C RFO       ACCESS:     869896  HIT:     181171  MISS:     688725
L2C PREFETCH  ACCESS:   14593108  HIT:     100701  MISS:   14492407
L2C WRITEBACK ACCESS:     965809  HIT:     959093  MISS:       6716

L2C Best-offset prefetcher final stats
LLC TOTAL     ACCESS:   34357896  HIT:    7494068  MISS:   26863828
LLC LOAD      ACCESS:    8830210  HIT:    6720823  MISS:    2109387
LLC RFO       ACCESS:     688725  HIT:          0  MISS:     688725
LLC PREFETCH  ACCESS:   24142711  HIT:      78952  MISS:   24063759
LLC WRITEBACK ACCESS:     696250  HIT:     694293  MISS:       1957

CPU 1 cumulative IPC: 0.659049 instructions: 1036674206 cycles: 1572985629
L1D TOTAL     ACCESS:  267479008  HIT:  250693610  MISS:   16785398
L1D LOAD      ACCESS:  205127335  HIT:  192716351  MISS:   12410984
L1D RFO       ACCESS:   62351673  HIT:   57977259  MISS:    4374414
L1D PREFETCH  ACCESS:          0  HIT:          0  MISS:          0
L1D WRITEBACK ACCESS:          0  HIT:          0  MISS:          0
L1I TOTAL     ACCESS:  299919376  HIT:  299212213  MISS:     707163
L1I LOAD      ACCESS:  299919376  HIT:  299212213  MISS:     707163
L1I RFO       ACCESS:          0  HIT:          0  MISS:          0
L1I PREFETCH  ACCESS:          0  HIT:          0  MISS:          0
L1I WRITEBACK ACCESS:          0  HIT:          0  MISS:          0
L2C TOTAL     ACCESS:   29653687  HIT:   19332455  MISS:   10321232
L2C LOAD      ACCESS:   13117673  HIT:    9881547  MISS:    3236126
L2C RFO       ACCESS:    4351755  HIT:    2203035  MISS:    2148720
L2C PREFETCH  ACCESS:    5147548  HIT:     220173  MISS:    4927375
L2C WRITEBACK ACCESS:    7036711  HIT:    7027700  MISS:       9011

L2C Best-offset prefetcher final stats
LLC TOTAL     ACCESS:   15232780  HIT:    6233532  MISS:    8999248
LLC LOAD      ACCESS:    2189148  HIT:     812179  MISS:    1376969
LLC RFO       ACCESS:    2146191  HIT:     393773  MISS:    1752418
LLC PREFETCH  ACCESS:    6530357  HIT:     787899  MISS:    5742458
LLC WRITEBACK ACCESS:    4367084  HIT:    4239681  MISS:     127403

CPU 2 cumulative IPC: 0.635734 instructions: 1000000001 cycles: 1572985630
L1D TOTAL     ACCESS:  267482943  HIT:  213597295  MISS:   53885648
L1D LOAD      ACCESS:  103852789  HIT:   95681124  MISS:    8171665
L1D RFO       ACCESS:  163630154  HIT:  117916171  MISS:   45713983
L1D PREFETCH  ACCESS:          0  HIT:          0  MISS:          0
L1D WRITEBACK ACCESS:          0  HIT:          0  MISS:          0
L1I TOTAL     ACCESS:  235465536  HIT:  235465533  MISS:          3
L1I LOAD      ACCESS:  235465536  HIT:  235465533  MISS:          3
L1I RFO       ACCESS:          0  HIT:          0  MISS:          0
L1I PREFETCH  ACCESS:          0  HIT:          0  MISS:          0
L1I WRITEBACK ACCESS:          0  HIT:          0  MISS:          0
L2C TOTAL     ACCESS:  105724058  HIT:   65878777  MISS:   39845281
L2C LOAD      ACCESS:    8171668  HIT:    6123637  MISS:    2048031
L2C RFO       ACCESS:   45713777  HIT:   14046040  MISS:   31667737
L2C PREFETCH  ACCESS:    6124628  HIT:       1940  MISS:    6122688
L2C WRITEBACK ACCESS:   45713985  HIT:   45707160  MISS:       6825

L2C Best-offset prefetcher final stats
LLC TOTAL     ACCESS:   71494058  HIT:   38846870  MISS:   32647188
LLC LOAD      ACCESS:    1137765  HIT:       4879  MISS:    1132886
LLC RFO       ACCESS:   31649247  HIT:    7165041  MISS:   24484206
LLC PREFETCH  ACCESS:    7032979  HIT:       4560  MISS:    7028419
LLC WRITEBACK ACCESS:   31674067  HIT:   31672390  MISS:       1677

CPU 3 cumulative IPC: 1.00864 instructions: 1586582548 cycles: 1572985630
L1D TOTAL     ACCESS:  541589776  HIT:  484939509  MISS:   56650267
L1D LOAD      ACCESS:  283356132  HIT:  251713510  MISS:   31642622
L1D RFO       ACCESS:  258233644  HIT:  233225999  MISS:   25007645
L1D PREFETCH  ACCESS:          0  HIT:          0  MISS:          0
L1D WRITEBACK ACCESS:          0  HIT:          0  MISS:          0
L1I TOTAL     ACCESS:  384004678  HIT:  384004678  MISS:          0
L1I LOAD      ACCESS:  384004678  HIT:  384004678  MISS:          0
L1I RFO       ACCESS:          0  HIT:          0  MISS:          0
L1I PREFETCH  ACCESS:          0  HIT:          0  MISS:          0
L1I WRITEBACK ACCESS:          0  HIT:          0  MISS:          0
L2C TOTAL     ACCESS:   91913135  HIT:   67531974  MISS:   24381161
L2C LOAD      ACCESS:   31627344  HIT:   29582810  MISS:    2044534
L2C RFO       ACCESS:   22194089  HIT:   12747817  MISS:    9446272
L2C PREFETCH  ACCESS:   12901482  HIT:      21330  MISS:   12880152
L2C WRITEBACK ACCESS:   25190220  HIT:   25180017  MISS:      10203

L2C Best-offset prefetcher final stats
LLC TOTAL     ACCESS:   34800727  HIT:   13173629  MISS:   21627098
LLC LOAD      ACCESS:    1992255  HIT:    1176119  MISS:     816136
LLC RFO       ACCESS:    9446264  HIT:          2  MISS:    9446262
LLC PREFETCH  ACCESS:   13901587  HIT:    2539286  MISS:   11362301
LLC WRITEBACK ACCESS:    9460621  HIT:    9458222  MISS:       2399

Region of Interest Statistics

CPU 0 cumulative IPC: 0.905676 instructions: 1000000000 cycles: 1104147041
L1D TOTAL     ACCESS:  380172965  HIT:  359414293  MISS:   20758672
L1D LOAD      ACCESS:  324863217  HIT:  304731831  MISS:   20131386
L1D RFO       ACCESS:   55309748  HIT:   54682462  MISS:     627286
L1D PREFETCH  ACCESS:          0  HIT:          0  MISS:          0
L1D WRITEBACK ACCESS:          0  HIT:          0  MISS:          0
L1D PREFETCH  REQUESTED:          0  ISSUED:          0  USEFUL:          0  USELESS:          0
L1I TOTAL     ACCESS:  248487871  HIT:  248487871  MISS:          0
L1I LOAD      ACCESS:  248487871  HIT:  248487871  MISS:          0
L1I RFO       ACCESS:          0  HIT:          0  MISS:          0
L1I PREFETCH  ACCESS:          0  HIT:          0  MISS:          0
L1I WRITEBACK ACCESS:          0  HIT:          0  MISS:          0
L1I PREFETCH  REQUESTED:          0  ISSUED:          0  USEFUL:          0  USELESS:          0
L2C TOTAL     ACCESS:   31819548  HIT:   12765439  MISS:   19054109
L2C LOAD      ACCESS:   20125930  HIT:   11886434  MISS:    8239496
L2C RFO       ACCESS:     615682  HIT:     128439  MISS:     487243
L2C PREFETCH  ACCESS:   10394387  HIT:      71727  MISS:   10322660
L2C WRITEBACK ACCESS:     683549  HIT:     678839  MISS:       4710
L2C PREFETCH  REQUESTED:   28058357  ISSUED:   28058289  USEFUL:   18044660  USELESS:       1049
LLC TOTAL     ACCESS:   24267128  HIT:    5262133  MISS:   19004995
LLC LOAD      ACCESS:    6189059  HIT:    4715214  MISS:    1473845
LLC RFO       ACCESS:     487243  HIT:          0  MISS:     487243
LLC PREFETCH  ACCESS:   17098335  HIT:      55782  MISS:   17042553
LLC WRITEBACK ACCESS:     492491  HIT:     491137  MISS:       1354
LLC PREFETCH  REQUESTED:          0  ISSUED:          0  USEFUL:    8207963  USELESS:   47410618
Major fault: 0 Minor fault: 455239

CPU 1 cumulative IPC: 0.661426 instructions: 1000000002 cycles: 1511884923
L1D TOTAL     ACCESS:  258396012  HIT:  242183225  MISS:   16212787
L1D LOAD      ACCESS:  197355403  HIT:  185361501  MISS:   11993902
L1D RFO       ACCESS:   61040609  HIT:   56821724  MISS:    4218885
L1D PREFETCH  ACCESS:          0  HIT:          0  MISS:          0
L1D WRITEBACK ACCESS:          0  HIT:          0  MISS:          0
L1D PREFETCH  REQUESTED:          0  ISSUED:          0  USEFUL:          0  USELESS:          0
L1I TOTAL     ACCESS:  290960402  HIT:  290254070  MISS:     706332
L1I LOAD      ACCESS:  290960402  HIT:  290254070  MISS:     706332
L1I RFO       ACCESS:          0  HIT:          0  MISS:          0
L1I PREFETCH  ACCESS:          0  HIT:          0  MISS:          0
L1I WRITEBACK ACCESS:          0  HIT:          0  MISS:          0
L1I PREFETCH  REQUESTED:          0  ISSUED:          0  USEFUL:          0  USELESS:          0
L2C TOTAL     ACCESS:   28717414  HIT:   18833204  MISS:    9884210
L2C LOAD      ACCESS:   12699784  HIT:    9635280  MISS:    3064504
L2C RFO       ACCESS:    4196226  HIT:    2188447  MISS:    2007779
L2C PREFETCH  ACCESS:    5023058  HIT:     219378  MISS:    4803680
L2C WRITEBACK ACCESS:    6798346  HIT:    6790099  MISS:       8247
L2C PREFETCH  REQUESTED:    6869019  ISSUED:    6865474  USEFUL:    4607348  USELESS:     322479
LLC TOTAL     ACCESS:   14577492  HIT:    5946140  MISS:    8631352
LLC LOAD      ACCESS:    2017526  HIT:     780994  MISS:    1236532
LLC RFO       ACCESS:    2005250  HIT:     375864  MISS:    1629386
LLC PREFETCH  ACCESS:    6406662  HIT:     766938  MISS:    5639724
LLC WRITEBACK ACCESS:    4148054  HIT:    4022344  MISS:     125710
LLC PREFETCH  REQUESTED:          0  ISSUED:          0  USEFUL:    8207963  USELESS:   47410618
Major fault: 0 Minor fault: 19418

CPU 2 cumulative IPC: 0.635734 instructions: 1000000001 cycles: 1572985630
L1D TOTAL     ACCESS:  267482943  HIT:  213597295  MISS:   53885648
L1D LOAD      ACCESS:  103852789  HIT:   95681124  MISS:    8171665
L1D RFO       ACCESS:  163630154  HIT:  117916171  MISS:   45713983
L1D PREFETCH  ACCESS:          0  HIT:          0  MISS:          0
L1D WRITEBACK ACCESS:          0  HIT:          0  MISS:          0
L1D PREFETCH  REQUESTED:          0  ISSUED:          0  USEFUL:          0  USELESS:          0
L1I TOTAL     ACCESS:  235465536  HIT:  235465533  MISS:          3
L1I LOAD      ACCESS:  235465536  HIT:  235465533  MISS:          3
L1I RFO       ACCESS:          0  HIT:          0  MISS:          0
L1I PREFETCH  ACCESS:          0  HIT:          0  MISS:          0
L1I WRITEBACK ACCESS:          0  HIT:          0  MISS:          0
L1I PREFETCH  REQUESTED:          0  ISSUED:          0  USEFUL:          0  USELESS:          0
L2C TOTAL     ACCESS:  105724058  HIT:   65878777  MISS:   39845281
L2C LOAD      ACCESS:    8171668  HIT:    6123637  MISS:    2048031
L2C RFO       ACCESS:   45713777  HIT:   14046040  MISS:   31667737
L2C PREFETCH  ACCESS:    6124628  HIT:       1940  MISS:    6122688
L2C WRITEBACK ACCESS:   45713985  HIT:   45707160  MISS:       6825
L2C PREFETCH  REQUESTED:   10061397  ISSUED:   10061397  USEFUL:    8502456  USELESS:       7806
LLC TOTAL     ACCESS:   71494058  HIT:   38846870  MISS:   32647188
LLC LOAD      ACCESS:    1137765  HIT:       4879  MISS:    1132886
LLC RFO       ACCESS:   31649247  HIT:    7165041  MISS:   24484206
LLC PREFETCH  ACCESS:    7032979  HIT:       4560  MISS:    7028419
LLC WRITEBACK ACCESS:   31674067  HIT:   31672390  MISS:       1677
LLC PREFETCH  REQUESTED:          0  ISSUED:          0  USEFUL:    8207963  USELESS:   47410618
Major fault: 0 Minor fault: 341912

CPU 3 cumulative IPC: 1.00737 instructions: 1000000000 cycles: 992682885
L1D TOTAL     ACCESS:  341587415  HIT:  305643030  MISS:   35944385
L1D LOAD      ACCESS:  178630478  HIT:  158584668  MISS:   20045810
L1D RFO       ACCESS:  162956937  HIT:  147058362  MISS:   15898575
L1D PREFETCH  ACCESS:          0  HIT:          0  MISS:          0
L1D WRITEBACK ACCESS:          0  HIT:          0  MISS:          0
L1D PREFETCH  REQUESTED:          0  ISSUED:          0  USEFUL:          0  USELESS:          0
L1I TOTAL     ACCESS:  242068592  HIT:  242068592  MISS:          0
L1I LOAD      ACCESS:  242068592  HIT:  242068592  MISS:          0
L1I RFO       ACCESS:          0  HIT:          0  MISS:          0
L1I PREFETCH  ACCESS:          0  HIT:          0  MISS:          0
L1I WRITEBACK ACCESS:          0  HIT:          0  MISS:          0
L1I PREFETCH  REQUESTED:          0  ISSUED:          0  USEFUL:          0  USELESS:          0
L2C TOTAL     ACCESS:   58309059  HIT:   42941628  MISS:   15367431
L2C LOAD      ACCESS:   20036031  HIT:   18765757  MISS:    1270274
L2C RFO       ACCESS:   14109177  HIT:    8155335  MISS:    5953842
L2C PREFETCH  ACCESS:    8149434  HIT:      12543  MISS:    8136891
L2C WRITEBACK ACCESS:   16014417  HIT:   16007993  MISS:       6424
L2C PREFETCH  REQUESTED:   15804567  ISSUED:   15804532  USEFUL:   14714280  USELESS:      43012
LLC TOTAL     ACCESS:   21886943  HIT:    8256296  MISS:   13630647
LLC LOAD      ACCESS:    1244980  HIT:     700473  MISS:     544507
LLC RFO       ACCESS:    5953837  HIT:          1  MISS:    5953836
LLC PREFETCH  ACCESS:    8725156  HIT:    1594337  MISS:    7130819
LLC WRITEBACK ACCESS:    5962970  HIT:    5961485  MISS:       1485
LLC PREFETCH  REQUESTED:          0  ISSUED:          0  USEFUL:    8207963  USELESS:   47410618
Major fault: 0 Minor fault: 335161

L2C Best-offset prefetcher final stats

L2C Best-offset prefetcher final stats

L2C Best-offset prefetcher final stats

L2C Best-offset prefetcher final stats

DRAM Statistics
 CHANNEL 0
 RQ ROW_BUFFER_HIT:   20351719  ROW_BUFFER_MISS:   24649053
 DBUS_CONGESTED:   97194402
 WQ ROW_BUFFER_HIT:    2340873  ROW_BUFFER_MISS:   16790392  FULL:          0

 CHANNEL 1
 RQ ROW_BUFFER_HIT:   20330024  ROW_BUFFER_MISS:   24672562
 DBUS_CONGESTED:   97194402
 WQ ROW_BUFFER_HIT:    2347949  ROW_BUFFER_MISS:   16781665  FULL:          0

 AVG_CONGESTED_CYCLE: 13
