
*** ChampSim Multicore Out-of-Order Simulator ***

Warmup Instructions: 200000000
Simulation Instructions: 1000000000
Number of CPUs: 4
LLC sets: 8192
LLC ways: 16
Off-chip DRAM Size: 8192 MB Channels: 2 Width: 64-bit Data Rate: 1600 MT/s

CPU 0 runs /scratch/user/djimenez/champsim-traces/speccpu2017/xz/602.gcc_s/602.gcc_s-1850B.champsimtrace.xz
CPU 1 runs /scratch/user/djimenez/champsim-traces/speccpu2017/xz/603.bwaves_s/603.bwaves_s-3699B.champsimtrace.xz
CPU 2 runs /scratch/user/djimenez/champsim-traces/speccpu2017/xz/657.xz_s/657.xz_s-2302B.champsimtrace.xz
CPU 3 runs /scratch/user/djimenez/champsim-traces/speccpu2017/xz/607.cactuBSSN_s/607.cactuBSSN_s-3477B.champsimtrace.xz
L2C Best-offset prefetcher
L2C Best-offset prefetcher
L2C Best-offset prefetcher
L2C Best-offset prefetcher
Heartbeat CPU 1 instructions: 10000002 cycles: 3993530 heartbeat IPC: 2.50405 cumulative IPC: 2.50405 (Simulation time: 0 hr 1 min 13 sec) 
Heartbeat CPU 2 instructions: 10000002 cycles: 4453056 heartbeat IPC: 2.24565 cumulative IPC: 2.24565 (Simulation time: 0 hr 1 min 21 sec) 
Heartbeat CPU 0 instructions: 10000001 cycles: 5584103 heartbeat IPC: 1.7908 cumulative IPC: 1.7908 (Simulation time: 0 hr 1 min 42 sec) 
Heartbeat CPU 3 instructions: 10000003 cycles: 5769554 heartbeat IPC: 1.73324 cumulative IPC: 1.73324 (Simulation time: 0 hr 1 min 45 sec) 
Heartbeat CPU 1 instructions: 20000000 cycles: 8237932 heartbeat IPC: 2.35604 cumulative IPC: 2.42779 (Simulation time: 0 hr 2 min 33 sec) 
Heartbeat CPU 2 instructions: 20000000 cycles: 8874155 heartbeat IPC: 2.26188 cumulative IPC: 2.25374 (Simulation time: 0 hr 2 min 54 sec) 
Heartbeat CPU 0 instructions: 20000000 cycles: 11170211 heartbeat IPC: 1.79015 cumulative IPC: 1.79048 (Simulation time: 0 hr 3 min 44 sec) 
Heartbeat CPU 3 instructions: 20000000 cycles: 11537966 heartbeat IPC: 1.73358 cumulative IPC: 1.73341 (Simulation time: 0 hr 3 min 51 sec) 
Heartbeat CPU 1 instructions: 30000002 cycles: 12542678 heartbeat IPC: 2.32302 cumulative IPC: 2.39183 (Simulation time: 0 hr 4 min 11 sec) 
Heartbeat CPU 2 instructions: 30000003 cycles: 13387951 heartbeat IPC: 2.21543 cumulative IPC: 2.24082 (Simulation time: 0 hr 4 min 26 sec) 
Heartbeat CPU 1 instructions: 40000000 cycles: 16535191 heartbeat IPC: 2.50469 cumulative IPC: 2.41908 (Simulation time: 0 hr 5 min 23 sec) 
Heartbeat CPU 0 instructions: 30000003 cycles: 16755075 heartbeat IPC: 1.79055 cumulative IPC: 1.7905 (Simulation time: 0 hr 5 min 27 sec) 
Heartbeat CPU 3 instructions: 30000000 cycles: 17307508 heartbeat IPC: 1.73324 cumulative IPC: 1.73335 (Simulation time: 0 hr 5 min 37 sec) 
Heartbeat CPU 2 instructions: 40000000 cycles: 17870635 heartbeat IPC: 2.23081 cumulative IPC: 2.23831 (Simulation time: 0 hr 5 min 48 sec) 
Heartbeat CPU 1 instructions: 50000002 cycles: 20525079 heartbeat IPC: 2.50634 cumulative IPC: 2.43604 (Simulation time: 0 hr 6 min 36 sec) 
Heartbeat CPU 0 instructions: 40000000 cycles: 22340973 heartbeat IPC: 1.79022 cumulative IPC: 1.79043 (Simulation time: 0 hr 7 min 9 sec) 
Heartbeat CPU 2 instructions: 50000003 cycles: 22390846 heartbeat IPC: 2.21229 cumulative IPC: 2.23306 (Simulation time: 0 hr 7 min 10 sec) 
Heartbeat CPU 3 instructions: 40000000 cycles: 23077726 heartbeat IPC: 1.73304 cumulative IPC: 1.73327 (Simulation time: 0 hr 7 min 22 sec) 
Heartbeat CPU 1 instructions: 60000000 cycles: 24495677 heartbeat IPC: 2.51851 cumulative IPC: 2.44941 (Simulation time: 0 hr 7 min 48 sec) 
Heartbeat CPU 2 instructions: 60000000 cycles: 26841360 heartbeat IPC: 2.24693 cumulative IPC: 2.23536 (Simulation time: 0 hr 8 min 31 sec) 
Heartbeat CPU 0 instructions: 50000003 cycles: 27927867 heartbeat IPC: 1.7899 cumulative IPC: 1.79033 (Simulation time: 0 hr 8 min 51 sec) 
Heartbeat CPU 1 instructions: 70000000 cycles: 28465355 heartbeat IPC: 2.5191 cumulative IPC: 2.45913 (Simulation time: 0 hr 9 min 0 sec) 
Heartbeat CPU 3 instructions: 50000001 cycles: 28847898 heartbeat IPC: 1.73305 cumulative IPC: 1.73323 (Simulation time: 0 hr 9 min 7 sec) 
Heartbeat CPU 2 instructions: 70000002 cycles: 31249568 heartbeat IPC: 2.2685 cumulative IPC: 2.24003 (Simulation time: 0 hr 9 min 51 sec) 
Heartbeat CPU 1 instructions: 80000000 cycles: 32426401 heartbeat IPC: 2.52459 cumulative IPC: 2.46713 (Simulation time: 0 hr 10 min 12 sec) 
Heartbeat CPU 0 instructions: 60000000 cycles: 33514424 heartbeat IPC: 1.79001 cumulative IPC: 1.79027 (Simulation time: 0 hr 10 min 32 sec) 
Heartbeat CPU 3 instructions: 60000000 cycles: 34619180 heartbeat IPC: 1.73272 cumulative IPC: 1.73314 (Simulation time: 0 hr 10 min 52 sec) 
Heartbeat CPU 2 instructions: 80000000 cycles: 35665982 heartbeat IPC: 2.26428 cumulative IPC: 2.24303 (Simulation time: 0 hr 11 min 11 sec) 
Heartbeat CPU 1 instructions: 90000001 cycles: 36400231 heartbeat IPC: 2.51646 cumulative IPC: 2.47251 (Simulation time: 0 hr 11 min 25 sec) 
Heartbeat CPU 0 instructions: 70000001 cycles: 39100461 heartbeat IPC: 1.79018 cumulative IPC: 1.79026 (Simulation time: 0 hr 12 min 14 sec) 
Heartbeat CPU 2 instructions: 90000000 cycles: 40109122 heartbeat IPC: 2.25066 cumulative IPC: 2.24388 (Simulation time: 0 hr 12 min 32 sec) 
Heartbeat CPU 1 instructions: 100000000 cycles: 40372571 heartbeat IPC: 2.51741 cumulative IPC: 2.47693 (Simulation time: 0 hr 12 min 37 sec) 
Heartbeat CPU 3 instructions: 70000001 cycles: 40390824 heartbeat IPC: 1.73261 cumulative IPC: 1.73307 (Simulation time: 0 hr 12 min 38 sec) 
Heartbeat CPU 1 instructions: 110000003 cycles: 44359829 heartbeat IPC: 2.50799 cumulative IPC: 2.47972 (Simulation time: 0 hr 13 min 51 sec) 
Heartbeat CPU 2 instructions: 100000000 cycles: 44507533 heartbeat IPC: 2.27355 cumulative IPC: 2.24681 (Simulation time: 0 hr 13 min 54 sec) 
Heartbeat CPU 0 instructions: 80000000 cycles: 44687803 heartbeat IPC: 1.78976 cumulative IPC: 1.7902 (Simulation time: 0 hr 13 min 57 sec) 
Heartbeat CPU 3 instructions: 80000000 cycles: 46161990 heartbeat IPC: 1.73275 cumulative IPC: 1.73303 (Simulation time: 0 hr 14 min 25 sec) 
Heartbeat CPU 1 instructions: 120000000 cycles: 48338717 heartbeat IPC: 2.51326 cumulative IPC: 2.48248 (Simulation time: 0 hr 15 min 7 sec) 
Heartbeat CPU 2 instructions: 110000003 cycles: 48855574 heartbeat IPC: 2.29989 cumulative IPC: 2.25153 (Simulation time: 0 hr 15 min 17 sec) 
Heartbeat CPU 0 instructions: 90000000 cycles: 50274680 heartbeat IPC: 1.78991 cumulative IPC: 1.79017 (Simulation time: 0 hr 15 min 42 sec) 
Heartbeat CPU 3 instructions: 90000001 cycles: 51933581 heartbeat IPC: 1.73262 cumulative IPC: 1.73298 (Simulation time: 0 hr 16 min 13 sec) 
Heartbeat CPU 1 instructions: 130000001 cycles: 52349853 heartbeat IPC: 2.49306 cumulative IPC: 2.48329 (Simulation time: 0 hr 16 min 21 sec) 
Heartbeat CPU 2 instructions: 120000000 cycles: 53312893 heartbeat IPC: 2.2435 cumulative IPC: 2.25086 (Simulation time: 0 hr 16 min 38 sec) 
Heartbeat CPU 0 instructions: 100000000 cycles: 55860642 heartbeat IPC: 1.7902 cumulative IPC: 1.79017 (Simulation time: 0 hr 17 min 25 sec) 
Heartbeat CPU 1 instructions: 140000000 cycles: 56363194 heartbeat IPC: 2.49169 cumulative IPC: 2.48389 (Simulation time: 0 hr 17 min 35 sec) 
Heartbeat CPU 2 instructions: 130000000 cycles: 57524885 heartbeat IPC: 2.37417 cumulative IPC: 2.25989 (Simulation time: 0 hr 17 min 56 sec) 
Heartbeat CPU 3 instructions: 100000000 cycles: 57705193 heartbeat IPC: 1.73262 cumulative IPC: 1.73295 (Simulation time: 0 hr 17 min 59 sec) 
Heartbeat CPU 1 instructions: 150000000 cycles: 60358314 heartbeat IPC: 2.50305 cumulative IPC: 2.48516 (Simulation time: 0 hr 18 min 48 sec) 
Heartbeat CPU 0 instructions: 110000003 cycles: 61444471 heartbeat IPC: 1.79089 cumulative IPC: 1.79023 (Simulation time: 0 hr 19 min 8 sec) 
Heartbeat CPU 2 instructions: 140000000 cycles: 61692901 heartbeat IPC: 2.39922 cumulative IPC: 2.2693 (Simulation time: 0 hr 19 min 13 sec) 
Heartbeat CPU 3 instructions: 110000003 cycles: 63476664 heartbeat IPC: 1.73266 cumulative IPC: 1.73292 (Simulation time: 0 hr 19 min 46 sec) 
Heartbeat CPU 1 instructions: 160000000 cycles: 64348154 heartbeat IPC: 2.50637 cumulative IPC: 2.48647 (Simulation time: 0 hr 20 min 2 sec) 
Heartbeat CPU 2 instructions: 150000000 cycles: 65916051 heartbeat IPC: 2.3679 cumulative IPC: 2.27562 (Simulation time: 0 hr 20 min 30 sec) 
Heartbeat CPU 0 instructions: 120000000 cycles: 67022468 heartbeat IPC: 1.79276 cumulative IPC: 1.79044 (Simulation time: 0 hr 20 min 49 sec) 
Heartbeat CPU 1 instructions: 170000001 cycles: 68335640 heartbeat IPC: 2.50785 cumulative IPC: 2.48772 (Simulation time: 0 hr 21 min 11 sec) 
Heartbeat CPU 3 instructions: 120000000 cycles: 69248581 heartbeat IPC: 1.73253 cumulative IPC: 1.73289 (Simulation time: 0 hr 21 min 27 sec) 
Heartbeat CPU 2 instructions: 160000000 cycles: 70274970 heartbeat IPC: 2.29415 cumulative IPC: 2.27677 (Simulation time: 0 hr 21 min 45 sec) 
Heartbeat CPU 1 instructions: 180000000 cycles: 72332992 heartbeat IPC: 2.50166 cumulative IPC: 2.48849 (Simulation time: 0 hr 22 min 20 sec) 
Heartbeat CPU 0 instructions: 130000002 cycles: 72599871 heartbeat IPC: 1.79295 cumulative IPC: 1.79064 (Simulation time: 0 hr 22 min 25 sec) 
Heartbeat CPU 2 instructions: 170000003 cycles: 74826466 heartbeat IPC: 2.19708 cumulative IPC: 2.27192 (Simulation time: 0 hr 23 min 3 sec) 
Heartbeat CPU 3 instructions: 130000003 cycles: 75015778 heartbeat IPC: 1.73395 cumulative IPC: 1.73297 (Simulation time: 0 hr 23 min 7 sec) 
Heartbeat CPU 1 instructions: 190000000 cycles: 76326453 heartbeat IPC: 2.50409 cumulative IPC: 2.48931 (Simulation time: 0 hr 23 min 30 sec) 
Heartbeat CPU 0 instructions: 140000000 cycles: 78177236 heartbeat IPC: 1.79296 cumulative IPC: 1.7908 (Simulation time: 0 hr 24 min 1 sec) 
Heartbeat CPU 2 instructions: 180000000 cycles: 79360937 heartbeat IPC: 2.20533 cumulative IPC: 2.26812 (Simulation time: 0 hr 24 min 22 sec) 
Heartbeat CPU 1 instructions: 200000000 cycles: 80306826 heartbeat IPC: 2.51233 cumulative IPC: 2.49045 (Simulation time: 0 hr 24 min 38 sec) 
Heartbeat CPU 3 instructions: 140000000 cycles: 80785381 heartbeat IPC: 1.73322 cumulative IPC: 1.73299 (Simulation time: 0 hr 24 min 46 sec) 
Heartbeat CPU 0 instructions: 150000000 cycles: 83757209 heartbeat IPC: 1.79212 cumulative IPC: 1.79089 (Simulation time: 0 hr 25 min 37 sec) 
Heartbeat CPU 2 instructions: 190000001 cycles: 83902910 heartbeat IPC: 2.20169 cumulative IPC: 2.26452 (Simulation time: 0 hr 25 min 40 sec) 
Heartbeat CPU 1 instructions: 210000003 cycles: 84307888 heartbeat IPC: 2.49934 cumulative IPC: 0.118613 (Simulation time: 0 hr 25 min 47 sec) 
Heartbeat CPU 3 instructions: 150000001 cycles: 86556075 heartbeat IPC: 1.73289 cumulative IPC: 1.73298 (Simulation time: 0 hr 26 min 26 sec) 
Heartbeat CPU 1 instructions: 220000000 cycles: 88321155 heartbeat IPC: 2.49173 cumulative IPC: 0.226446 (Simulation time: 0 hr 26 min 56 sec) 
Heartbeat CPU 2 instructions: 200000000 cycles: 88443454 heartbeat IPC: 2.20238 cumulative IPC: 2.26133 (Simulation time: 0 hr 26 min 58 sec) 
Heartbeat CPU 0 instructions: 160000000 cycles: 89335632 heartbeat IPC: 1.79262 cumulative IPC: 1.791 (Simulation time: 0 hr 27 min 14 sec) 
Heartbeat CPU 1 instructions: 230000000 cycles: 92312906 heartbeat IPC: 2.50517 cumulative IPC: 0.324982 (Simulation time: 0 hr 28 min 5 sec) 
Heartbeat CPU 3 instructions: 160000000 cycles: 92325554 heartbeat IPC: 1.73326 cumulative IPC: 1.733 (Simulation time: 0 hr 28 min 5 sec) 
Heartbeat CPU 2 instructions: 210000000 cycles: 92974289 heartbeat IPC: 2.2071 cumulative IPC: 0.107557 (Simulation time: 0 hr 28 min 16 sec) 
Heartbeat CPU 0 instructions: 170000002 cycles: 94913561 heartbeat IPC: 1.79278 cumulative IPC: 1.7911 (Simulation time: 0 hr 28 min 50 sec) 
Heartbeat CPU 1 instructions: 240000000 cycles: 96313936 heartbeat IPC: 2.49936 cumulative IPC: 0.415309 (Simulation time: 0 hr 29 min 14 sec) 
Heartbeat CPU 2 instructions: 220000000 cycles: 97522763 heartbeat IPC: 2.19854 cumulative IPC: 0.20508 (Simulation time: 0 hr 29 min 35 sec) 
Heartbeat CPU 3 instructions: 170000001 cycles: 98095429 heartbeat IPC: 1.73314 cumulative IPC: 1.73301 (Simulation time: 0 hr 29 min 46 sec) 
Heartbeat CPU 1 instructions: 250000003 cycles: 100302279 heartbeat IPC: 2.50731 cumulative IPC: 0.498493 (Simulation time: 0 hr 30 min 26 sec) 
Heartbeat CPU 0 instructions: 180000000 cycles: 100492793 heartbeat IPC: 1.79236 cumulative IPC: 1.79117 (Simulation time: 0 hr 30 min 30 sec) 
Heartbeat CPU 2 instructions: 230000001 cycles: 102079597 heartbeat IPC: 2.19451 cumulative IPC: 0.293888 (Simulation time: 0 hr 30 min 59 sec) 
Heartbeat CPU 3 instructions: 180000000 cycles: 103865461 heartbeat IPC: 1.73309 cumulative IPC: 1.73301 (Simulation time: 0 hr 31 min 32 sec) 
Heartbeat CPU 1 instructions: 260000000 cycles: 104291346 heartbeat IPC: 2.50685 cumulative IPC: 0.575311 (Simulation time: 0 hr 31 min 40 sec) 
Heartbeat CPU 0 instructions: 190000002 cycles: 106071160 heartbeat IPC: 1.79264 cumulative IPC: 1.79125 (Simulation time: 0 hr 32 min 13 sec) 
Heartbeat CPU 2 instructions: 240000000 cycles: 106642618 heartbeat IPC: 2.19153 cumulative IPC: 0.375085 (Simulation time: 0 hr 32 min 24 sec) 
Heartbeat CPU 1 instructions: 270000001 cycles: 108282559 heartbeat IPC: 2.5055 cumulative IPC: 0.646457 (Simulation time: 0 hr 32 min 54 sec) 
Heartbeat CPU 3 instructions: 190000000 cycles: 109635283 heartbeat IPC: 1.73316 cumulative IPC: 1.73302 (Simulation time: 0 hr 33 min 19 sec) 
Heartbeat CPU 2 instructions: 250000002 cycles: 111187069 heartbeat IPC: 2.20049 cumulative IPC: 0.449693 (Simulation time: 0 hr 33 min 48 sec) 
Heartbeat CPU 0 instructions: 200000000 cycles: 111649424 heartbeat IPC: 1.79267 cumulative IPC: 1.79132 (Simulation time: 0 hr 33 min 56 sec) 
Heartbeat CPU 1 instructions: 280000000 cycles: 112264855 heartbeat IPC: 2.51111 cumulative IPC: 0.712601 (Simulation time: 0 hr 34 min 8 sec) 
Heartbeat CPU 3 instructions: 200000000 cycles: 115405226 heartbeat IPC: 1.73312 cumulative IPC: 1.73302 (Simulation time: 0 hr 35 min 6 sec) 

Warmup complete CPU 0 instructions: 206732662 cycles: 115405227 (Simulation time: 0 hr 35 min 6 sec) 
Warmup complete CPU 1 instructions: 287856640 cycles: 115405227 (Simulation time: 0 hr 35 min 6 sec) 
Warmup complete CPU 2 instructions: 259280640 cycles: 115405227 (Simulation time: 0 hr 35 min 6 sec) 
Warmup complete CPU 3 instructions: 200000001 cycles: 115405227 (Simulation time: 0 hr 35 min 6 sec) 

Heartbeat CPU 2 instructions: 260000000 cycles: 116235777 heartbeat IPC: 1.9807 cumulative IPC: 0.866125 (Simulation time: 0 hr 35 min 15 sec) 
Heartbeat CPU 1 instructions: 290000001 cycles: 117296702 heartbeat IPC: 1.98734 cumulative IPC: 1.13317 (Simulation time: 0 hr 35 min 26 sec) 
Heartbeat CPU 0 instructions: 210000001 cycles: 123954950 heartbeat IPC: 0.812643 cumulative IPC: 0.382157 (Simulation time: 0 hr 36 min 37 sec) 
Heartbeat CPU 3 instructions: 210000000 cycles: 124589556 heartbeat IPC: 1.08881 cumulative IPC: 1.08881 (Simulation time: 0 hr 36 min 43 sec) 
Heartbeat CPU 1 instructions: 300000000 cycles: 126369035 heartbeat IPC: 1.10225 cumulative IPC: 1.10759 (Simulation time: 0 hr 37 min 2 sec) 
Heartbeat CPU 2 instructions: 270000003 cycles: 128663910 heartbeat IPC: 0.804626 cumulative IPC: 0.808479 (Simulation time: 0 hr 37 min 27 sec) 
Heartbeat CPU 3 instructions: 220000000 cycles: 133795484 heartbeat IPC: 1.08626 cumulative IPC: 1.08753 (Simulation time: 0 hr 38 min 22 sec) 
Heartbeat CPU 1 instructions: 310000000 cycles: 135304012 heartbeat IPC: 1.1192 cumulative IPC: 1.1128 (Simulation time: 0 hr 38 min 38 sec) 
Heartbeat CPU 2 instructions: 280000000 cycles: 141030797 heartbeat IPC: 0.808611 cumulative IPC: 0.808542 (Simulation time: 0 hr 39 min 39 sec) 
Heartbeat CPU 3 instructions: 230000003 cycles: 142988420 heartbeat IPC: 1.08779 cumulative IPC: 1.08762 (Simulation time: 0 hr 40 min 0 sec) 
Heartbeat CPU 1 instructions: 320000000 cycles: 144383278 heartbeat IPC: 1.10141 cumulative IPC: 1.10923 (Simulation time: 0 hr 40 min 14 sec) 
Heartbeat CPU 0 instructions: 220000000 cycles: 150168285 heartbeat IPC: 0.381485 cumulative IPC: 0.38165 (Simulation time: 0 hr 41 min 16 sec) 
Heartbeat CPU 3 instructions: 240000000 cycles: 152194717 heartbeat IPC: 1.08621 cumulative IPC: 1.08727 (Simulation time: 0 hr 41 min 37 sec) 
Heartbeat CPU 2 instructions: 290000000 cycles: 153450570 heartbeat IPC: 0.805168 cumulative IPC: 0.807441 (Simulation time: 0 hr 41 min 51 sec) 
Heartbeat CPU 1 instructions: 330000003 cycles: 153512960 heartbeat IPC: 1.09533 cumulative IPC: 1.1059 (Simulation time: 0 hr 41 min 51 sec) 
Heartbeat CPU 3 instructions: 250000002 cycles: 161381506 heartbeat IPC: 1.08852 cumulative IPC: 1.08752 (Simulation time: 0 hr 43 min 12 sec) 
Heartbeat CPU 1 instructions: 340000000 cycles: 162647892 heartbeat IPC: 1.0947 cumulative IPC: 1.10373 (Simulation time: 0 hr 43 min 25 sec) 
Heartbeat CPU 2 instructions: 300000000 cycles: 166882296 heartbeat IPC: 0.744506 cumulative IPC: 0.791019 (Simulation time: 0 hr 44 min 7 sec) 
Heartbeat CPU 3 instructions: 260000000 cycles: 170597793 heartbeat IPC: 1.08504 cumulative IPC: 1.0871 (Simulation time: 0 hr 44 min 44 sec) 
Heartbeat CPU 1 instructions: 350000001 cycles: 171725900 heartbeat IPC: 1.10156 cumulative IPC: 1.10338 (Simulation time: 0 hr 44 min 55 sec) 
Heartbeat CPU 0 instructions: 230000002 cycles: 176580192 heartbeat IPC: 0.378617 cumulative IPC: 0.380341 (Simulation time: 0 hr 45 min 43 sec) 
Heartbeat CPU 3 instructions: 270000000 cycles: 179801293 heartbeat IPC: 1.08654 cumulative IPC: 1.08702 (Simulation time: 0 hr 46 min 15 sec) 
Heartbeat CPU 2 instructions: 310000001 cycles: 180009497 heartbeat IPC: 0.761777 cumulative IPC: 0.785078 (Simulation time: 0 hr 46 min 17 sec) 
Heartbeat CPU 1 instructions: 360000000 cycles: 180917623 heartbeat IPC: 1.08794 cumulative IPC: 1.10122 (Simulation time: 0 hr 46 min 26 sec) 
Heartbeat CPU 3 instructions: 280000000 cycles: 188995547 heartbeat IPC: 1.08764 cumulative IPC: 1.0871 (Simulation time: 0 hr 47 min 46 sec) 
Heartbeat CPU 1 instructions: 370000002 cycles: 189887131 heartbeat IPC: 1.11489 cumulative IPC: 1.10286 (Simulation time: 0 hr 47 min 55 sec) 
Heartbeat CPU 2 instructions: 320000000 cycles: 191664136 heartbeat IPC: 0.858027 cumulative IPC: 0.796226 (Simulation time: 0 hr 48 min 13 sec) 
Heartbeat CPU 3 instructions: 290000003 cycles: 198186230 heartbeat IPC: 1.08806 cumulative IPC: 1.08721 (Simulation time: 0 hr 49 min 19 sec) 
Heartbeat CPU 1 instructions: 380000000 cycles: 199062553 heartbeat IPC: 1.08987 cumulative IPC: 1.10144 (Simulation time: 0 hr 49 min 28 sec) 
Heartbeat CPU 2 instructions: 330000001 cycles: 202467797 heartbeat IPC: 0.925612 cumulative IPC: 0.812282 (Simulation time: 0 hr 50 min 2 sec) 
Heartbeat CPU 0 instructions: 240000000 cycles: 202721423 heartbeat IPC: 0.382537 cumulative IPC: 0.380998 (Simulation time: 0 hr 50 min 5 sec) 
Heartbeat CPU 3 instructions: 300000000 cycles: 207420911 heartbeat IPC: 1.08287 cumulative IPC: 1.08677 (Simulation time: 0 hr 50 min 52 sec) 
Heartbeat CPU 1 instructions: 390000002 cycles: 208105639 heartbeat IPC: 1.10582 cumulative IPC: 1.10187 (Simulation time: 0 hr 50 min 59 sec) 
Heartbeat CPU 2 instructions: 340000000 cycles: 215044213 heartbeat IPC: 0.795139 cumulative IPC: 0.810118 (Simulation time: 0 hr 52 min 9 sec) 
Heartbeat CPU 3 instructions: 310000003 cycles: 216682411 heartbeat IPC: 1.07974 cumulative IPC: 1.08613 (Simulation time: 0 hr 52 min 27 sec) 
Heartbeat CPU 1 instructions: 400000000 cycles: 217310868 heartbeat IPC: 1.08634 cumulative IPC: 1.10046 (Simulation time: 0 hr 52 min 34 sec) 
Heartbeat CPU 3 instructions: 320000000 cycles: 225889110 heartbeat IPC: 1.08617 cumulative IPC: 1.08613 (Simulation time: 0 hr 54 min 4 sec) 
Heartbeat CPU 1 instructions: 410000002 cycles: 226452325 heartbeat IPC: 1.09392 cumulative IPC: 1.09992 (Simulation time: 0 hr 54 min 10 sec) 
Heartbeat CPU 2 instructions: 350000000 cycles: 226600560 heartbeat IPC: 0.865325 cumulative IPC: 0.815856 (Simulation time: 0 hr 54 min 12 sec) 
Heartbeat CPU 0 instructions: 250000003 cycles: 229664843 heartbeat IPC: 0.371148 cumulative IPC: 0.378676 (Simulation time: 0 hr 54 min 47 sec) 
Heartbeat CPU 3 instructions: 330000002 cycles: 235073236 heartbeat IPC: 1.08884 cumulative IPC: 1.08634 (Simulation time: 0 hr 55 min 46 sec) 
Heartbeat CPU 1 instructions: 420000000 cycles: 235539751 heartbeat IPC: 1.10042 cumulative IPC: 1.09996 (Simulation time: 0 hr 55 min 51 sec) 
Heartbeat CPU 2 instructions: 360000000 cycles: 239416400 heartbeat IPC: 0.780284 cumulative IPC: 0.81218 (Simulation time: 0 hr 56 min 31 sec) 
Heartbeat CPU 3 instructions: 340000000 cycles: 244280741 heartbeat IPC: 1.08607 cumulative IPC: 1.08632 (Simulation time: 0 hr 57 min 22 sec) 
Heartbeat CPU 1 instructions: 430000001 cycles: 244660784 heartbeat IPC: 1.09637 cumulative IPC: 1.09971 (Simulation time: 0 hr 57 min 26 sec) 
Heartbeat CPU 2 instructions: 370000000 cycles: 250274621 heartbeat IPC: 0.920961 cumulative IPC: 0.820938 (Simulation time: 0 hr 58 min 26 sec) 
Heartbeat CPU 3 instructions: 350000003 cycles: 253493579 heartbeat IPC: 1.08544 cumulative IPC: 1.08626 (Simulation time: 0 hr 59 min 0 sec) 
Heartbeat CPU 1 instructions: 440000000 cycles: 253886904 heartbeat IPC: 1.08388 cumulative IPC: 1.09865 (Simulation time: 0 hr 59 min 5 sec) 
Heartbeat CPU 0 instructions: 260000000 cycles: 255985111 heartbeat IPC: 0.379935 cumulative IPC: 0.378912 (Simulation time: 0 hr 59 min 27 sec) 
Heartbeat CPU 2 instructions: 380000000 cycles: 261085705 heartbeat IPC: 0.924977 cumulative IPC: 0.828658 (Simulation time: 1 hr 0 min 21 sec) 
Heartbeat CPU 3 instructions: 360000000 cycles: 262727093 heartbeat IPC: 1.08301 cumulative IPC: 1.08606 (Simulation time: 1 hr 0 min 39 sec) 
Heartbeat CPU 1 instructions: 450000003 cycles: 262867950 heartbeat IPC: 1.11346 cumulative IPC: 1.09955 (Simulation time: 1 hr 0 min 40 sec) 
Heartbeat CPU 1 instructions: 460000000 cycles: 271855141 heartbeat IPC: 1.11269 cumulative IPC: 1.10031 (Simulation time: 1 hr 2 min 16 sec) 
Heartbeat CPU 3 instructions: 370000000 cycles: 271912778 heartbeat IPC: 1.08865 cumulative IPC: 1.08621 (Simulation time: 1 hr 2 min 16 sec) 
Heartbeat CPU 2 instructions: 390000002 cycles: 271952671 heartbeat IPC: 0.92022 cumulative IPC: 0.835014 (Simulation time: 1 hr 2 min 17 sec) 
Heartbeat CPU 1 instructions: 470000001 cycles: 280658411 heartbeat IPC: 1.13594 cumulative IPC: 1.10221 (Simulation time: 1 hr 3 min 50 sec) 
Heartbeat CPU 3 instructions: 380000000 cycles: 281082080 heartbeat IPC: 1.0906 cumulative IPC: 1.08645 (Simulation time: 1 hr 3 min 54 sec) 
Heartbeat CPU 0 instructions: 270000001 cycles: 282144030 heartbeat IPC: 0.382279 cumulative IPC: 0.37944 (Simulation time: 1 hr 4 min 6 sec) 
Heartbeat CPU 2 instructions: 400000000 cycles: 282552369 heartbeat IPC: 0.943423 cumulative IPC: 0.841889 (Simulation time: 1 hr 4 min 10 sec) 
Heartbeat CPU 1 instructions: 480000000 cycles: 289558036 heartbeat IPC: 1.12364 cumulative IPC: 1.1033 (Simulation time: 1 hr 5 min 23 sec) 
Heartbeat CPU 3 instructions: 390000000 cycles: 290255192 heartbeat IPC: 1.09014 cumulative IPC: 1.08665 (Simulation time: 1 hr 5 min 30 sec) 
Heartbeat CPU 2 instructions: 410000002 cycles: 295161855 heartbeat IPC: 0.793054 cumulative IPC: 0.838463 (Simulation time: 1 hr 6 min 21 sec) 
Heartbeat CPU 1 instructions: 490000001 cycles: 298364686 heartbeat IPC: 1.13551 cumulative IPC: 1.10485 (Simulation time: 1 hr 6 min 54 sec) 
Heartbeat CPU 3 instructions: 400000000 cycles: 299445921 heartbeat IPC: 1.08805 cumulative IPC: 1.08672 (Simulation time: 1 hr 7 min 6 sec) 
Heartbeat CPU 2 instructions: 420000000 cycles: 306550684 heartbeat IPC: 0.878053 cumulative IPC: 0.840822 (Simulation time: 1 hr 8 min 21 sec) 
Heartbeat CPU 1 instructions: 500000000 cycles: 307199216 heartbeat IPC: 1.13192 cumulative IPC: 1.1061 (Simulation time: 1 hr 8 min 28 sec) 
Heartbeat CPU 0 instructions: 280000000 cycles: 308221512 heartbeat IPC: 0.383473 cumulative IPC: 0.379985 (Simulation time: 1 hr 8 min 39 sec) 
Heartbeat CPU 3 instructions: 410000000 cycles: 308640110 heartbeat IPC: 1.08764 cumulative IPC: 1.08676 (Simulation time: 1 hr 8 min 44 sec) 
Heartbeat CPU 1 instructions: 510000001 cycles: 316023266 heartbeat IPC: 1.13327 cumulative IPC: 1.1073 (Simulation time: 1 hr 10 min 4 sec) 
Heartbeat CPU 2 instructions: 430000000 cycles: 316465104 heartbeat IPC: 1.00863 cumulative IPC: 0.849097 (Simulation time: 1 hr 10 min 8 sec) 
Heartbeat CPU 3 instructions: 420000000 cycles: 317845692 heartbeat IPC: 1.0863 cumulative IPC: 1.08674 (Simulation time: 1 hr 10 min 24 sec) 
Heartbeat CPU 1 instructions: 520000000 cycles: 324904151 heartbeat IPC: 1.12601 cumulative IPC: 1.10809 (Simulation time: 1 hr 11 min 41 sec) 
Heartbeat CPU 3 instructions: 430000000 cycles: 327043701 heartbeat IPC: 1.08719 cumulative IPC: 1.08676 (Simulation time: 1 hr 12 min 8 sec) 
Heartbeat CPU 2 instructions: 440000000 cycles: 328397355 heartbeat IPC: 0.838065 cumulative IPC: 0.848479 (Simulation time: 1 hr 12 min 24 sec) 
Heartbeat CPU 1 instructions: 530000003 cycles: 334405697 heartbeat IPC: 1.05246 cumulative IPC: 1.10568 (Simulation time: 1 hr 13 min 37 sec) 
Heartbeat CPU 0 instructions: 290000001 cycles: 334445217 heartbeat IPC: 0.381334 cumulative IPC: 0.380147 (Simulation time: 1 hr 13 min 37 sec) 
Heartbeat CPU 3 instructions: 440000000 cycles: 336227095 heartbeat IPC: 1.08892 cumulative IPC: 1.08685 (Simulation time: 1 hr 14 min 1 sec) 
Heartbeat CPU 2 instructions: 450000001 cycles: 337092886 heartbeat IPC: 1.15002 cumulative IPC: 0.860307 (Simulation time: 1 hr 14 min 12 sec) 
Heartbeat CPU 1 instructions: 540000000 cycles: 343627182 heartbeat IPC: 1.08442 cumulative IPC: 1.10482 (Simulation time: 1 hr 15 min 24 sec) 
Heartbeat CPU 3 instructions: 450000003 cycles: 345458686 heartbeat IPC: 1.08324 cumulative IPC: 1.0867 (Simulation time: 1 hr 15 min 44 sec) 
Heartbeat CPU 2 instructions: 460000000 cycles: 345887067 heartbeat IPC: 1.13712 cumulative IPC: 0.870868 (Simulation time: 1 hr 15 min 49 sec) 
Heartbeat CPU 1 instructions: 550000002 cycles: 352473018 heartbeat IPC: 1.13048 cumulative IPC: 1.10577 (Simulation time: 1 hr 17 min 2 sec) 
Heartbeat CPU 2 instructions: 470000002 cycles: 354287634 heartbeat IPC: 1.1904 cumulative IPC: 0.882105 (Simulation time: 1 hr 17 min 22 sec) 
Heartbeat CPU 3 instructions: 460000000 cycles: 354654157 heartbeat IPC: 1.08749 cumulative IPC: 1.08673 (Simulation time: 1 hr 17 min 26 sec) 
Heartbeat CPU 0 instructions: 300000000 cycles: 360812065 heartbeat IPC: 0.379264 cumulative IPC: 0.380052 (Simulation time: 1 hr 18 min 33 sec) 
Heartbeat CPU 1 instructions: 560000000 cycles: 361339560 heartbeat IPC: 1.12784 cumulative IPC: 1.10657 (Simulation time: 1 hr 18 min 38 sec) 
Heartbeat CPU 2 instructions: 480000000 cycles: 363489315 heartbeat IPC: 1.08676 cumulative IPC: 0.889696 (Simulation time: 1 hr 18 min 59 sec) 
Heartbeat CPU 3 instructions: 470000003 cycles: 363848648 heartbeat IPC: 1.08761 cumulative IPC: 1.08677 (Simulation time: 1 hr 19 min 3 sec) 
Heartbeat CPU 1 instructions: 570000002 cycles: 370190136 heartbeat IPC: 1.12987 cumulative IPC: 1.10738 (Simulation time: 1 hr 20 min 7 sec) 
Heartbeat CPU 3 instructions: 480000000 cycles: 373018900 heartbeat IPC: 1.09048 cumulative IPC: 1.0869 (Simulation time: 1 hr 20 min 36 sec) 
Heartbeat CPU 2 instructions: 490000000 cycles: 373175418 heartbeat IPC: 1.03241 cumulative IPC: 0.895058 (Simulation time: 1 hr 20 min 38 sec) 
Heartbeat CPU 1 instructions: 580000000 cycles: 379002262 heartbeat IPC: 1.1348 cumulative IPC: 1.1083 (Simulation time: 1 hr 21 min 37 sec) 
Heartbeat CPU 2 instructions: 500000000 cycles: 382104267 heartbeat IPC: 1.11997 cumulative IPC: 0.902588 (Simulation time: 1 hr 22 min 9 sec) 
Heartbeat CPU 3 instructions: 490000000 cycles: 382199084 heartbeat IPC: 1.0893 cumulative IPC: 1.08698 (Simulation time: 1 hr 22 min 10 sec) 
Heartbeat CPU 0 instructions: 310000001 cycles: 386913131 heartbeat IPC: 0.383126 cumulative IPC: 0.380347 (Simulation time: 1 hr 22 min 58 sec) 
Heartbeat CPU 1 instructions: 590000000 cycles: 387816839 heartbeat IPC: 1.13448 cumulative IPC: 1.10914 (Simulation time: 1 hr 23 min 7 sec) 
Heartbeat CPU 2 instructions: 510000001 cycles: 391334073 heartbeat IPC: 1.08345 cumulative IPC: 0.908638 (Simulation time: 1 hr 23 min 43 sec) 
Heartbeat CPU 3 instructions: 500000000 cycles: 391389199 heartbeat IPC: 1.08813 cumulative IPC: 1.08702 (Simulation time: 1 hr 23 min 43 sec) 
Heartbeat CPU 1 instructions: 600000000 cycles: 396631485 heartbeat IPC: 1.13448 cumulative IPC: 1.10994 (Simulation time: 1 hr 24 min 36 sec) 
Heartbeat CPU 3 instructions: 510000000 cycles: 400617545 heartbeat IPC: 1.08362 cumulative IPC: 1.08691 (Simulation time: 1 hr 25 min 16 sec) 
Heartbeat CPU 2 instructions: 520000000 cycles: 401361592 heartbeat IPC: 0.997256 cumulative IPC: 0.911745 (Simulation time: 1 hr 25 min 24 sec) 
Heartbeat CPU 1 instructions: 610000000 cycles: 405434940 heartbeat IPC: 1.13592 cumulative IPC: 1.11073 (Simulation time: 1 hr 26 min 5 sec) 
Heartbeat CPU 3 instructions: 520000000 cycles: 409805142 heartbeat IPC: 1.08842 cumulative IPC: 1.08696 (Simulation time: 1 hr 26 min 49 sec) 
Heartbeat CPU 2 instructions: 530000002 cycles: 410938174 heartbeat IPC: 1.04421 cumulative IPC: 0.916038 (Simulation time: 1 hr 27 min 1 sec) 
Heartbeat CPU 0 instructions: 320000000 cycles: 412933233 heartbeat IPC: 0.384318 cumulative IPC: 0.380695 (Simulation time: 1 hr 27 min 21 sec) 
Heartbeat CPU 1 instructions: 620000000 cycles: 414277903 heartbeat IPC: 1.13084 cumulative IPC: 1.11132 (Simulation time: 1 hr 27 min 35 sec) 
Heartbeat CPU 3 instructions: 530000002 cycles: 418991559 heartbeat IPC: 1.08856 cumulative IPC: 1.08701 (Simulation time: 1 hr 28 min 20 sec) 
Heartbeat CPU 2 instructions: 540000000 cycles: 422827563 heartbeat IPC: 0.841086 cumulative IPC: 0.913139 (Simulation time: 1 hr 28 min 57 sec) 
Heartbeat CPU 1 instructions: 630000002 cycles: 423089516 heartbeat IPC: 1.13487 cumulative IPC: 1.11199 (Simulation time: 1 hr 29 min 0 sec) 
Heartbeat CPU 3 instructions: 540000000 cycles: 428181860 heartbeat IPC: 1.0881 cumulative IPC: 1.08704 (Simulation time: 1 hr 29 min 49 sec) 
Heartbeat CPU 1 instructions: 640000000 cycles: 431886415 heartbeat IPC: 1.13676 cumulative IPC: 1.11268 (Simulation time: 1 hr 30 min 26 sec) 
Heartbeat CPU 2 instructions: 550000000 cycles: 435128195 heartbeat IPC: 0.812966 cumulative IPC: 0.909285 (Simulation time: 1 hr 30 min 58 sec) 
Heartbeat CPU 3 instructions: 550000002 cycles: 437378172 heartbeat IPC: 1.08739 cumulative IPC: 1.08705 (Simulation time: 1 hr 31 min 20 sec) 
Heartbeat CPU 0 instructions: 330000003 cycles: 438963178 heartbeat IPC: 0.384173 cumulative IPC: 0.380975 (Simulation time: 1 hr 31 min 36 sec) 
Heartbeat CPU 1 instructions: 650000002 cycles: 440702204 heartbeat IPC: 1.13433 cumulative IPC: 1.11327 (Simulation time: 1 hr 31 min 53 sec) 
Heartbeat CPU 2 instructions: 560000000 cycles: 446181879 heartbeat IPC: 0.904676 cumulative IPC: 0.909131 (Simulation time: 1 hr 32 min 51 sec) 
Heartbeat CPU 3 instructions: 560000000 cycles: 446556309 heartbeat IPC: 1.08955 cumulative IPC: 1.08712 (Simulation time: 1 hr 32 min 55 sec) 
Heartbeat CPU 1 instructions: 660000000 cycles: 449675842 heartbeat IPC: 1.11437 cumulative IPC: 1.1133 (Simulation time: 1 hr 33 min 27 sec) 
Heartbeat CPU 3 instructions: 570000003 cycles: 455753118 heartbeat IPC: 1.08733 cumulative IPC: 1.08712 (Simulation time: 1 hr 34 min 31 sec) 
Heartbeat CPU 2 instructions: 570000000 cycles: 457521597 heartbeat IPC: 0.881856 cumulative IPC: 0.908227 (Simulation time: 1 hr 34 min 50 sec) 
Heartbeat CPU 1 instructions: 670000001 cycles: 458801741 heartbeat IPC: 1.09578 cumulative IPC: 1.11283 (Simulation time: 1 hr 35 min 3 sec) 
Heartbeat CPU 3 instructions: 580000000 cycles: 464947937 heartbeat IPC: 1.08757 cumulative IPC: 1.08713 (Simulation time: 1 hr 36 min 13 sec) 
Heartbeat CPU 0 instructions: 340000000 cycles: 464957592 heartbeat IPC: 0.384698 cumulative IPC: 0.381251 (Simulation time: 1 hr 36 min 13 sec) 
Heartbeat CPU 1 instructions: 680000000 cycles: 468011218 heartbeat IPC: 1.08584 cumulative IPC: 1.11213 (Simulation time: 1 hr 36 min 47 sec) 
Heartbeat CPU 2 instructions: 580000000 cycles: 468484394 heartbeat IPC: 0.912176 cumulative IPC: 0.90835 (Simulation time: 1 hr 36 min 53 sec) 
Heartbeat CPU 3 instructions: 590000003 cycles: 474128530 heartbeat IPC: 1.08925 cumulative IPC: 1.08719 (Simulation time: 1 hr 37 min 54 sec) 
Heartbeat CPU 1 instructions: 690000001 cycles: 477100223 heartbeat IPC: 1.10023 cumulative IPC: 1.11183 (Simulation time: 1 hr 38 min 28 sec) 
Heartbeat CPU 2 instructions: 590000000 cycles: 479512259 heartbeat IPC: 0.906794 cumulative IPC: 0.908303 (Simulation time: 1 hr 38 min 56 sec) 
Heartbeat CPU 3 instructions: 600000000 cycles: 483312771 heartbeat IPC: 1.08882 cumulative IPC: 1.08723 (Simulation time: 1 hr 39 min 41 sec) 
Heartbeat CPU 1 instructions: 700000000 cycles: 486135840 heartbeat IPC: 1.10673 cumulative IPC: 1.11171 (Simulation time: 1 hr 40 min 13 sec) 
Heartbeat CPU 2 instructions: 600000000 cycles: 490564444 heartbeat IPC: 0.904798 cumulative IPC: 0.908199 (Simulation time: 1 hr 41 min 4 sec) 
Heartbeat CPU 0 instructions: 350000000 cycles: 490980820 heartbeat IPC: 0.384272 cumulative IPC: 0.381461 (Simulation time: 1 hr 41 min 9 sec) 
Heartbeat CPU 3 instructions: 610000001 cycles: 492499547 heartbeat IPC: 1.08852 cumulative IPC: 1.08726 (Simulation time: 1 hr 41 min 26 sec) 
Heartbeat CPU 1 instructions: 710000002 cycles: 495264892 heartbeat IPC: 1.0954 cumulative IPC: 1.11131 (Simulation time: 1 hr 41 min 56 sec) 
Heartbeat CPU 3 instructions: 620000000 cycles: 501687597 heartbeat IPC: 1.08837 cumulative IPC: 1.08729 (Simulation time: 1 hr 43 min 8 sec) 
Heartbeat CPU 2 instructions: 610000001 cycles: 503252368 heartbeat IPC: 0.788151 cumulative IPC: 0.904272 (Simulation time: 1 hr 43 min 26 sec) 
Heartbeat CPU 1 instructions: 720000000 cycles: 504546550 heartbeat IPC: 1.07739 cumulative IPC: 1.1105 (Simulation time: 1 hr 43 min 40 sec) 
Heartbeat CPU 3 instructions: 630000003 cycles: 510865406 heartbeat IPC: 1.08958 cumulative IPC: 1.08734 (Simulation time: 1 hr 44 min 47 sec) 
Heartbeat CPU 1 instructions: 730000001 cycles: 513683694 heartbeat IPC: 1.09443 cumulative IPC: 1.11014 (Simulation time: 1 hr 45 min 17 sec) 
Heartbeat CPU 2 instructions: 620000000 cycles: 514608433 heartbeat IPC: 0.880587 cumulative IPC: 0.903598 (Simulation time: 1 hr 45 min 27 sec) 
Heartbeat CPU 0 instructions: 360000000 cycles: 517044109 heartbeat IPC: 0.383681 cumulative IPC: 0.381605 (Simulation time: 1 hr 45 min 53 sec) 
Heartbeat CPU 3 instructions: 640000000 cycles: 520046427 heartbeat IPC: 1.0892 cumulative IPC: 1.08738 (Simulation time: 1 hr 46 min 25 sec) 
Heartbeat CPU 1 instructions: 740000000 cycles: 522730403 heartbeat IPC: 1.10537 cumulative IPC: 1.11003 (Simulation time: 1 hr 46 min 53 sec) 
Heartbeat CPU 2 instructions: 630000001 cycles: 525558077 heartbeat IPC: 0.913272 cumulative IPC: 0.903857 (Simulation time: 1 hr 47 min 23 sec) 
Heartbeat CPU 3 instructions: 650000002 cycles: 529241636 heartbeat IPC: 1.08752 cumulative IPC: 1.08739 (Simulation time: 1 hr 48 min 2 sec) 
Heartbeat CPU 1 instructions: 750000002 cycles: 531915338 heartbeat IPC: 1.08874 cumulative IPC: 1.10956 (Simulation time: 1 hr 48 min 30 sec) 
Heartbeat CPU 2 instructions: 640000000 cycles: 536970652 heartbeat IPC: 0.876226 cumulative IPC: 0.903109 (Simulation time: 1 hr 49 min 23 sec) 
Heartbeat CPU 3 instructions: 660000000 cycles: 538467015 heartbeat IPC: 1.08397 cumulative IPC: 1.08731 (Simulation time: 1 hr 49 min 39 sec) 
Heartbeat CPU 1 instructions: 760000000 cycles: 541012835 heartbeat IPC: 1.0992 cumulative IPC: 1.10934 (Simulation time: 1 hr 50 min 6 sec) 
Heartbeat CPU 0 instructions: 370000001 cycles: 543167918 heartbeat IPC: 0.382793 cumulative IPC: 0.381677 (Simulation time: 1 hr 50 min 29 sec) 
Heartbeat CPU 3 instructions: 670000000 cycles: 547655319 heartbeat IPC: 1.08834 cumulative IPC: 1.08733 (Simulation time: 1 hr 51 min 16 sec) 
Heartbeat CPU 2 instructions: 650000001 cycles: 547792585 heartbeat IPC: 0.924049 cumulative IPC: 0.903633 (Simulation time: 1 hr 51 min 18 sec) 
Heartbeat CPU 1 instructions: 770000002 cycles: 549970663 heartbeat IPC: 1.11634 cumulative IPC: 1.10948 (Simulation time: 1 hr 51 min 40 sec) 
Heartbeat CPU 3 instructions: 680000000 cycles: 556844294 heartbeat IPC: 1.08826 cumulative IPC: 1.08735 (Simulation time: 1 hr 52 min 53 sec) 
Heartbeat CPU 2 instructions: 660000000 cycles: 558549252 heartbeat IPC: 0.929656 cumulative IPC: 0.904264 (Simulation time: 1 hr 53 min 12 sec) 
Heartbeat CPU 1 instructions: 780000000 cycles: 559033268 heartbeat IPC: 1.10344 cumulative IPC: 1.10936 (Simulation time: 1 hr 53 min 17 sec) 
Heartbeat CPU 3 instructions: 690000001 cycles: 566012291 heartbeat IPC: 1.09075 cumulative IPC: 1.08742 (Simulation time: 1 hr 54 min 31 sec) 
Heartbeat CPU 1 instructions: 790000002 cycles: 567984461 heartbeat IPC: 1.11717 cumulative IPC: 1.10951 (Simulation time: 1 hr 54 min 52 sec) 
Heartbeat CPU 0 instructions: 380000000 cycles: 569315852 heartbeat IPC: 0.382439 cumulative IPC: 0.381721 (Simulation time: 1 hr 55 min 6 sec) 
Heartbeat CPU 2 instructions: 670000001 cycles: 569487960 heartbeat IPC: 0.914185 cumulative IPC: 0.904503 (Simulation time: 1 hr 55 min 8 sec) 
Heartbeat CPU 3 instructions: 700000000 cycles: 575206087 heartbeat IPC: 1.08769 cumulative IPC: 1.08743 (Simulation time: 1 hr 56 min 9 sec) 
Heartbeat CPU 1 instructions: 800000000 cycles: 577040637 heartbeat IPC: 1.10422 cumulative IPC: 1.10941 (Simulation time: 1 hr 56 min 27 sec) 
Heartbeat CPU 2 instructions: 680000000 cycles: 581227173 heartbeat IPC: 0.851846 cumulative IPC: 0.903176 (Simulation time: 1 hr 57 min 10 sec) 
Heartbeat CPU 3 instructions: 710000003 cycles: 584399813 heartbeat IPC: 1.0877 cumulative IPC: 1.08743 (Simulation time: 1 hr 57 min 44 sec) 
Heartbeat CPU 1 instructions: 810000003 cycles: 586068459 heartbeat IPC: 1.10769 cumulative IPC: 1.10938 (Simulation time: 1 hr 58 min 1 sec) 
Heartbeat CPU 2 instructions: 690000003 cycles: 592359360 heartbeat IPC: 0.898296 cumulative IPC: 0.903062 (Simulation time: 1 hr 59 min 8 sec) 
Heartbeat CPU 3 instructions: 720000000 cycles: 593595690 heartbeat IPC: 1.08744 cumulative IPC: 1.08743 (Simulation time: 1 hr 59 min 20 sec) 
Heartbeat CPU 1 instructions: 820000000 cycles: 595098840 heartbeat IPC: 1.10737 cumulative IPC: 1.10934 (Simulation time: 1 hr 59 min 36 sec) 
Heartbeat CPU 0 instructions: 390000001 cycles: 595453729 heartbeat IPC: 0.382587 cumulative IPC: 0.381768 (Simulation time: 1 hr 59 min 39 sec) 
Heartbeat CPU 3 instructions: 730000000 cycles: 602771521 heartbeat IPC: 1.08982 cumulative IPC: 1.08748 (Simulation time: 2 hr 0 min 59 sec) 
Heartbeat CPU 2 instructions: 700000000 cycles: 604001512 heartbeat IPC: 0.858947 cumulative IPC: 0.902011 (Simulation time: 2 hr 1 min 14 sec) 
Heartbeat CPU 1 instructions: 830000001 cycles: 604033514 heartbeat IPC: 1.11924 cumulative IPC: 1.10952 (Simulation time: 2 hr 1 min 15 sec) 
Heartbeat CPU 3 instructions: 740000000 cycles: 611947874 heartbeat IPC: 1.08976 cumulative IPC: 1.08752 (Simulation time: 2 hr 2 min 42 sec) 
Heartbeat CPU 1 instructions: 840000000 cycles: 613092636 heartbeat IPC: 1.10386 cumulative IPC: 1.10942 (Simulation time: 2 hr 2 min 58 sec) 
Heartbeat CPU 2 instructions: 710000000 cycles: 614903722 heartbeat IPC: 0.917245 cumulative IPC: 0.902344 (Simulation time: 2 hr 3 min 18 sec) 
Heartbeat CPU 3 instructions: 750000001 cycles: 621162371 heartbeat IPC: 1.08525 cumulative IPC: 1.08748 (Simulation time: 2 hr 4 min 30 sec) 
Heartbeat CPU 0 instructions: 400000000 cycles: 621649213 heartbeat IPC: 0.381745 cumulative IPC: 0.381767 (Simulation time: 2 hr 4 min 35 sec) 
Heartbeat CPU 1 instructions: 850000002 cycles: 622016965 heartbeat IPC: 1.12053 cumulative IPC: 1.10961 (Simulation time: 2 hr 4 min 39 sec) 
Heartbeat CPU 2 instructions: 720000000 cycles: 626422940 heartbeat IPC: 0.868114 cumulative IPC: 0.901572 (Simulation time: 2 hr 5 min 32 sec) 
Heartbeat CPU 3 instructions: 760000000 cycles: 630344783 heartbeat IPC: 1.08904 cumulative IPC: 1.08751 (Simulation time: 2 hr 6 min 19 sec) 
Heartbeat CPU 1 instructions: 860000000 cycles: 631080018 heartbeat IPC: 1.10338 cumulative IPC: 1.1095 (Simulation time: 2 hr 6 min 27 sec) 
Heartbeat CPU 2 instructions: 730000001 cycles: 637717192 heartbeat IPC: 0.885406 cumulative IPC: 0.901223 (Simulation time: 2 hr 7 min 37 sec) 
Heartbeat CPU 3 instructions: 770000003 cycles: 639535727 heartbeat IPC: 1.08803 cumulative IPC: 1.08752 (Simulation time: 2 hr 7 min 56 sec) 
Heartbeat CPU 1 instructions: 870000003 cycles: 640018414 heartbeat IPC: 1.11877 cumulative IPC: 1.10966 (Simulation time: 2 hr 8 min 1 sec) 
Heartbeat CPU 0 instructions: 410000002 cycles: 647792312 heartbeat IPC: 0.38251 cumulative IPC: 0.381804 (Simulation time: 2 hr 9 min 28 sec) 
Heartbeat CPU 3 instructions: 780000000 cycles: 648730801 heartbeat IPC: 1.08754 cumulative IPC: 1.08752 (Simulation time: 2 hr 9 min 38 sec) 
Heartbeat CPU 1 instructions: 880000000 cycles: 649109308 heartbeat IPC: 1.1 cumulative IPC: 1.1095 (Simulation time: 2 hr 9 min 42 sec) 
Heartbeat CPU 2 instructions: 740000000 cycles: 651498718 heartbeat IPC: 0.725609 cumulative IPC: 0.896708 (Simulation time: 2 hr 10 min 9 sec) 
Heartbeat CPU 3 instructions: 790000001 cycles: 657913988 heartbeat IPC: 1.08895 cumulative IPC: 1.08754 (Simulation time: 2 hr 11 min 20 sec) 
Heartbeat CPU 1 instructions: 890000002 cycles: 658058980 heartbeat IPC: 1.11736 cumulative IPC: 1.10963 (Simulation time: 2 hr 11 min 21 sec) 
Heartbeat CPU 3 instructions: 800000000 cycles: 667113305 heartbeat IPC: 1.08704 cumulative IPC: 1.08753 (Simulation time: 2 hr 13 min 3 sec) 
Heartbeat CPU 1 instructions: 900000000 cycles: 667129236 heartbeat IPC: 1.1025 cumulative IPC: 1.10951 (Simulation time: 2 hr 13 min 3 sec) 
Heartbeat CPU 2 instructions: 750000001 cycles: 667192448 heartbeat IPC: 0.637197 cumulative IPC: 0.889327 (Simulation time: 2 hr 13 min 4 sec) 
Heartbeat CPU 0 instructions: 420000000 cycles: 674003041 heartbeat IPC: 0.381523 cumulative IPC: 0.38179 (Simulation time: 2 hr 14 min 19 sec) 
Heartbeat CPU 1 instructions: 910000001 cycles: 676253234 heartbeat IPC: 1.09601 cumulative IPC: 1.10929 (Simulation time: 2 hr 14 min 46 sec) 
Heartbeat CPU 3 instructions: 810000001 cycles: 676355644 heartbeat IPC: 1.08198 cumulative IPC: 1.08744 (Simulation time: 2 hr 14 min 47 sec) 
Heartbeat CPU 2 instructions: 760000000 cycles: 683793805 heartbeat IPC: 0.60236 cumulative IPC: 0.880946 (Simulation time: 2 hr 16 min 5 sec) 
Heartbeat CPU 1 instructions: 920000000 cycles: 685199583 heartbeat IPC: 1.11777 cumulative IPC: 1.10942 (Simulation time: 2 hr 16 min 19 sec) 
Heartbeat CPU 3 instructions: 820000000 cycles: 685547886 heartbeat IPC: 1.08787 cumulative IPC: 1.08745 (Simulation time: 2 hr 16 min 22 sec) 
Heartbeat CPU 1 instructions: 930000000 cycles: 694152080 heartbeat IPC: 1.11701 cumulative IPC: 1.10954 (Simulation time: 2 hr 17 min 52 sec) 
Heartbeat CPU 3 instructions: 830000003 cycles: 694742648 heartbeat IPC: 1.08758 cumulative IPC: 1.08745 (Simulation time: 2 hr 17 min 59 sec) 
Heartbeat CPU 2 instructions: 770000001 cycles: 699997691 heartbeat IPC: 0.617136 cumulative IPC: 0.873633 (Simulation time: 2 hr 18 min 56 sec) 
Heartbeat CPU 0 instructions: 430000001 cycles: 700448077 heartbeat IPC: 0.378143 cumulative IPC: 0.381626 (Simulation time: 2 hr 19 min 0 sec) 
Heartbeat CPU 1 instructions: 940000000 cycles: 703277165 heartbeat IPC: 1.09588 cumulative IPC: 1.10933 (Simulation time: 2 hr 19 min 33 sec) 
Heartbeat CPU 3 instructions: 840000000 cycles: 703952629 heartbeat IPC: 1.08578 cumulative IPC: 1.08742 (Simulation time: 2 hr 19 min 40 sec) 
Heartbeat CPU 1 instructions: 950000000 cycles: 712495352 heartbeat IPC: 1.08481 cumulative IPC: 1.10895 (Simulation time: 2 hr 21 min 10 sec) 
Heartbeat CPU 3 instructions: 850000000 cycles: 713153789 heartbeat IPC: 1.08682 cumulative IPC: 1.08741 (Simulation time: 2 hr 21 min 17 sec) 
Heartbeat CPU 2 instructions: 780000000 cycles: 715827202 heartbeat IPC: 0.631731 cumulative IPC: 0.867256 (Simulation time: 2 hr 21 min 46 sec) 
Heartbeat CPU 1 instructions: 960000000 cycles: 721573263 heartbeat IPC: 1.10158 cumulative IPC: 1.10884 (Simulation time: 2 hr 22 min 50 sec) 
Heartbeat CPU 3 instructions: 860000000 cycles: 722344707 heartbeat IPC: 1.08803 cumulative IPC: 1.08742 (Simulation time: 2 hr 22 min 58 sec) 
Heartbeat CPU 0 instructions: 440000000 cycles: 726740542 heartbeat IPC: 0.380337 cumulative IPC: 0.38157 (Simulation time: 2 hr 23 min 41 sec) 
Heartbeat CPU 1 instructions: 970000001 cycles: 730640874 heartbeat IPC: 1.10283 cumulative IPC: 1.10875 (Simulation time: 2 hr 24 min 19 sec) 
Heartbeat CPU 3 instructions: 870000000 cycles: 731559814 heartbeat IPC: 1.08517 cumulative IPC: 1.08739 (Simulation time: 2 hr 24 min 28 sec) 
Heartbeat CPU 2 instructions: 790000000 cycles: 732749810 heartbeat IPC: 0.590925 cumulative IPC: 0.859681 (Simulation time: 2 hr 24 min 40 sec) 
Heartbeat CPU 1 instructions: 980000000 cycles: 740023928 heartbeat IPC: 1.06575 cumulative IPC: 1.10811 (Simulation time: 2 hr 25 min 52 sec) 
Heartbeat CPU 3 instructions: 880000000 cycles: 740757490 heartbeat IPC: 1.08723 cumulative IPC: 1.08739 (Simulation time: 2 hr 25 min 59 sec) 
Heartbeat CPU 2 instructions: 800000000 cycles: 748645017 heartbeat IPC: 0.62912 cumulative IPC: 0.853894 (Simulation time: 2 hr 27 min 17 sec) 
Heartbeat CPU 1 instructions: 990000002 cycles: 749081847 heartbeat IPC: 1.10401 cumulative IPC: 1.10805 (Simulation time: 2 hr 27 min 22 sec) 
Heartbeat CPU 3 instructions: 890000000 cycles: 749940008 heartbeat IPC: 1.08903 cumulative IPC: 1.08741 (Simulation time: 2 hr 27 min 30 sec) 
Heartbeat CPU 0 instructions: 450000000 cycles: 753060595 heartbeat IPC: 0.379938 cumulative IPC: 0.381503 (Simulation time: 2 hr 28 min 0 sec) 
Heartbeat CPU 1 instructions: 1000000000 cycles: 758276995 heartbeat IPC: 1.08753 cumulative IPC: 1.10775 (Simulation time: 2 hr 28 min 52 sec) 
Heartbeat CPU 3 instructions: 900000000 cycles: 759151694 heartbeat IPC: 1.08558 cumulative IPC: 1.08738 (Simulation time: 2 hr 29 min 0 sec) 
Heartbeat CPU 2 instructions: 810000000 cycles: 764925192 heartbeat IPC: 0.614244 cumulative IPC: 0.847887 (Simulation time: 2 hr 29 min 57 sec) 
Heartbeat CPU 1 instructions: 1010000002 cycles: 767410174 heartbeat IPC: 1.09491 cumulative IPC: 1.10757 (Simulation time: 2 hr 30 min 24 sec) 
Heartbeat CPU 3 instructions: 910000000 cycles: 768347090 heartbeat IPC: 1.0875 cumulative IPC: 1.08739 (Simulation time: 2 hr 30 min 33 sec) 
Heartbeat CPU 1 instructions: 1020000000 cycles: 776354603 heartbeat IPC: 1.11801 cumulative IPC: 1.10771 (Simulation time: 2 hr 31 min 51 sec) 
Heartbeat CPU 3 instructions: 920000000 cycles: 777549319 heartbeat IPC: 1.08669 cumulative IPC: 1.08738 (Simulation time: 2 hr 32 min 3 sec) 
Heartbeat CPU 0 instructions: 460000000 cycles: 779165861 heartbeat IPC: 0.383064 cumulative IPC: 0.381564 (Simulation time: 2 hr 32 min 18 sec) 
Heartbeat CPU 2 instructions: 820000000 cycles: 781676121 heartbeat IPC: 0.596982 cumulative IPC: 0.841579 (Simulation time: 2 hr 32 min 43 sec) 
Heartbeat CPU 1 instructions: 1030000003 cycles: 785360886 heartbeat IPC: 1.11034 cumulative IPC: 1.10775 (Simulation time: 2 hr 33 min 19 sec) 
Heartbeat CPU 3 instructions: 930000002 cycles: 786757567 heartbeat IPC: 1.08598 cumulative IPC: 1.08736 (Simulation time: 2 hr 33 min 33 sec) 
Heartbeat CPU 1 instructions: 1040000000 cycles: 794255967 heartbeat IPC: 1.12422 cumulative IPC: 1.10797 (Simulation time: 2 hr 34 min 46 sec) 
Heartbeat CPU 3 instructions: 940000000 cycles: 795963878 heartbeat IPC: 1.08621 cumulative IPC: 1.08734 (Simulation time: 2 hr 35 min 3 sec) 
Heartbeat CPU 2 instructions: 830000000 cycles: 797745245 heartbeat IPC: 0.622311 cumulative IPC: 0.836415 (Simulation time: 2 hr 35 min 21 sec) 
Heartbeat CPU 1 instructions: 1050000000 cycles: 803018206 heartbeat IPC: 1.14126 cumulative IPC: 1.10839 (Simulation time: 2 hr 36 min 14 sec) 
Heartbeat CPU 3 instructions: 950000000 cycles: 805148922 heartbeat IPC: 1.08873 cumulative IPC: 1.08736 (Simulation time: 2 hr 36 min 34 sec) 
Heartbeat CPU 0 instructions: 470000001 cycles: 805398726 heartbeat IPC: 0.381201 cumulative IPC: 0.38155 (Simulation time: 2 hr 36 min 37 sec) 
Heartbeat CPU 1 instructions: 1060000000 cycles: 811844611 heartbeat IPC: 1.13296 cumulative IPC: 1.1087 (Simulation time: 2 hr 37 min 40 sec) 
Heartbeat CPU 2 instructions: 840000000 cycles: 813212949 heartbeat IPC: 0.646508 cumulative IPC: 0.832205 (Simulation time: 2 hr 37 min 54 sec) 
Heartbeat CPU 3 instructions: 960000000 cycles: 814351615 heartbeat IPC: 1.08664 cumulative IPC: 1.08735 (Simulation time: 2 hr 38 min 9 sec) 
Heartbeat CPU 1 instructions: 1070000001 cycles: 820678987 heartbeat IPC: 1.13194 cumulative IPC: 1.10899 (Simulation time: 2 hr 39 min 18 sec) 
Heartbeat CPU 3 instructions: 970000003 cycles: 823590265 heartbeat IPC: 1.08241 cumulative IPC: 1.08729 (Simulation time: 2 hr 39 min 50 sec) 
Heartbeat CPU 2 instructions: 850000000 cycles: 829447703 heartbeat IPC: 0.615963 cumulative IPC: 0.827289 (Simulation time: 2 hr 40 min 55 sec) 
Heartbeat CPU 1 instructions: 1080000000 cycles: 829485580 heartbeat IPC: 1.13551 cumulative IPC: 1.10932 (Simulation time: 2 hr 40 min 56 sec) 
Heartbeat CPU 0 instructions: 480000000 cycles: 831760522 heartbeat IPC: 0.379337 cumulative IPC: 0.381469 (Simulation time: 2 hr 41 min 20 sec) 
Heartbeat CPU 3 instructions: 980000000 cycles: 832787334 heartbeat IPC: 1.0873 cumulative IPC: 1.08729 (Simulation time: 2 hr 41 min 30 sec) 
Heartbeat CPU 1 instructions: 1090000000 cycles: 838299798 heartbeat IPC: 1.13453 cumulative IPC: 1.10963 (Simulation time: 2 hr 42 min 28 sec) 
Heartbeat CPU 3 instructions: 990000001 cycles: 841978196 heartbeat IPC: 1.08804 cumulative IPC: 1.0873 (Simulation time: 2 hr 43 min 4 sec) 
Heartbeat CPU 2 instructions: 860000000 cycles: 844610047 heartbeat IPC: 0.659529 cumulative IPC: 0.823801 (Simulation time: 2 hr 43 min 30 sec) 
Heartbeat CPU 1 instructions: 1100000000 cycles: 847135535 heartbeat IPC: 1.13177 cumulative IPC: 1.10989 (Simulation time: 2 hr 43 min 55 sec) 
Heartbeat CPU 3 instructions: 1000000000 cycles: 851183996 heartbeat IPC: 1.08627 cumulative IPC: 1.08728 (Simulation time: 2 hr 44 min 36 sec) 
Heartbeat CPU 1 instructions: 1110000000 cycles: 855975383 heartbeat IPC: 1.13124 cumulative IPC: 1.11015 (Simulation time: 2 hr 45 min 26 sec) 
Heartbeat CPU 0 instructions: 490000000 cycles: 858016643 heartbeat IPC: 0.380864 cumulative IPC: 0.381448 (Simulation time: 2 hr 45 min 48 sec) 
Heartbeat CPU 3 instructions: 1010000002 cycles: 860400945 heartbeat IPC: 1.08496 cumulative IPC: 1.08725 (Simulation time: 2 hr 46 min 15 sec) 
Heartbeat CPU 2 instructions: 870000001 cycles: 860416408 heartbeat IPC: 0.632657 cumulative IPC: 0.819745 (Simulation time: 2 hr 46 min 15 sec) 
Heartbeat CPU 1 instructions: 1120000000 cycles: 864823953 heartbeat IPC: 1.13013 cumulative IPC: 1.11039 (Simulation time: 2 hr 47 min 0 sec) 
Heartbeat CPU 3 instructions: 1020000000 cycles: 869599420 heartbeat IPC: 1.08714 cumulative IPC: 1.08725 (Simulation time: 2 hr 47 min 46 sec) 
Heartbeat CPU 1 instructions: 1130000003 cycles: 873695248 heartbeat IPC: 1.12723 cumulative IPC: 1.11058 (Simulation time: 2 hr 48 min 29 sec) 
Heartbeat CPU 2 instructions: 880000000 cycles: 873889023 heartbeat IPC: 0.742246 cumulative IPC: 0.818369 (Simulation time: 2 hr 48 min 31 sec) 
Heartbeat CPU 3 instructions: 1030000000 cycles: 878762959 heartbeat IPC: 1.09128 cumulative IPC: 1.0873 (Simulation time: 2 hr 49 min 23 sec) 
Heartbeat CPU 1 instructions: 1140000000 cycles: 882391999 heartbeat IPC: 1.14985 cumulative IPC: 1.11103 (Simulation time: 2 hr 49 min 59 sec) 
Heartbeat CPU 0 instructions: 500000000 cycles: 884131857 heartbeat IPC: 0.382919 cumulative IPC: 0.381498 (Simulation time: 2 hr 50 min 16 sec) 
Heartbeat CPU 3 instructions: 1040000000 cycles: 887954876 heartbeat IPC: 1.08791 cumulative IPC: 1.08731 (Simulation time: 2 hr 50 min 54 sec) 
Heartbeat CPU 2 instructions: 890000000 cycles: 888007422 heartbeat IPC: 0.708296 cumulative IPC: 0.816357 (Simulation time: 2 hr 50 min 55 sec) 
Heartbeat CPU 1 instructions: 1150000003 cycles: 890983947 heartbeat IPC: 1.16388 cumulative IPC: 1.11161 (Simulation time: 2 hr 51 min 25 sec) 
Heartbeat CPU 3 instructions: 1050000000 cycles: 897159052 heartbeat IPC: 1.08646 cumulative IPC: 1.0873 (Simulation time: 2 hr 52 min 31 sec) 
Heartbeat CPU 1 instructions: 1160000000 cycles: 900898377 heartbeat IPC: 1.00863 cumulative IPC: 1.11031 (Simulation time: 2 hr 53 min 9 sec) 
Heartbeat CPU 2 instructions: 900000000 cycles: 904295554 heartbeat IPC: 0.613944 cumulative IPC: 0.812178 (Simulation time: 2 hr 53 min 42 sec) 
Heartbeat CPU 3 instructions: 1060000000 cycles: 906402880 heartbeat IPC: 1.0818 cumulative IPC: 1.08723 (Simulation time: 2 hr 54 min 3 sec) 
Heartbeat CPU 1 instructions: 1170000003 cycles: 909689705 heartbeat IPC: 1.13748 cumulative IPC: 1.11061 (Simulation time: 2 hr 54 min 36 sec) 
Heartbeat CPU 0 instructions: 510000002 cycles: 910928463 heartbeat IPC: 0.373182 cumulative IPC: 0.381217 (Simulation time: 2 hr 54 min 48 sec) 
Heartbeat CPU 3 instructions: 1070000001 cycles: 915596834 heartbeat IPC: 1.08767 cumulative IPC: 1.08724 (Simulation time: 2 hr 55 min 34 sec) 
Heartbeat CPU 1 instructions: 1180000000 cycles: 918539221 heartbeat IPC: 1.13001 cumulative IPC: 1.11083 (Simulation time: 2 hr 56 min 3 sec) 
Heartbeat CPU 2 instructions: 910000000 cycles: 920907176 heartbeat IPC: 0.601988 cumulative IPC: 0.807843 (Simulation time: 2 hr 56 min 27 sec) 
Heartbeat CPU 3 instructions: 1080000000 cycles: 924794265 heartbeat IPC: 1.08726 cumulative IPC: 1.08724 (Simulation time: 2 hr 57 min 5 sec) 
Heartbeat CPU 1 instructions: 1190000001 cycles: 927367387 heartbeat IPC: 1.13274 cumulative IPC: 1.11107 (Simulation time: 2 hr 57 min 31 sec) 
Heartbeat CPU 3 instructions: 1090000002 cycles: 934014281 heartbeat IPC: 1.0846 cumulative IPC: 1.08721 (Simulation time: 2 hr 58 min 37 sec) 
Heartbeat CPU 1 instructions: 1200000000 cycles: 936191274 heartbeat IPC: 1.13329 cumulative IPC: 1.1113 (Simulation time: 2 hr 58 min 58 sec) 
Heartbeat CPU 0 instructions: 520000000 cycles: 937086878 heartbeat IPC: 0.382286 cumulative IPC: 0.381251 (Simulation time: 2 hr 59 min 7 sec) 
Heartbeat CPU 2 instructions: 920000000 cycles: 937393219 heartbeat IPC: 0.606574 cumulative IPC: 0.803807 (Simulation time: 2 hr 59 min 10 sec) 
Heartbeat CPU 3 instructions: 1100000000 cycles: 943218428 heartbeat IPC: 1.08647 cumulative IPC: 1.0872 (Simulation time: 3 hr 0 min 8 sec) 
Heartbeat CPU 1 instructions: 1210000000 cycles: 945031354 heartbeat IPC: 1.13121 cumulative IPC: 1.11152 (Simulation time: 3 hr 0 min 26 sec) 
Heartbeat CPU 3 instructions: 1110000002 cycles: 952422213 heartbeat IPC: 1.08651 cumulative IPC: 1.08719 (Simulation time: 3 hr 1 min 41 sec) 
Heartbeat CPU 2 instructions: 930000002 cycles: 952603638 heartbeat IPC: 0.657444 cumulative IPC: 0.801147 (Simulation time: 3 hr 1 min 42 sec) 
Heartbeat CPU 1 instructions: 1220000000 cycles: 953860218 heartbeat IPC: 1.13265 cumulative IPC: 1.11174 (Simulation time: 3 hr 1 min 55 sec) 
Heartbeat CPU 3 instructions: 1120000000 cycles: 961659792 heartbeat IPC: 1.08253 cumulative IPC: 1.08714 (Simulation time: 3 hr 3 min 14 sec) 
Heartbeat CPU 1 instructions: 1230000002 cycles: 962673795 heartbeat IPC: 1.13461 cumulative IPC: 1.11198 (Simulation time: 3 hr 3 min 25 sec) 
Heartbeat CPU 0 instructions: 530000000 cycles: 963400413 heartbeat IPC: 0.380033 cumulative IPC: 0.381214 (Simulation time: 3 hr 3 min 32 sec) 
Heartbeat CPU 2 instructions: 940000000 cycles: 966378859 heartbeat IPC: 0.725941 cumulative IPC: 0.79993 (Simulation time: 3 hr 4 min 0 sec) 
Heartbeat CPU 3 instructions: 1130000003 cycles: 970838771 heartbeat IPC: 1.08945 cumulative IPC: 1.08717 (Simulation time: 3 hr 4 min 43 sec) 
Heartbeat CPU 1 instructions: 1240000000 cycles: 971508481 heartbeat IPC: 1.1319 cumulative IPC: 1.11218 (Simulation time: 3 hr 4 min 49 sec) 
Heartbeat CPU 3 instructions: 1140000000 cycles: 980027768 heartbeat IPC: 1.08826 cumulative IPC: 1.08718 (Simulation time: 3 hr 6 min 9 sec) 
Heartbeat CPU 1 instructions: 1250000002 cycles: 980344230 heartbeat IPC: 1.13177 cumulative IPC: 1.11238 (Simulation time: 3 hr 6 min 12 sec) 
Heartbeat CPU 2 instructions: 950000003 cycles: 981700713 heartbeat IPC: 0.652663 cumulative IPC: 0.797325 (Simulation time: 3 hr 6 min 25 sec) 
Heartbeat CPU 1 instructions: 1260000000 cycles: 989110624 heartbeat IPC: 1.14072 cumulative IPC: 1.11267 (Simulation time: 3 hr 7 min 33 sec) 
Heartbeat CPU 3 instructions: 1150000002 cycles: 989230773 heartbeat IPC: 1.0866 cumulative IPC: 1.08717 (Simulation time: 3 hr 7 min 34 sec) 
Heartbeat CPU 0 instructions: 540000000 cycles: 989743895 heartbeat IPC: 0.379601 cumulative IPC: 0.381165 (Simulation time: 3 hr 7 min 39 sec) 
Heartbeat CPU 1 instructions: 1270000003 cycles: 997897470 heartbeat IPC: 1.13807 cumulative IPC: 1.11292 (Simulation time: 3 hr 8 min 55 sec) 
Heartbeat CPU 3 instructions: 1160000000 cycles: 998457631 heartbeat IPC: 1.08379 cumulative IPC: 1.08714 (Simulation time: 3 hr 9 min 0 sec) 
Heartbeat CPU 2 instructions: 960000000 cycles: 998486506 heartbeat IPC: 0.595742 cumulative IPC: 0.793494 (Simulation time: 3 hr 9 min 0 sec) 
Heartbeat CPU 1 instructions: 1280000000 cycles: 1006680867 heartbeat IPC: 1.13851 cumulative IPC: 1.11317 (Simulation time: 3 hr 10 min 16 sec) 
Heartbeat CPU 3 instructions: 1170000001 cycles: 1007663090 heartbeat IPC: 1.08631 cumulative IPC: 1.08713 (Simulation time: 3 hr 10 min 25 sec) 
Finished CPU 1 instructions: 1000000000 cycles: 898219542 cumulative IPC: 1.11331 (Simulation time: 3 hr 11 min 20 sec) 
Heartbeat CPU 2 instructions: 970000003 cycles: 1014628287 heartbeat IPC: 0.619511 cumulative IPC: 0.79037 (Simulation time: 3 hr 11 min 29 sec) 
Heartbeat CPU 1 instructions: 1290000001 cycles: 1015504511 heartbeat IPC: 1.13332 cumulative IPC: 1.11337 (Simulation time: 3 hr 11 min 37 sec) 
Heartbeat CPU 0 instructions: 550000002 cycles: 1016168279 heartbeat IPC: 0.378438 cumulative IPC: 0.381085 (Simulation time: 3 hr 11 min 44 sec) 
Heartbeat CPU 3 instructions: 1180000000 cycles: 1016849927 heartbeat IPC: 1.08851 cumulative IPC: 1.08714 (Simulation time: 3 hr 11 min 50 sec) 
Heartbeat CPU 1 instructions: 1300000000 cycles: 1024402300 heartbeat IPC: 1.12387 cumulative IPC: 1.11347 (Simulation time: 3 hr 13 min 0 sec) 
Heartbeat CPU 3 instructions: 1190000002 cycles: 1026048920 heartbeat IPC: 1.08708 cumulative IPC: 1.08714 (Simulation time: 3 hr 13 min 15 sec) 
Heartbeat CPU 2 instructions: 980000000 cycles: 1030526218 heartbeat IPC: 0.629012 cumulative IPC: 0.787567 (Simulation time: 3 hr 13 min 57 sec) 
Heartbeat CPU 1 instructions: 1310000001 cycles: 1033431003 heartbeat IPC: 1.10758 cumulative IPC: 1.11341 (Simulation time: 3 hr 14 min 24 sec) 
Heartbeat CPU 3 instructions: 1200000000 cycles: 1035242618 heartbeat IPC: 1.0877 cumulative IPC: 1.08715 (Simulation time: 3 hr 14 min 42 sec) 
Finished CPU 3 instructions: 1000000002 cycles: 919837399 cumulative IPC: 1.08715 (Simulation time: 3 hr 14 min 42 sec) 
Heartbeat CPU 1 instructions: 1320000000 cycles: 1042427687 heartbeat IPC: 1.11152 cumulative IPC: 1.1134 (Simulation time: 3 hr 15 min 54 sec) 
Heartbeat CPU 0 instructions: 560000000 cycles: 1042538955 heartbeat IPC: 0.379209 cumulative IPC: 0.381032 (Simulation time: 3 hr 15 min 56 sec) 
Heartbeat CPU 3 instructions: 1210000002 cycles: 1044436551 heartbeat IPC: 1.08767 cumulative IPC: 1.08715 (Simulation time: 3 hr 16 min 14 sec) 
Heartbeat CPU 2 instructions: 990000002 cycles: 1046205885 heartbeat IPC: 0.637769 cumulative IPC: 0.785044 (Simulation time: 3 hr 16 min 31 sec) 
Heartbeat CPU 1 instructions: 1330000002 cycles: 1051420150 heartbeat IPC: 1.11204 cumulative IPC: 1.11338 (Simulation time: 3 hr 17 min 23 sec) 
Heartbeat CPU 3 instructions: 1220000000 cycles: 1053620329 heartbeat IPC: 1.08888 cumulative IPC: 1.08717 (Simulation time: 3 hr 17 min 45 sec) 
Heartbeat CPU 1 instructions: 1340000000 cycles: 1060503872 heartbeat IPC: 1.10087 cumulative IPC: 1.11326 (Simulation time: 3 hr 18 min 53 sec) 
Heartbeat CPU 2 instructions: 1000000000 cycles: 1062588285 heartbeat IPC: 0.610411 cumulative IPC: 0.782023 (Simulation time: 3 hr 19 min 14 sec) 
Heartbeat CPU 3 instructions: 1230000003 cycles: 1062804853 heartbeat IPC: 1.08879 cumulative IPC: 1.08719 (Simulation time: 3 hr 19 min 16 sec) 
Heartbeat CPU 0 instructions: 570000001 cycles: 1068737627 heartbeat IPC: 0.381699 cumulative IPC: 0.38105 (Simulation time: 3 hr 20 min 14 sec) 
Heartbeat CPU 1 instructions: 1350000003 cycles: 1069595222 heartbeat IPC: 1.09995 cumulative IPC: 1.11314 (Simulation time: 3 hr 20 min 23 sec) 
Heartbeat CPU 3 instructions: 1240000000 cycles: 1072000560 heartbeat IPC: 1.08746 cumulative IPC: 1.08719 (Simulation time: 3 hr 20 min 47 sec) 
Heartbeat CPU 1 instructions: 1360000000 cycles: 1078634126 heartbeat IPC: 1.10633 cumulative IPC: 1.11307 (Simulation time: 3 hr 21 min 52 sec) 
Heartbeat CPU 2 instructions: 1010000000 cycles: 1078914951 heartbeat IPC: 0.612495 cumulative IPC: 0.779151 (Simulation time: 3 hr 21 min 55 sec) 
Heartbeat CPU 3 instructions: 1250000000 cycles: 1081232922 heartbeat IPC: 1.08315 cumulative IPC: 1.08715 (Simulation time: 3 hr 22 min 18 sec) 
Heartbeat CPU 1 instructions: 1370000001 cycles: 1087958866 heartbeat IPC: 1.07242 cumulative IPC: 1.11268 (Simulation time: 3 hr 23 min 25 sec) 
Heartbeat CPU 3 instructions: 1260000000 cycles: 1090416450 heartbeat IPC: 1.08891 cumulative IPC: 1.08717 (Simulation time: 3 hr 23 min 49 sec) 
Heartbeat CPU 2 instructions: 1020000000 cycles: 1095077656 heartbeat IPC: 0.618708 cumulative IPC: 0.776504 (Simulation time: 3 hr 24 min 35 sec) 
Heartbeat CPU 0 instructions: 580000000 cycles: 1095105345 heartbeat IPC: 0.379252 cumulative IPC: 0.381002 (Simulation time: 3 hr 24 min 35 sec) 
Heartbeat CPU 1 instructions: 1380000000 cycles: 1097010301 heartbeat IPC: 1.1048 cumulative IPC: 1.11261 (Simulation time: 3 hr 24 min 53 sec) 
Heartbeat CPU 3 instructions: 1270000000 cycles: 1099642987 heartbeat IPC: 1.08383 cumulative IPC: 1.08714 (Simulation time: 3 hr 25 min 18 sec) 
Heartbeat CPU 1 instructions: 1390000001 cycles: 1106388685 heartbeat IPC: 1.06628 cumulative IPC: 1.11217 (Simulation time: 3 hr 26 min 20 sec) 
Heartbeat CPU 3 instructions: 1280000000 cycles: 1108844182 heartbeat IPC: 1.08682 cumulative IPC: 1.08713 (Simulation time: 3 hr 26 min 43 sec) 
Heartbeat CPU 2 instructions: 1030000000 cycles: 1111440642 heartbeat IPC: 0.611135 cumulative IPC: 0.773787 (Simulation time: 3 hr 27 min 7 sec) 
Heartbeat CPU 1 instructions: 1400000000 cycles: 1115493511 heartbeat IPC: 1.09832 cumulative IPC: 1.11205 (Simulation time: 3 hr 27 min 45 sec) 
Heartbeat CPU 3 instructions: 1290000002 cycles: 1118046589 heartbeat IPC: 1.08667 cumulative IPC: 1.08713 (Simulation time: 3 hr 28 min 9 sec) 
Heartbeat CPU 0 instructions: 590000000 cycles: 1121465251 heartbeat IPC: 0.379364 cumulative IPC: 0.380959 (Simulation time: 3 hr 28 min 41 sec) 
Heartbeat CPU 1 instructions: 1410000002 cycles: 1124510894 heartbeat IPC: 1.10897 cumulative IPC: 1.11202 (Simulation time: 3 hr 29 min 8 sec) 
Heartbeat CPU 3 instructions: 1300000000 cycles: 1127236575 heartbeat IPC: 1.08814 cumulative IPC: 1.08714 (Simulation time: 3 hr 29 min 34 sec) 
Heartbeat CPU 2 instructions: 1040000000 cycles: 1127912216 heartbeat IPC: 0.607107 cumulative IPC: 0.771076 (Simulation time: 3 hr 29 min 40 sec) 
Heartbeat CPU 1 instructions: 1420000000 cycles: 1133592183 heartbeat IPC: 1.10117 cumulative IPC: 1.11192 (Simulation time: 3 hr 30 min 34 sec) 
Heartbeat CPU 3 instructions: 1310000000 cycles: 1136442665 heartbeat IPC: 1.08624 cumulative IPC: 1.08713 (Simulation time: 3 hr 31 min 1 sec) 
Heartbeat CPU 1 instructions: 1430000001 cycles: 1142635898 heartbeat IPC: 1.10574 cumulative IPC: 1.11187 (Simulation time: 3 hr 32 min 2 sec) 
Heartbeat CPU 2 instructions: 1050000002 cycles: 1144086064 heartbeat IPC: 0.618282 cumulative IPC: 0.768673 (Simulation time: 3 hr 32 min 16 sec) 
Heartbeat CPU 3 instructions: 1320000000 cycles: 1145646778 heartbeat IPC: 1.08647 cumulative IPC: 1.08712 (Simulation time: 3 hr 32 min 32 sec) 
Heartbeat CPU 0 instructions: 600000000 cycles: 1147730777 heartbeat IPC: 0.380727 cumulative IPC: 0.380953 (Simulation time: 3 hr 32 min 52 sec) 
Heartbeat CPU 1 instructions: 1440000000 cycles: 1151847958 heartbeat IPC: 1.08553 cumulative IPC: 1.11163 (Simulation time: 3 hr 33 min 33 sec) 
Heartbeat CPU 3 instructions: 1330000000 cycles: 1154837857 heartbeat IPC: 1.08801 cumulative IPC: 1.08713 (Simulation time: 3 hr 34 min 3 sec) 
Heartbeat CPU 2 instructions: 1060000000 cycles: 1160041812 heartbeat IPC: 0.626733 cumulative IPC: 0.766505 (Simulation time: 3 hr 34 min 55 sec) 
Heartbeat CPU 1 instructions: 1450000001 cycles: 1160895956 heartbeat IPC: 1.10522 cumulative IPC: 1.11158 (Simulation time: 3 hr 35 min 3 sec) 
Heartbeat CPU 3 instructions: 1340000000 cycles: 1164051777 heartbeat IPC: 1.08531 cumulative IPC: 1.08712 (Simulation time: 3 hr 35 min 34 sec) 
Heartbeat CPU 1 instructions: 1460000000 cycles: 1169941399 heartbeat IPC: 1.10553 cumulative IPC: 1.11153 (Simulation time: 3 hr 36 min 32 sec) 
Heartbeat CPU 3 instructions: 1350000001 cycles: 1173246850 heartbeat IPC: 1.08754 cumulative IPC: 1.08712 (Simulation time: 3 hr 37 min 5 sec) 
Heartbeat CPU 0 instructions: 610000001 cycles: 1174066397 heartbeat IPC: 0.379714 cumulative IPC: 0.380922 (Simulation time: 3 hr 37 min 13 sec) 
Heartbeat CPU 2 instructions: 1070000000 cycles: 1176032041 heartbeat IPC: 0.625382 cumulative IPC: 0.764378 (Simulation time: 3 hr 37 min 33 sec) 
Heartbeat CPU 1 instructions: 1470000003 cycles: 1178960197 heartbeat IPC: 1.1088 cumulative IPC: 1.1115 (Simulation time: 3 hr 38 min 1 sec) 
Heartbeat CPU 3 instructions: 1360000000 cycles: 1182445608 heartbeat IPC: 1.0871 cumulative IPC: 1.08712 (Simulation time: 3 hr 38 min 34 sec) 
Heartbeat CPU 1 instructions: 1480000000 cycles: 1188139993 heartbeat IPC: 1.08935 cumulative IPC: 1.11131 (Simulation time: 3 hr 39 min 29 sec) 
Heartbeat CPU 3 instructions: 1370000002 cycles: 1191629131 heartbeat IPC: 1.08891 cumulative IPC: 1.08713 (Simulation time: 3 hr 40 min 3 sec) 
Heartbeat CPU 2 instructions: 1080000000 cycles: 1192291489 heartbeat IPC: 0.615027 cumulative IPC: 0.762123 (Simulation time: 3 hr 40 min 10 sec) 
Heartbeat CPU 1 instructions: 1490000000 cycles: 1197129754 heartbeat IPC: 1.11238 cumulative IPC: 1.11132 (Simulation time: 3 hr 40 min 57 sec) 
Heartbeat CPU 3 instructions: 1380000000 cycles: 1200831017 heartbeat IPC: 1.08673 cumulative IPC: 1.08713 (Simulation time: 3 hr 41 min 33 sec) 
Heartbeat CPU 0 instructions: 620000000 cycles: 1205443268 heartbeat IPC: 0.318706 cumulative IPC: 0.379131 (Simulation time: 3 hr 42 min 17 sec) 
Heartbeat CPU 1 instructions: 1500000000 cycles: 1206164424 heartbeat IPC: 1.10685 cumulative IPC: 1.11128 (Simulation time: 3 hr 42 min 24 sec) 
Heartbeat CPU 2 instructions: 1090000003 cycles: 1208201876 heartbeat IPC: 0.62852 cumulative IPC: 0.760177 (Simulation time: 3 hr 42 min 44 sec) 
Heartbeat CPU 3 instructions: 1390000000 cycles: 1210047087 heartbeat IPC: 1.08506 cumulative IPC: 1.08711 (Simulation time: 3 hr 43 min 1 sec) 
Heartbeat CPU 1 instructions: 1510000001 cycles: 1215142950 heartbeat IPC: 1.11377 cumulative IPC: 1.1113 (Simulation time: 3 hr 43 min 52 sec) 
Heartbeat CPU 3 instructions: 1400000000 cycles: 1219264195 heartbeat IPC: 1.08494 cumulative IPC: 1.0871 (Simulation time: 3 hr 44 min 31 sec) 
Heartbeat CPU 1 instructions: 1520000000 cycles: 1224189108 heartbeat IPC: 1.10544 cumulative IPC: 1.11126 (Simulation time: 3 hr 45 min 19 sec) 
Heartbeat CPU 2 instructions: 1100000000 cycles: 1224604080 heartbeat IPC: 0.609674 cumulative IPC: 0.757952 (Simulation time: 3 hr 45 min 23 sec) 
Heartbeat CPU 3 instructions: 1410000002 cycles: 1228460106 heartbeat IPC: 1.08744 cumulative IPC: 1.0871 (Simulation time: 3 hr 46 min 1 sec) 
Heartbeat CPU 1 instructions: 1530000003 cycles: 1233181119 heartbeat IPC: 1.1121 cumulative IPC: 1.11126 (Simulation time: 3 hr 46 min 48 sec) 
Heartbeat CPU 0 instructions: 630000000 cycles: 1236052582 heartbeat IPC: 0.326698 cumulative IPC: 0.377699 (Simulation time: 3 hr 47 min 23 sec) 
Heartbeat CPU 3 instructions: 1420000000 cycles: 1237694085 heartbeat IPC: 1.08296 cumulative IPC: 1.08706 (Simulation time: 3 hr 47 min 41 sec) 
Heartbeat CPU 2 instructions: 1110000001 cycles: 1240939270 heartbeat IPC: 0.612175 cumulative IPC: 0.755836 (Simulation time: 3 hr 48 min 17 sec) 
Heartbeat CPU 1 instructions: 1540000000 cycles: 1242190807 heartbeat IPC: 1.10992 cumulative IPC: 1.11125 (Simulation time: 3 hr 48 min 31 sec) 
Heartbeat CPU 3 instructions: 1430000001 cycles: 1246898472 heartbeat IPC: 1.08644 cumulative IPC: 1.08706 (Simulation time: 3 hr 49 min 21 sec) 
Heartbeat CPU 1 instructions: 1550000002 cycles: 1251313167 heartbeat IPC: 1.09621 cumulative IPC: 1.11113 (Simulation time: 3 hr 50 min 12 sec) 
Heartbeat CPU 3 instructions: 1440000000 cycles: 1256095036 heartbeat IPC: 1.08736 cumulative IPC: 1.08706 (Simulation time: 3 hr 51 min 1 sec) 
Heartbeat CPU 2 instructions: 1120000000 cycles: 1256989447 heartbeat IPC: 0.623046 cumulative IPC: 0.753969 (Simulation time: 3 hr 51 min 10 sec) 
Heartbeat CPU 1 instructions: 1560000000 cycles: 1260396039 heartbeat IPC: 1.10097 cumulative IPC: 1.11105 (Simulation time: 3 hr 51 min 51 sec) 
Heartbeat CPU 0 instructions: 640000000 cycles: 1263786864 heartbeat IPC: 0.360565 cumulative IPC: 0.377285 (Simulation time: 3 hr 52 min 26 sec) 
Heartbeat CPU 3 instructions: 1450000000 cycles: 1265274990 heartbeat IPC: 1.08933 cumulative IPC: 1.08708 (Simulation time: 3 hr 52 min 42 sec) 
Heartbeat CPU 1 instructions: 1570000000 cycles: 1269394502 heartbeat IPC: 1.1113 cumulative IPC: 1.11105 (Simulation time: 3 hr 53 min 27 sec) 
Heartbeat CPU 2 instructions: 1130000002 cycles: 1273538817 heartbeat IPC: 0.604253 cumulative IPC: 0.75183 (Simulation time: 3 hr 54 min 10 sec) 
Heartbeat CPU 3 instructions: 1460000000 cycles: 1274491721 heartbeat IPC: 1.08498 cumulative IPC: 1.08706 (Simulation time: 3 hr 54 min 22 sec) 
Heartbeat CPU 1 instructions: 1580000000 cycles: 1278390750 heartbeat IPC: 1.11157 cumulative IPC: 1.11106 (Simulation time: 3 hr 55 min 2 sec) 
Heartbeat CPU 3 instructions: 1470000001 cycles: 1283702011 heartbeat IPC: 1.08574 cumulative IPC: 1.08705 (Simulation time: 3 hr 55 min 58 sec) 
Heartbeat CPU 1 instructions: 1590000003 cycles: 1287409270 heartbeat IPC: 1.10883 cumulative IPC: 1.11104 (Simulation time: 3 hr 56 min 39 sec) 
Heartbeat CPU 2 instructions: 1140000000 cycles: 1289697311 heartbeat IPC: 0.618869 cumulative IPC: 0.75 (Simulation time: 3 hr 57 min 3 sec) 
Heartbeat CPU 0 instructions: 650000000 cycles: 1292419408 heartbeat IPC: 0.349253 cumulative IPC: 0.376603 (Simulation time: 3 hr 57 min 30 sec) 
Heartbeat CPU 3 instructions: 1480000000 cycles: 1292906410 heartbeat IPC: 1.08644 cumulative IPC: 1.08705 (Simulation time: 3 hr 57 min 34 sec) 
Heartbeat CPU 1 instructions: 1600000000 cycles: 1296480419 heartbeat IPC: 1.1024 cumulative IPC: 1.11097 (Simulation time: 3 hr 58 min 9 sec) 
Heartbeat CPU 3 instructions: 1490000000 cycles: 1302108121 heartbeat IPC: 1.08675 cumulative IPC: 1.08705 (Simulation time: 3 hr 59 min 4 sec) 
Heartbeat CPU 2 instructions: 1150000001 cycles: 1305666882 heartbeat IPC: 0.626191 cumulative IPC: 0.748339 (Simulation time: 3 hr 59 min 40 sec) 
Heartbeat CPU 1 instructions: 1610000001 cycles: 1305756322 heartbeat IPC: 1.07806 cumulative IPC: 1.11072 (Simulation time: 3 hr 59 min 41 sec) 
Heartbeat CPU 3 instructions: 1500000000 cycles: 1311334987 heartbeat IPC: 1.08379 cumulative IPC: 1.08702 (Simulation time: 4 hr 0 min 36 sec) 
Heartbeat CPU 1 instructions: 1620000000 cycles: 1314780949 heartbeat IPC: 1.10808 cumulative IPC: 1.1107 (Simulation time: 4 hr 1 min 10 sec) 
Heartbeat CPU 0 instructions: 660000000 cycles: 1319045926 heartbeat IPC: 0.375565 cumulative IPC: 0.37658 (Simulation time: 4 hr 1 min 51 sec) 
Heartbeat CPU 3 instructions: 1510000001 cycles: 1320536126 heartbeat IPC: 1.08682 cumulative IPC: 1.08702 (Simulation time: 4 hr 2 min 6 sec) 
Heartbeat CPU 2 instructions: 1160000000 cycles: 1321723758 heartbeat IPC: 0.622786 cumulative IPC: 0.746668 (Simulation time: 4 hr 2 min 18 sec) 
Heartbeat CPU 1 instructions: 1630000001 cycles: 1323822543 heartbeat IPC: 1.106 cumulative IPC: 1.11066 (Simulation time: 4 hr 2 min 38 sec) 
Heartbeat CPU 3 instructions: 1520000000 cycles: 1329741396 heartbeat IPC: 1.08633 cumulative IPC: 1.08701 (Simulation time: 4 hr 3 min 36 sec) 
Heartbeat CPU 1 instructions: 1640000000 cycles: 1332877889 heartbeat IPC: 1.10432 cumulative IPC: 1.11062 (Simulation time: 4 hr 4 min 7 sec) 
Heartbeat CPU 2 instructions: 1170000001 cycles: 1337976562 heartbeat IPC: 0.615278 cumulative IPC: 0.744921 (Simulation time: 4 hr 4 min 57 sec) 
Heartbeat CPU 3 instructions: 1530000002 cycles: 1338944619 heartbeat IPC: 1.08658 cumulative IPC: 1.08701 (Simulation time: 4 hr 5 min 6 sec) 
Heartbeat CPU 1 instructions: 1650000001 cycles: 1342075638 heartbeat IPC: 1.08722 cumulative IPC: 1.11044 (Simulation time: 4 hr 5 min 36 sec) 
Heartbeat CPU 0 instructions: 670000003 cycles: 1345373597 heartbeat IPC: 0.379829 cumulative IPC: 0.37665 (Simulation time: 4 hr 6 min 8 sec) 
Heartbeat CPU 3 instructions: 1540000000 cycles: 1348137560 heartbeat IPC: 1.08779 cumulative IPC: 1.08702 (Simulation time: 4 hr 6 min 35 sec) 
Heartbeat CPU 1 instructions: 1660000000 cycles: 1351244997 heartbeat IPC: 1.09059 cumulative IPC: 1.11029 (Simulation time: 4 hr 7 min 6 sec) 
Heartbeat CPU 2 instructions: 1180000000 cycles: 1354696324 heartbeat IPC: 0.598095 cumulative IPC: 0.74294 (Simulation time: 4 hr 7 min 39 sec) 
Heartbeat CPU 3 instructions: 1550000000 cycles: 1357350580 heartbeat IPC: 1.08542 cumulative IPC: 1.087 (Simulation time: 4 hr 8 min 4 sec) 
Heartbeat CPU 1 instructions: 1670000000 cycles: 1360339710 heartbeat IPC: 1.09954 cumulative IPC: 1.11021 (Simulation time: 4 hr 8 min 31 sec) 
Heartbeat CPU 3 instructions: 1560000000 cycles: 1366563638 heartbeat IPC: 1.08542 cumulative IPC: 1.08699 (Simulation time: 4 hr 9 min 33 sec) 
Heartbeat CPU 1 instructions: 1680000000 cycles: 1369690167 heartbeat IPC: 1.06947 cumulative IPC: 1.10991 (Simulation time: 4 hr 10 min 6 sec) 
Heartbeat CPU 2 instructions: 1190000003 cycles: 1370695959 heartbeat IPC: 0.625014 cumulative IPC: 0.741437 (Simulation time: 4 hr 10 min 16 sec) 
Heartbeat CPU 0 instructions: 680000000 cycles: 1371645161 heartbeat IPC: 0.38064 cumulative IPC: 0.376733 (Simulation time: 4 hr 10 min 25 sec) 
Heartbeat CPU 3 instructions: 1570000000 cycles: 1375770484 heartbeat IPC: 1.08615 cumulative IPC: 1.08699 (Simulation time: 4 hr 11 min 5 sec) 
Heartbeat CPU 1 instructions: 1690000002 cycles: 1378805087 heartbeat IPC: 1.0971 cumulative IPC: 1.10982 (Simulation time: 4 hr 11 min 35 sec) 
Heartbeat CPU 3 instructions: 1580000000 cycles: 1384992547 heartbeat IPC: 1.08436 cumulative IPC: 1.08697 (Simulation time: 4 hr 12 min 34 sec) 
Heartbeat CPU 2 instructions: 1200000000 cycles: 1387142517 heartbeat IPC: 0.60803 cumulative IPC: 0.739712 (Simulation time: 4 hr 12 min 54 sec) 
Heartbeat CPU 1 instructions: 1700000000 cycles: 1387967709 heartbeat IPC: 1.09139 cumulative IPC: 1.10968 (Simulation time: 4 hr 13 min 2 sec) 
Heartbeat CPU 3 instructions: 1590000000 cycles: 1394181398 heartbeat IPC: 1.08828 cumulative IPC: 1.08698 (Simulation time: 4 hr 13 min 59 sec) 
Heartbeat CPU 1 instructions: 1710000000 cycles: 1397112686 heartbeat IPC: 1.0935 cumulative IPC: 1.10957 (Simulation time: 4 hr 14 min 27 sec) 
Heartbeat CPU 0 instructions: 690000001 cycles: 1397850617 heartbeat IPC: 0.3816 cumulative IPC: 0.376833 (Simulation time: 4 hr 14 min 34 sec) 
Heartbeat CPU 2 instructions: 1210000000 cycles: 1403091867 heartbeat IPC: 0.626985 cumulative IPC: 0.738316 (Simulation time: 4 hr 15 min 25 sec) 
Heartbeat CPU 3 instructions: 1600000000 cycles: 1403379645 heartbeat IPC: 1.08716 cumulative IPC: 1.08698 (Simulation time: 4 hr 15 min 27 sec) 
Heartbeat CPU 1 instructions: 1720000000 cycles: 1406081600 heartbeat IPC: 1.11496 cumulative IPC: 1.10961 (Simulation time: 4 hr 15 min 53 sec) 
Heartbeat CPU 3 instructions: 1610000003 cycles: 1412572415 heartbeat IPC: 1.08781 cumulative IPC: 1.08698 (Simulation time: 4 hr 16 min 57 sec) 
Heartbeat CPU 1 instructions: 1730000001 cycles: 1415031787 heartbeat IPC: 1.1173 cumulative IPC: 1.10966 (Simulation time: 4 hr 17 min 21 sec) 
Heartbeat CPU 2 instructions: 1220000000 cycles: 1419312092 heartbeat IPC: 0.616514 cumulative IPC: 0.736801 (Simulation time: 4 hr 18 min 3 sec) 
Heartbeat CPU 3 instructions: 1620000000 cycles: 1421766483 heartbeat IPC: 1.08766 cumulative IPC: 1.08699 (Simulation time: 4 hr 18 min 27 sec) 
Heartbeat CPU 1 instructions: 1740000000 cycles: 1424016325 heartbeat IPC: 1.11302 cumulative IPC: 1.10968 (Simulation time: 4 hr 18 min 49 sec) 
Heartbeat CPU 0 instructions: 700000000 cycles: 1424151018 heartbeat IPC: 0.380222 cumulative IPC: 0.376901 (Simulation time: 4 hr 18 min 51 sec) 
Heartbeat CPU 3 instructions: 1630000001 cycles: 1430984813 heartbeat IPC: 1.0848 cumulative IPC: 1.08697 (Simulation time: 4 hr 19 min 59 sec) 
Heartbeat CPU 1 instructions: 1750000001 cycles: 1432793315 heartbeat IPC: 1.13934 cumulative IPC: 1.10988 (Simulation time: 4 hr 20 min 16 sec) 
Heartbeat CPU 2 instructions: 1230000002 cycles: 1435219246 heartbeat IPC: 0.628648 cumulative IPC: 0.735497 (Simulation time: 4 hr 20 min 40 sec) 
Heartbeat CPU 3 instructions: 1640000000 cycles: 1440196356 heartbeat IPC: 1.08559 cumulative IPC: 1.08696 (Simulation time: 4 hr 21 min 29 sec) 
Heartbeat CPU 1 instructions: 1760000000 cycles: 1441596622 heartbeat IPC: 1.13594 cumulative IPC: 1.11005 (Simulation time: 4 hr 21 min 42 sec) 
Heartbeat CPU 3 instructions: 1650000003 cycles: 1449408521 heartbeat IPC: 1.08552 cumulative IPC: 1.08695 (Simulation time: 4 hr 22 min 59 sec) 
Heartbeat CPU 0 instructions: 710000001 cycles: 1450293473 heartbeat IPC: 0.38252 cumulative IPC: 0.377011 (Simulation time: 4 hr 23 min 8 sec) 
Heartbeat CPU 1 instructions: 1770000001 cycles: 1450427253 heartbeat IPC: 1.13242 cumulative IPC: 1.1102 (Simulation time: 4 hr 23 min 9 sec) 
Heartbeat CPU 2 instructions: 1240000000 cycles: 1451733094 heartbeat IPC: 0.605552 cumulative IPC: 0.733891 (Simulation time: 4 hr 23 min 22 sec) 
Heartbeat CPU 3 instructions: 1660000000 cycles: 1458605329 heartbeat IPC: 1.08733 cumulative IPC: 1.08696 (Simulation time: 4 hr 24 min 28 sec) 
Heartbeat CPU 1 instructions: 1780000000 cycles: 1459191586 heartbeat IPC: 1.14099 cumulative IPC: 1.1104 (Simulation time: 4 hr 24 min 33 sec) 
Heartbeat CPU 3 instructions: 1670000003 cycles: 1467803067 heartbeat IPC: 1.08722 cumulative IPC: 1.08696 (Simulation time: 4 hr 25 min 52 sec) 
Heartbeat CPU 1 instructions: 1790000001 cycles: 1467975217 heartbeat IPC: 1.13848 cumulative IPC: 1.11058 (Simulation time: 4 hr 25 min 53 sec) 
Heartbeat CPU 2 instructions: 1250000000 cycles: 1468707897 heartbeat IPC: 0.589108 cumulative IPC: 0.732075 (Simulation time: 4 hr 26 min 0 sec) 
Heartbeat CPU 0 instructions: 720000000 cycles: 1476365088 heartbeat IPC: 0.383559 cumulative IPC: 0.377136 (Simulation time: 4 hr 27 min 14 sec) 
Heartbeat CPU 1 instructions: 1800000000 cycles: 1476754913 heartbeat IPC: 1.13899 cumulative IPC: 1.11077 (Simulation time: 4 hr 27 min 18 sec) 
[...]
Heartbeat CPU 1 instructions: 3100000000 cycles: 2646133896 heartbeat IPC: 1.13157 cumulative IPC: 1.1112 (Simulation time: 7 hr 29 min 53 sec) 
Heartbeat CPU 3 instructions: 2950000000 cycles: 2646764496 heartbeat IPC: 1.08717 cumulative IPC: 1.08637 (Simulation time: 7 hr 29 min 58 sec) 
Heartbeat CPU 2 instructions: 1950000002 cycles: 2652358998 heartbeat IPC: 0.797835 cumulative IPC: 0.666437 (Simulation time: 7 hr 30 min 51 sec) 
Heartbeat CPU 1 instructions: 3110000000 cycles: 2654971793 heartbeat IPC: 1.13149 cumulative IPC: 1.11127 (Simulation time: 7 hr 31 min 15 sec) 
Heartbeat CPU 3 instructions: 2960000000 cycles: 2655973509 heartbeat IPC: 1.08589 cumulative IPC: 1.08637 (Simulation time: 7 hr 31 min 24 sec) 
Heartbeat CPU 1 instructions: 3120000000 cycles: 2663822731 heartbeat IPC: 1.12982 cumulative IPC: 1.11133 (Simulation time: 7 hr 32 min 31 sec) 
Heartbeat CPU 0 instructions: 1170000001 cycles: 2664080112 heartbeat IPC: 0.377452 cumulative IPC: 0.377948 (Simulation time: 7 hr 32 min 33 sec) 
Heartbeat CPU 3 instructions: 2970000003 cycles: 2665209359 heartbeat IPC: 1.08274 cumulative IPC: 1.08636 (Simulation time: 7 hr 32 min 43 sec) 
Heartbeat CPU 2 instructions: 1960000000 cycles: 2667124245 heartbeat IPC: 0.677266 cumulative IPC: 0.666499 (Simulation time: 7 hr 33 min 0 sec) 
Heartbeat CPU 1 instructions: 3130000003 cycles: 2672693481 heartbeat IPC: 1.1273 cumulative IPC: 1.11139 (Simulation time: 7 hr 33 min 48 sec) 
Heartbeat CPU 3 instructions: 2980000000 cycles: 2674411063 heartbeat IPC: 1.08675 cumulative IPC: 1.08636 (Simulation time: 7 hr 34 min 3 sec) 
Heartbeat CPU 1 instructions: 3140000000 cycles: 2681390696 heartbeat IPC: 1.14979 cumulative IPC: 1.11152 (Simulation time: 7 hr 35 min 3 sec) 
Heartbeat CPU 2 instructions: 1970000000 cycles: 2683496691 heartbeat IPC: 0.610782 cumulative IPC: 0.666144 (Simulation time: 7 hr 35 min 22 sec) 
Heartbeat CPU 3 instructions: 2990000001 cycles: 2683615924 heartbeat IPC: 1.08638 cumulative IPC: 1.08636 (Simulation time: 7 hr 35 min 23 sec) 
Heartbeat CPU 1 instructions: 3150000003 cycles: 2689981730 heartbeat IPC: 1.164 cumulative IPC: 1.11169 (Simulation time: 7 hr 36 min 18 sec) 
Heartbeat CPU 0 instructions: 1180000000 cycles: 2690433256 heartbeat IPC: 0.379461 cumulative IPC: 0.377964 (Simulation time: 7 hr 36 min 21 sec) 
Heartbeat CPU 3 instructions: 3000000000 cycles: 2692826358 heartbeat IPC: 1.08573 cumulative IPC: 1.08636 (Simulation time: 7 hr 36 min 44 sec) 
Heartbeat CPU 1 instructions: 3160000000 cycles: 2699927147 heartbeat IPC: 1.00549 cumulative IPC: 1.11129 (Simulation time: 7 hr 37 min 47 sec) 
Heartbeat CPU 2 instructions: 1980000000 cycles: 2701860316 heartbeat IPC: 0.544555 cumulative IPC: 0.665281 (Simulation time: 7 hr 38 min 3 sec) 
Heartbeat CPU 3 instructions: 3010000002 cycles: 2702085723 heartbeat IPC: 1.07999 cumulative IPC: 1.08633 (Simulation time: 7 hr 38 min 5 sec) 
Heartbeat CPU 1 instructions: 3170000003 cycles: 2708717503 heartbeat IPC: 1.13761 cumulative IPC: 1.11138 (Simulation time: 7 hr 39 min 1 sec) 
Heartbeat CPU 3 instructions: 3020000000 cycles: 2711300067 heartbeat IPC: 1.08526 cumulative IPC: 1.08633 (Simulation time: 7 hr 39 min 23 sec) 
Heartbeat CPU 0 instructions: 1190000000 cycles: 2717337652 heartbeat IPC: 0.371686 cumulative IPC: 0.377899 (Simulation time: 7 hr 40 min 15 sec) 
Heartbeat CPU 1 instructions: 3180000000 cycles: 2717567962 heartbeat IPC: 1.12988 cumulative IPC: 1.11144 (Simulation time: 7 hr 40 min 17 sec) 
Heartbeat CPU 2 instructions: 1990000000 cycles: 2720339161 heartbeat IPC: 0.541159 cumulative IPC: 0.6644 (Simulation time: 7 hr 40 min 40 sec) 
Heartbeat CPU 3 instructions: 3030000000 cycles: 2720476130 heartbeat IPC: 1.08979 cumulative IPC: 1.08634 (Simulation time: 7 hr 40 min 42 sec) 
Heartbeat CPU 1 instructions: 3190000001 cycles: 2726402205 heartbeat IPC: 1.13196 cumulative IPC: 1.11151 (Simulation time: 7 hr 41 min 32 sec) 
Heartbeat CPU 3 instructions: 3040000000 cycles: 2729679441 heartbeat IPC: 1.08657 cumulative IPC: 1.08634 (Simulation time: 7 hr 42 min 0 sec) 
Heartbeat CPU 1 instructions: 3200000000 cycles: 2735227997 heartbeat IPC: 1.13304 cumulative IPC: 1.11158 (Simulation time: 7 hr 42 min 46 sec) 
*** Reached end of trace for Core: 2 Repeating trace: /scratch/user/djimenez/champsim-traces/speccpu2017/xz/657.xz_s/657.xz_s-2302B.champsimtrace.xz
Heartbeat CPU 2 instructions: 2000000000 cycles: 2738820719 heartbeat IPC: 0.54108 cumulative IPC: 0.663532 (Simulation time: 7 hr 43 min 17 sec) 
Heartbeat CPU 3 instructions: 3050000000 cycles: 2738886342 heartbeat IPC: 1.08614 cumulative IPC: 1.08634 (Simulation time: 7 hr 43 min 17 sec) 
Heartbeat CPU 0 instructions: 1200000000 cycles: 2743627951 heartbeat IPC: 0.380368 cumulative IPC: 0.377924 (Simulation time: 7 hr 43 min 58 sec) 
Heartbeat CPU 1 instructions: 3210000000 cycles: 2744072682 heartbeat IPC: 1.13062 cumulative IPC: 1.11164 (Simulation time: 7 hr 44 min 2 sec) 
Heartbeat CPU 3 instructions: 3060000000 cycles: 2748087977 heartbeat IPC: 1.08676 cumulative IPC: 1.08634 (Simulation time: 7 hr 44 min 37 sec) 
Heartbeat CPU 1 instructions: 3220000000 cycles: 2752904423 heartbeat IPC: 1.13228 cumulative IPC: 1.11171 (Simulation time: 7 hr 45 min 20 sec) 
Heartbeat CPU 2 instructions: 2010000002 cycles: 2754479245 heartbeat IPC: 0.63863 cumulative IPC: 0.663384 (Simulation time: 7 hr 45 min 34 sec) 
Heartbeat CPU 3 instructions: 3070000001 cycles: 2757269468 heartbeat IPC: 1.08915 cumulative IPC: 1.08635 (Simulation time: 7 hr 45 min 58 sec) 
Finished CPU 0 instructions: 1000000000 cycles: 2645862242 cumulative IPC: 0.377949 (Simulation time: 7 hr 46 min 34 sec) 

CPU 0 Branch Prediction Accuracy: 96.342% MPKI: 8.53161

CPU 1 Branch Prediction Accuracy: 91.9365% MPKI: 11.1309

CPU 2 Branch Prediction Accuracy: 90.6638% MPKI: 12.335

CPU 3 Branch Prediction Accuracy: 99.9818% MPKI: 0.00121871

ChampSim completed all CPUs

Total Simulation Statistics (not including warmup)

CPU 0 cumulative IPC: 0.377949 instructions: 1000000000 cycles: 2645862242
L1D TOTAL     ACCESS:  308181328  HIT:  280963417  MISS:   27217911
L1D LOAD      ACCESS:  211120048  HIT:  183910497  MISS:   27209551
L1D RFO       ACCESS:   97061280  HIT:   97052920  MISS:       8360
L1D PREFETCH  ACCESS:          0  HIT:          0  MISS:          0
L1D WRITEBACK ACCESS:          0  HIT:          0  MISS:          0
L1I TOTAL     ACCESS:  250178761  HIT:  250178761  MISS:          0
L1I LOAD      ACCESS:  250178761  HIT:  250178761  MISS:          0
L1I RFO       ACCESS:          0  HIT:          0  MISS:          0
L1I PREFETCH  ACCESS:          0  HIT:          0  MISS:          0
L1I WRITEBACK ACCESS:          0  HIT:          0  MISS:          0
L2C TOTAL     ACCESS:   42955062  HIT:   24895399  MISS:   18059663
L2C LOAD      ACCESS:   27209551  HIT:   24782537  MISS:    2427014
L2C RFO       ACCESS:       8360  HIT:       1534  MISS:       6826
L2C PREFETCH  ACCESS:   15672657  HIT:      46834  MISS:   15625823
L2C WRITEBACK ACCESS:      64494  HIT:      64494  MISS:          0

L2C Best-offset prefetcher final stats
LLC TOTAL     ACCESS:   18083505  HIT:     140678  MISS:   17942827
LLC LOAD      ACCESS:    1780458  HIT:      75569  MISS:    1704889
LLC RFO       ACCESS:       6826  HIT:        600  MISS:       6226
LLC PREFETCH  ACCESS:   16272384  HIT:      40673  MISS:   16231711
LLC WRITEBACK ACCESS:      23837  HIT:      23836  MISS:          1

CPU 1 cumulative IPC: 1.11178 instructions: 2941617098 cycles: 2645862242
L1D TOTAL     ACCESS:  510980120  HIT:  510382460  MISS:     597660
L1D LOAD      ACCESS:  400548922  HIT:  400440090  MISS:     108832
L1D RFO       ACCESS:  110431198  HIT:  109942370  MISS:     488828
L1D PREFETCH  ACCESS:          0  HIT:          0  MISS:          0
L1D WRITEBACK ACCESS:          0  HIT:          0  MISS:          0
L1I TOTAL     ACCESS:  715550224  HIT:  715550224  MISS:          0
L1I LOAD      ACCESS:  715550224  HIT:  715550224  MISS:          0
L1I RFO       ACCESS:          0  HIT:          0  MISS:          0
L1I PREFETCH  ACCESS:          0  HIT:          0  MISS:          0
L1I WRITEBACK ACCESS:          0  HIT:          0  MISS:          0
L2C TOTAL     ACCESS:    1180159  HIT:     615418  MISS:     564741
L2C LOAD      ACCESS:     108832  HIT:     106974  MISS:       1858
L2C RFO       ACCESS:     488828  HIT:      19251  MISS:     469577
L2C PREFETCH  ACCESS:      92698  HIT:         69  MISS:      92629
L2C WRITEBACK ACCESS:     489801  HIT:     489124  MISS:        677

L2C Best-offset prefetcher final stats
LLC TOTAL     ACCESS:    1034240  HIT:     252360  MISS:     781880
LLC LOAD      ACCESS:       1809  HIT:          0  MISS:       1809
LLC RFO       ACCESS:     469577  HIT:        179  MISS:     469398
LLC PREFETCH  ACCESS:      92678  HIT:          0  MISS:      92678
LLC WRITEBACK ACCESS:     470176  HIT:     252181  MISS:     217995

CPU 2 cumulative IPC: 0.663437 instructions: 1755361685 cycles: 2645862242
L1D TOTAL     ACCESS:  366143796  HIT:  352966480  MISS:   13177316
L1D LOAD      ACCESS:  242706315  HIT:  231565197  MISS:   11141118
L1D RFO       ACCESS:  123437481  HIT:  121401283  MISS:    2036198
L1D PREFETCH  ACCESS:          0  HIT:          0  MISS:          0
L1D WRITEBACK ACCESS:          0  HIT:          0  MISS:          0
L1I TOTAL     ACCESS:  332380686  HIT:  332376768  MISS:       3918
L1I LOAD      ACCESS:  332380686  HIT:  332376768  MISS:       3918
L1I RFO       ACCESS:          0  HIT:          0  MISS:          0
L1I PREFETCH  ACCESS:          0  HIT:          0  MISS:          0
L1I WRITEBACK ACCESS:          0  HIT:          0  MISS:          0
L2C TOTAL     ACCESS:   27992585  HIT:   14297693  MISS:   13694892
L2C LOAD      ACCESS:   11144674  HIT:    4075580  MISS:    7069094
L2C RFO       ACCESS:    2034949  HIT:    1019384  MISS:    1015565
L2C PREFETCH  ACCESS:    6122415  HIT:     557373  MISS:    5565042
L2C WRITEBACK ACCESS:    8690547  HIT:    8645356  MISS:      45191

L2C Best-offset prefetcher final stats
LLC TOTAL     ACCESS:   19448700  HIT:   13001413  MISS:    6447287
LLC LOAD      ACCESS:    7065505  HIT:    3803694  MISS:    3261811
LLC RFO       ACCESS:    1015419  HIT:     553105  MISS:     462314
LLC PREFETCH  ACCESS:    5572998  HIT:    2870576  MISS:    2702422
LLC WRITEBACK ACCESS:    5794778  HIT:    5774038  MISS:      20740

CPU 3 cumulative IPC: 1.08636 instructions: 2874352390 cycles: 2645862242
L1D TOTAL     ACCESS: 1145349555  HIT:  916763168  MISS:  228586387
L1D LOAD      ACCESS:  918621943  HIT:  708979894  MISS:  209642049
L1D RFO       ACCESS:  226727612  HIT:  207783274  MISS:   18944338
L1D PREFETCH  ACCESS:          0  HIT:          0  MISS:          0
L1D WRITEBACK ACCESS:          0  HIT:          0  MISS:          0
L1I TOTAL     ACCESS:  672709087  HIT:  589833730  MISS:   82875357
L1I LOAD      ACCESS:  672709087  HIT:  589833730  MISS:   82875357
L1I RFO       ACCESS:          0  HIT:          0  MISS:          0
L1I PREFETCH  ACCESS:          0  HIT:          0  MISS:          0
L1I WRITEBACK ACCESS:          0  HIT:          0  MISS:          0
L2C TOTAL     ACCESS:  354225459  HIT:  328617324  MISS:   25608135
L2C LOAD      ACCESS:  292501349  HIT:  289870173  MISS:    2631176
L2C RFO       ACCESS:   18929054  HIT:   16636561  MISS:    2292493
L2C PREFETCH  ACCESS:   21702731  HIT:    1049881  MISS:   20652850
L2C WRITEBACK ACCESS:   21092325  HIT:   21060709  MISS:      31616

L2C Best-offset prefetcher final stats
LLC TOTAL     ACCESS:   28578897  HIT:   20976236  MISS:    7602661
LLC LOAD      ACCESS:    2628875  HIT:    2507840  MISS:     121035
LLC RFO       ACCESS:    2141230  HIT:     458649  MISS:    1682581
LLC PREFETCH  ACCESS:   21480430  HIT:   15688018  MISS:    5792412
LLC WRITEBACK ACCESS:    2328362  HIT:    2321729  MISS:       6633

Region of Interest Statistics

CPU 0 cumulative IPC: 0.377949 instructions: 1000000000 cycles: 2645862242
L1D TOTAL     ACCESS:  308181328  HIT:  280963417  MISS:   27217911
L1D LOAD      ACCESS:  211120048  HIT:  183910497  MISS:   27209551
L1D RFO       ACCESS:   97061280  HIT:   97052920  MISS:       8360
L1D PREFETCH  ACCESS:          0  HIT:          0  MISS:          0
L1D WRITEBACK ACCESS:          0  HIT:          0  MISS:          0
L1D PREFETCH  REQUESTED:          0  ISSUED:          0  USEFUL:          0  USELESS:          0
L1I TOTAL     ACCESS:  250178761  HIT:  250178761  MISS:          0
L1I LOAD      ACCESS:  250178761  HIT:  250178761  MISS:          0
L1I RFO       ACCESS:          0  HIT:          0  MISS:          0
L1I PREFETCH  ACCESS:          0  HIT:          0  MISS:          0
L1I WRITEBACK ACCESS:          0  HIT:          0  MISS:          0
L1I PREFETCH  REQUESTED:          0  ISSUED:          0  USEFUL:          0  USELESS:          0
L2C TOTAL     ACCESS:   42955062  HIT:   24895399  MISS:   18059663
L2C LOAD      ACCESS:   27209551  HIT:   24782537  MISS:    2427014
L2C RFO       ACCESS:       8360  HIT:       1534  MISS:       6826
L2C PREFETCH  ACCESS:   15672657  HIT:      46834  MISS:   15625823
L2C WRITEBACK ACCESS:      64494  HIT:      64494  MISS:          0
L2C PREFETCH  REQUESTED:   19758348  ISSUED:   19758348  USEFUL:   18783523  USELESS:     265112
LLC TOTAL     ACCESS:   18083505  HIT:     140678  MISS:   17942827
LLC LOAD      ACCESS:    1780458  HIT:      75569  MISS:    1704889
LLC RFO       ACCESS:       6826  HIT:        600  MISS:       6226
LLC PREFETCH  ACCESS:   16272384  HIT:      40673  MISS:   16231711
LLC WRITEBACK ACCESS:      23837  HIT:      23836  MISS:          1
LLC PREFETCH  REQUESTED:          0  ISSUED:          0  USEFUL:    1421009  USELESS:   27497073
Major fault: 0 Minor fault: 361214

CPU 1 cumulative IPC: 1.11331 instructions: 1000000000 cycles: 898219542
L1D TOTAL     ACCESS:  173511541  HIT:  173310364  MISS:     201177
L1D LOAD      ACCESS:  136236720  HIT:  136200050  MISS:      36670
L1D RFO       ACCESS:   37274821  HIT:   37110314  MISS:     164507
L1D PREFETCH  ACCESS:          0  HIT:          0  MISS:          0
L1D WRITEBACK ACCESS:          0  HIT:          0  MISS:          0
L1D PREFETCH  REQUESTED:          0  ISSUED:          0  USEFUL:          0  USELESS:          0
L1I TOTAL     ACCESS:  243273925  HIT:  243273925  MISS:          0
L1I LOAD      ACCESS:  243273925  HIT:  243273925  MISS:          0
L1I RFO       ACCESS:          0  HIT:          0  MISS:          0
L1I PREFETCH  ACCESS:          0  HIT:          0  MISS:          0
L1I WRITEBACK ACCESS:          0  HIT:          0  MISS:          0
L1I PREFETCH  REQUESTED:          0  ISSUED:          0  USEFUL:          0  USELESS:          0
L2C TOTAL     ACCESS:     397183  HIT:     207316  MISS:     189867
L2C LOAD      ACCESS:      36670  HIT:      36053  MISS:        617
L2C RFO       ACCESS:     164507  HIT:       6619  MISS:     157888
L2C PREFETCH  ACCESS:      31171  HIT:         21  MISS:      31150
L2C WRITEBACK ACCESS:     164835  HIT:     164623  MISS:        212
L2C PREFETCH  REQUESTED:     106356  ISSUED:     106356  USEFUL:     105760  USELESS:        340
LLC TOTAL     ACCESS:     347686  HIT:      84267  MISS:     263419
LLC LOAD      ACCESS:        607  HIT:          0  MISS:        607
LLC RFO       ACCESS:     157888  HIT:        101  MISS:     157787
LLC PREFETCH  ACCESS:      31160  HIT:          0  MISS:      31160
LLC WRITEBACK ACCESS:     158031  HIT:      84166  MISS:      73865
LLC PREFETCH  REQUESTED:          0  ISSUED:          0  USEFUL:    1421009  USELESS:   27497073
Major fault: 0 Minor fault: 5541

CPU 2 cumulative IPC: 0.730963 instructions: 1000000000 cycles: 1368059320
L1D TOTAL     ACCESS:  216964935  HIT:  210824712  MISS:    6140223
L1D LOAD      ACCESS:  143104819  HIT:  137879612  MISS:    5225207
L1D RFO       ACCESS:   73860116  HIT:   72945100  MISS:     915016
L1D PREFETCH  ACCESS:          0  HIT:          0  MISS:          0
L1D WRITEBACK ACCESS:          0  HIT:          0  MISS:          0
L1D PREFETCH  REQUESTED:          0  ISSUED:          0  USEFUL:          0  USELESS:          0
L1I TOTAL     ACCESS:  192787849  HIT:  192785645  MISS:       2204
L1I LOAD      ACCESS:  192787849  HIT:  192785645  MISS:       2204
L1I RFO       ACCESS:          0  HIT:          0  MISS:          0
L1I PREFETCH  ACCESS:          0  HIT:          0  MISS:          0
L1I WRITEBACK ACCESS:          0  HIT:          0  MISS:          0
L1I PREFETCH  REQUESTED:          0  ISSUED:          0  USEFUL:          0  USELESS:          0
L2C TOTAL     ACCESS:   12739817  HIT:    7153059  MISS:    5586758
L2C LOAD      ACCESS:    5227219  HIT:    2341096  MISS:    2886123
L2C RFO       ACCESS:     914612  HIT:     499210  MISS:     415402
L2C PREFETCH  ACCESS:    2548118  HIT:     285435  MISS:    2262683
L2C WRITEBACK ACCESS:    4049868  HIT:    4027318  MISS:      22550
L2C PREFETCH  REQUESTED:    7049381  ISSUED:    7049381  USEFUL:     575008  USELESS:    5782038
LLC TOTAL     ACCESS:    7974803  HIT:    5338159  MISS:    2636644
LLC LOAD      ACCESS:    2882621  HIT:    1588809  MISS:    1293812
LLC RFO       ACCESS:     415360  HIT:     170213  MISS:     245147
LLC PREFETCH  ACCESS:    2270535  HIT:    1187693  MISS:    1082842
LLC WRITEBACK ACCESS:    2406287  HIT:    2391444  MISS:      14843
LLC PREFETCH  REQUESTED:          0  ISSUED:          0  USEFUL:    1421009  USELESS:   27497073
Major fault: 0 Minor fault: 12493

CPU 3 cumulative IPC: 1.08715 instructions: 1000000002 cycles: 919837399
L1D TOTAL     ACCESS:  398479994  HIT:  318951747  MISS:   79528247
L1D LOAD      ACCESS:  319600692  HIT:  246663247  MISS:   72937445
L1D RFO       ACCESS:   78879302  HIT:   72288500  MISS:    6590802
L1D PREFETCH  ACCESS:          0  HIT:          0  MISS:          0
L1D WRITEBACK ACCESS:          0  HIT:          0  MISS:          0
L1D PREFETCH  REQUESTED:          0  ISSUED:          0  USEFUL:          0  USELESS:          0
L1I TOTAL     ACCESS:  234044817  HIT:  205212922  MISS:   28831895
L1I LOAD      ACCESS:  234044817  HIT:  205212922  MISS:   28831895
L1I RFO       ACCESS:          0  HIT:          0  MISS:          0
L1I PREFETCH  ACCESS:          0  HIT:          0  MISS:          0
L1I WRITEBACK ACCESS:          0  HIT:          0  MISS:          0
L1I PREFETCH  REQUESTED:          0  ISSUED:          0  USEFUL:          0  USELESS:          0
L2C TOTAL     ACCESS:  123248566  HIT:  114353620  MISS:    8894946
L2C LOAD      ACCESS:  101763760  HIT:  100879042  MISS:     884718
L2C RFO       ACCESS:    6585471  HIT:    5789949  MISS:     795522
L2C PREFETCH  ACCESS:    7561361  HIT:     357777  MISS:    7203584
L2C WRITEBACK ACCESS:    7337974  HIT:    7326852  MISS:      11122
L2C PREFETCH  REQUESTED:   24163170  ISSUED:   24159342  USEFUL:   21715215  USELESS:     441518
LLC TOTAL     ACCESS:    9907390  HIT:    7267971  MISS:    2639419
LLC LOAD      ACCESS:     884101  HIT:     843857  MISS:      40244
LLC RFO       ACCESS:     743538  HIT:     158238  MISS:     585300
LLC PREFETCH  ACCESS:    7471529  HIT:    5459734  MISS:    2011795
LLC WRITEBACK ACCESS:     808222  HIT:     806142  MISS:       2080
LLC PREFETCH  REQUESTED:          0  ISSUED:          0  USEFUL:    1421009  USELESS:   27497073
Major fault: 0 Minor fault: 41749

L2C Best-offset prefetcher final stats

L2C Best-offset prefetcher final stats

L2C Best-offset prefetcher final stats

L2C Best-offset prefetcher final stats

DRAM Statistics
 CHANNEL 0
 RQ ROW_BUFFER_HIT:   10442459  ROW_BUFFER_MISS:    5838144
 DBUS_CONGESTED:   12782988
 WQ ROW_BUFFER_HIT:     320279  ROW_BUFFER_MISS:    2333218  FULL:          0

 CHANNEL 1
 RQ ROW_BUFFER_HIT:   10441995  ROW_BUFFER_MISS:    5803325
 DBUS_CONGESTED:   12782988
 WQ ROW_BUFFER_HIT:     319380  ROW_BUFFER_MISS:    2311753  FULL:          0

 AVG_CONGESTED_CYCLE: 12
