
*** ChampSim Multicore Out-of-Order Simulator ***

Warmup Instructions: 200000000
Simulation Instructions: 1000000000
Number of CPUs: 4
LLC sets: 8192
LLC ways: 16
Off-chip DRAM Size: 8192 MB Channels: 2 Width: 64-bit Data Rate: 1600 MT/s

CPU 0 runs /scratch/user/djimenez/champsim-traces/speccpu2006/xz//482.sphinx3-234B.champsimtrace.xz
CPU 1 runs /scratch/user/djimenez/champsim-traces/speccpu2006/xz//450.soplex-247B.champsimtrace.xz
CPU 2 runs /scratch/user/djimenez/champsim-traces/speccpu2006/xz//481.wrf-1254B.champsimtrace.xz
CPU 3 runs /scratch/user/djimenez/champsim-traces/speccpu2006/xz//454.calculix-460B.champsimtrace.xz
Heartbeat CPU 3 instructions: 10000000 cycles: 3331333 heartbeat IPC: 3.0018 cumulative IPC: 3.0018 (Simulation time: 0 hr 1 min 10 sec) 
Heartbeat CPU 2 instructions: 10000000 cycles: 3586339 heartbeat IPC: 2.78836 cumulative IPC: 2.78836 (Simulation time: 0 hr 1 min 15 sec) 
Heartbeat CPU 0 instructions: 10000003 cycles: 3847851 heartbeat IPC: 2.59885 cumulative IPC: 2.59885 (Simulation time: 0 hr 1 min 21 sec) 
Heartbeat CPU 1 instructions: 10000000 cycles: 6010778 heartbeat IPC: 1.66368 cumulative IPC: 1.66368 (Simulation time: 0 hr 2 min 9 sec) 
Heartbeat CPU 3 instructions: 20000000 cycles: 6552086 heartbeat IPC: 3.10486 cumulative IPC: 3.05246 (Simulation time: 0 hr 2 min 22 sec) 
Heartbeat CPU 2 instructions: 20000000 cycles: 7373917 heartbeat IPC: 2.64021 cumulative IPC: 2.71226 (Simulation time: 0 hr 2 min 40 sec) 
Heartbeat CPU 0 instructions: 20000000 cycles: 7680502 heartbeat IPC: 2.60916 cumulative IPC: 2.604 (Simulation time: 0 hr 2 min 47 sec) 
Heartbeat CPU 3 instructions: 30000001 cycles: 9849352 heartbeat IPC: 3.03282 cumulative IPC: 3.04589 (Simulation time: 0 hr 3 min 35 sec) 
Heartbeat CPU 2 instructions: 30000002 cycles: 11112039 heartbeat IPC: 2.67514 cumulative IPC: 2.69977 (Simulation time: 0 hr 4 min 4 sec) 
Heartbeat CPU 1 instructions: 20000000 cycles: 11159741 heartbeat IPC: 1.94214 cumulative IPC: 1.79216 (Simulation time: 0 hr 4 min 5 sec) 
Heartbeat CPU 0 instructions: 30000000 cycles: 11588800 heartbeat IPC: 2.55866 cumulative IPC: 2.58871 (Simulation time: 0 hr 4 min 16 sec) 
Heartbeat CPU 3 instructions: 40000000 cycles: 13078174 heartbeat IPC: 3.0971 cumulative IPC: 3.05853 (Simulation time: 0 hr 4 min 48 sec) 
Heartbeat CPU 2 instructions: 40000000 cycles: 14854585 heartbeat IPC: 2.67198 cumulative IPC: 2.69277 (Simulation time: 0 hr 5 min 29 sec) 
Heartbeat CPU 0 instructions: 40000000 cycles: 15364814 heartbeat IPC: 2.6483 cumulative IPC: 2.60335 (Simulation time: 0 hr 5 min 42 sec) 
Heartbeat CPU 1 instructions: 30000001 cycles: 16278341 heartbeat IPC: 1.95366 cumulative IPC: 1.84294 (Simulation time: 0 hr 6 min 3 sec) 
Heartbeat CPU 3 instructions: 50000000 cycles: 16332032 heartbeat IPC: 3.07327 cumulative IPC: 3.06147 (Simulation time: 0 hr 6 min 5 sec) 
Heartbeat CPU 2 instructions: 50000001 cycles: 18811578 heartbeat IPC: 2.52717 cumulative IPC: 2.65794 (Simulation time: 0 hr 7 min 0 sec) 
Heartbeat CPU 0 instructions: 50000003 cycles: 19094249 heartbeat IPC: 2.68137 cumulative IPC: 2.61859 (Simulation time: 0 hr 7 min 6 sec) 
Heartbeat CPU 3 instructions: 60000000 cycles: 19586790 heartbeat IPC: 3.07243 cumulative IPC: 3.06329 (Simulation time: 0 hr 7 min 18 sec) 
Heartbeat CPU 1 instructions: 40000000 cycles: 21393993 heartbeat IPC: 1.95478 cumulative IPC: 1.86968 (Simulation time: 0 hr 7 min 59 sec) 
Heartbeat CPU 2 instructions: 60000000 cycles: 22756325 heartbeat IPC: 2.53502 cumulative IPC: 2.63663 (Simulation time: 0 hr 8 min 27 sec) 
Heartbeat CPU 0 instructions: 60000000 cycles: 22862587 heartbeat IPC: 2.65369 cumulative IPC: 2.62437 (Simulation time: 0 hr 8 min 29 sec) 
Heartbeat CPU 3 instructions: 70000003 cycles: 24018752 heartbeat IPC: 2.25634 cumulative IPC: 2.91439 (Simulation time: 0 hr 8 min 56 sec) 
Heartbeat CPU 2 instructions: 70000002 cycles: 26517567 heartbeat IPC: 2.6587 cumulative IPC: 2.63976 (Simulation time: 0 hr 9 min 52 sec) 
Heartbeat CPU 0 instructions: 70000000 cycles: 26538052 heartbeat IPC: 2.72074 cumulative IPC: 2.63772 (Simulation time: 0 hr 9 min 52 sec) 
Heartbeat CPU 1 instructions: 50000001 cycles: 26543406 heartbeat IPC: 1.94197 cumulative IPC: 1.88371 (Simulation time: 0 hr 9 min 53 sec) 
Heartbeat CPU 3 instructions: 80000000 cycles: 28800064 heartbeat IPC: 2.09148 cumulative IPC: 2.77777 (Simulation time: 0 hr 10 min 43 sec) 
Heartbeat CPU 2 instructions: 80000000 cycles: 30004334 heartbeat IPC: 2.86799 cumulative IPC: 2.66628 (Simulation time: 0 hr 11 min 11 sec) 
Heartbeat CPU 0 instructions: 80000000 cycles: 30230309 heartbeat IPC: 2.70837 cumulative IPC: 2.64635 (Simulation time: 0 hr 11 min 16 sec) 
Heartbeat CPU 1 instructions: 60000000 cycles: 31639341 heartbeat IPC: 1.96235 cumulative IPC: 1.89637 (Simulation time: 0 hr 11 min 51 sec) 
Heartbeat CPU 3 instructions: 90000000 cycles: 32384371 heartbeat IPC: 2.78994 cumulative IPC: 2.77912 (Simulation time: 0 hr 12 min 6 sec) 
Heartbeat CPU 2 instructions: 90000000 cycles: 33621066 heartbeat IPC: 2.76493 cumulative IPC: 2.67689 (Simulation time: 0 hr 12 min 34 sec) 
Heartbeat CPU 0 instructions: 90000000 cycles: 33930818 heartbeat IPC: 2.70233 cumulative IPC: 2.65246 (Simulation time: 0 hr 12 min 41 sec) 
Heartbeat CPU 3 instructions: 100000000 cycles: 35567402 heartbeat IPC: 3.14166 cumulative IPC: 2.81156 (Simulation time: 0 hr 13 min 20 sec) 
Heartbeat CPU 1 instructions: 70000000 cycles: 36772964 heartbeat IPC: 1.94794 cumulative IPC: 1.90357 (Simulation time: 0 hr 13 min 50 sec) 
Heartbeat CPU 2 instructions: 100000000 cycles: 37201248 heartbeat IPC: 2.79315 cumulative IPC: 2.68808 (Simulation time: 0 hr 14 min 0 sec) 
Heartbeat CPU 0 instructions: 100000000 cycles: 37634854 heartbeat IPC: 2.69976 cumulative IPC: 2.65711 (Simulation time: 0 hr 14 min 10 sec) 
Heartbeat CPU 3 instructions: 110000000 cycles: 38753232 heartbeat IPC: 3.1389 cumulative IPC: 2.83847 (Simulation time: 0 hr 14 min 33 sec) 
Heartbeat CPU 2 instructions: 110000002 cycles: 40983034 heartbeat IPC: 2.64425 cumulative IPC: 2.68404 (Simulation time: 0 hr 15 min 24 sec) 
Heartbeat CPU 0 instructions: 110000003 cycles: 41369664 heartbeat IPC: 2.67751 cumulative IPC: 2.65895 (Simulation time: 0 hr 15 min 32 sec) 
Heartbeat CPU 3 instructions: 120000000 cycles: 41929745 heartbeat IPC: 3.14811 cumulative IPC: 2.86193 (Simulation time: 0 hr 15 min 45 sec) 
Heartbeat CPU 1 instructions: 80000000 cycles: 41943177 heartbeat IPC: 1.93416 cumulative IPC: 1.90734 (Simulation time: 0 hr 15 min 45 sec) 
Heartbeat CPU 2 instructions: 120000000 cycles: 44716006 heartbeat IPC: 2.67883 cumulative IPC: 2.6836 (Simulation time: 0 hr 16 min 49 sec) 
Heartbeat CPU 3 instructions: 130000001 cycles: 45104957 heartbeat IPC: 3.1494 cumulative IPC: 2.88217 (Simulation time: 0 hr 16 min 57 sec) 
Heartbeat CPU 0 instructions: 120000000 cycles: 45225797 heartbeat IPC: 2.59327 cumulative IPC: 2.65335 (Simulation time: 0 hr 16 min 59 sec) 
Heartbeat CPU 1 instructions: 90000002 cycles: 47160528 heartbeat IPC: 1.91668 cumulative IPC: 1.90838 (Simulation time: 0 hr 17 min 41 sec) 
Heartbeat CPU 3 instructions: 140000000 cycles: 48278646 heartbeat IPC: 3.15091 cumulative IPC: 2.89983 (Simulation time: 0 hr 18 min 7 sec) 
Heartbeat CPU 2 instructions: 130000001 cycles: 48452350 heartbeat IPC: 2.67641 cumulative IPC: 2.68305 (Simulation time: 0 hr 18 min 11 sec) 
Heartbeat CPU 0 instructions: 130000000 cycles: 49020071 heartbeat IPC: 2.63555 cumulative IPC: 2.65197 (Simulation time: 0 hr 18 min 24 sec) 
Heartbeat CPU 3 instructions: 150000000 cycles: 51446913 heartbeat IPC: 3.1563 cumulative IPC: 2.91563 (Simulation time: 0 hr 19 min 19 sec) 
Heartbeat CPU 1 instructions: 100000000 cycles: 52386977 heartbeat IPC: 1.91334 cumulative IPC: 1.90887 (Simulation time: 0 hr 19 min 44 sec) 
Heartbeat CPU 2 instructions: 140000000 cycles: 52403040 heartbeat IPC: 2.5312 cumulative IPC: 2.6716 (Simulation time: 0 hr 19 min 44 sec) 
Heartbeat CPU 0 instructions: 140000000 cycles: 52717691 heartbeat IPC: 2.70444 cumulative IPC: 2.65565 (Simulation time: 0 hr 19 min 52 sec) 
Heartbeat CPU 3 instructions: 160000000 cycles: 54621795 heartbeat IPC: 3.14972 cumulative IPC: 2.92923 (Simulation time: 0 hr 20 min 37 sec) 
Heartbeat CPU 2 instructions: 150000002 cycles: 56359236 heartbeat IPC: 2.52768 cumulative IPC: 2.6615 (Simulation time: 0 hr 21 min 18 sec) 
Heartbeat CPU 0 instructions: 150000001 cycles: 56508703 heartbeat IPC: 2.63782 cumulative IPC: 2.65446 (Simulation time: 0 hr 21 min 22 sec) 
Heartbeat CPU 3 instructions: 170000000 cycles: 57808585 heartbeat IPC: 3.13795 cumulative IPC: 2.94074 (Simulation time: 0 hr 21 min 50 sec) 
Heartbeat CPU 1 instructions: 110000000 cycles: 58602059 heartbeat IPC: 1.60899 cumulative IPC: 1.87707 (Simulation time: 0 hr 22 min 9 sec) 
Heartbeat CPU 2 instructions: 160000000 cycles: 60135227 heartbeat IPC: 2.64831 cumulative IPC: 2.66067 (Simulation time: 0 hr 22 min 43 sec) 
Heartbeat CPU 0 instructions: 160000000 cycles: 60271108 heartbeat IPC: 2.65787 cumulative IPC: 2.65467 (Simulation time: 0 hr 22 min 47 sec) 
Heartbeat CPU 3 instructions: 180000000 cycles: 60989882 heartbeat IPC: 3.14337 cumulative IPC: 2.95131 (Simulation time: 0 hr 23 min 4 sec) 
Heartbeat CPU 2 instructions: 170000000 cycles: 63626799 heartbeat IPC: 2.86404 cumulative IPC: 2.67183 (Simulation time: 0 hr 24 min 5 sec) 
Heartbeat CPU 0 instructions: 170000000 cycles: 64069132 heartbeat IPC: 2.63295 cumulative IPC: 2.65338 (Simulation time: 0 hr 24 min 16 sec) 
Heartbeat CPU 3 instructions: 190000002 cycles: 64173638 heartbeat IPC: 3.14094 cumulative IPC: 2.96072 (Simulation time: 0 hr 24 min 18 sec) 
Heartbeat CPU 1 instructions: 120000000 cycles: 64585946 heartbeat IPC: 1.67115 cumulative IPC: 1.85799 (Simulation time: 0 hr 24 min 28 sec) 
Heartbeat CPU 2 instructions: 180000000 cycles: 67239194 heartbeat IPC: 2.76825 cumulative IPC: 2.67701 (Simulation time: 0 hr 25 min 24 sec) 
Heartbeat CPU 3 instructions: 200000000 cycles: 67423119 heartbeat IPC: 3.07741 cumulative IPC: 2.96634 (Simulation time: 0 hr 25 min 28 sec) 
Heartbeat CPU 0 instructions: 180000000 cycles: 67859593 heartbeat IPC: 2.6382 cumulative IPC: 2.65254 (Simulation time: 0 hr 25 min 38 sec) 
Heartbeat CPU 1 instructions: 130000001 cycles: 69595129 heartbeat IPC: 1.99633 cumulative IPC: 1.86795 (Simulation time: 0 hr 26 min 20 sec) 
Heartbeat CPU 3 instructions: 210000003 cycles: 70784261 heartbeat IPC: 2.97518 cumulative IPC: 0.141274 (Simulation time: 0 hr 26 min 45 sec) 
Heartbeat CPU 2 instructions: 190000002 cycles: 70813015 heartbeat IPC: 2.79813 cumulative IPC: 2.68312 (Simulation time: 0 hr 26 min 46 sec) 
Heartbeat CPU 0 instructions: 190000003 cycles: 71595715 heartbeat IPC: 2.67657 cumulative IPC: 2.65379 (Simulation time: 0 hr 27 min 4 sec) 
Heartbeat CPU 3 instructions: 220000000 cycles: 74101817 heartbeat IPC: 3.01427 cumulative IPC: 0.269899 (Simulation time: 0 hr 28 min 0 sec) 
Heartbeat CPU 2 instructions: 200000000 cycles: 74586947 heartbeat IPC: 2.64976 cumulative IPC: 2.68143 (Simulation time: 0 hr 28 min 10 sec) 
Heartbeat CPU 1 instructions: 140000000 cycles: 74591435 heartbeat IPC: 2.00148 cumulative IPC: 1.87689 (Simulation time: 0 hr 28 min 10 sec) 
Heartbeat CPU 0 instructions: 200000000 cycles: 75324201 heartbeat IPC: 2.68205 cumulative IPC: 2.65519 (Simulation time: 0 hr 28 min 27 sec) 
Heartbeat CPU 3 instructions: 230000000 cycles: 77322168 heartbeat IPC: 3.10525 cumulative IPC: 0.387987 (Simulation time: 0 hr 29 min 14 sec) 
Heartbeat CPU 2 instructions: 210000001 cycles: 78325316 heartbeat IPC: 2.67496 cumulative IPC: 0.127673 (Simulation time: 0 hr 29 min 38 sec) 
Heartbeat CPU 0 instructions: 210000003 cycles: 79050469 heartbeat IPC: 2.68365 cumulative IPC: 0.126502 (Simulation time: 0 hr 29 min 54 sec) 
Heartbeat CPU 1 instructions: 150000002 cycles: 79538192 heartbeat IPC: 2.02153 cumulative IPC: 1.88589 (Simulation time: 0 hr 30 min 5 sec) 
Heartbeat CPU 3 instructions: 240000000 cycles: 80634659 heartbeat IPC: 3.01888 cumulative IPC: 0.496065 (Simulation time: 0 hr 30 min 51 sec) 
Heartbeat CPU 2 instructions: 220000000 cycles: 82063224 heartbeat IPC: 2.67529 cumulative IPC: 0.243715 (Simulation time: 0 hr 32 min 4 sec) 
Heartbeat CPU 0 instructions: 220000000 cycles: 82901902 heartbeat IPC: 2.59644 cumulative IPC: 0.241249 (Simulation time: 0 hr 32 min 44 sec) 
Heartbeat CPU 3 instructions: 250000002 cycles: 83848753 heartbeat IPC: 3.1113 cumulative IPC: 0.596312 (Simulation time: 0 hr 33 min 29 sec) 
Heartbeat CPU 1 instructions: 160000000 cycles: 84425813 heartbeat IPC: 2.04598 cumulative IPC: 1.89515 (Simulation time: 0 hr 33 min 56 sec) 
Heartbeat CPU 2 instructions: 230000000 cycles: 86002170 heartbeat IPC: 2.53875 cumulative IPC: 0.348828 (Simulation time: 0 hr 34 min 48 sec) 
Heartbeat CPU 0 instructions: 230000002 cycles: 86578877 heartbeat IPC: 2.71963 cumulative IPC: 0.346505 (Simulation time: 0 hr 35 min 1 sec) 
Heartbeat CPU 3 instructions: 260000000 cycles: 87105973 heartbeat IPC: 3.0701 cumulative IPC: 0.688816 (Simulation time: 0 hr 35 min 13 sec) 
Heartbeat CPU 1 instructions: 170000000 cycles: 89502647 heartbeat IPC: 1.96973 cumulative IPC: 1.89939 (Simulation time: 0 hr 36 min 8 sec) 
Heartbeat CPU 2 instructions: 240000000 cycles: 89947296 heartbeat IPC: 2.53477 cumulative IPC: 0.444705 (Simulation time: 0 hr 36 min 19 sec) 
Heartbeat CPU 0 instructions: 240000000 cycles: 90263533 heartbeat IPC: 2.71396 cumulative IPC: 0.443147 (Simulation time: 0 hr 36 min 26 sec) 
Heartbeat CPU 3 instructions: 270000003 cycles: 90448312 heartbeat IPC: 2.99192 cumulative IPC: 0.773923 (Simulation time: 0 hr 36 min 30 sec) 
Heartbeat CPU 2 instructions: 250000000 cycles: 93756446 heartbeat IPC: 2.62526 cumulative IPC: 0.533297 (Simulation time: 0 hr 37 min 43 sec) 
Heartbeat CPU 0 instructions: 250000000 cycles: 93950635 heartbeat IPC: 2.71216 cumulative IPC: 0.532194 (Simulation time: 0 hr 37 min 48 sec) 
Heartbeat CPU 1 instructions: 180000000 cycles: 94441636 heartbeat IPC: 2.02471 cumulative IPC: 1.90594 (Simulation time: 0 hr 37 min 58 sec) 
Heartbeat CPU 3 instructions: 280000000 cycles: 95237372 heartbeat IPC: 2.08809 cumulative IPC: 0.840006 (Simulation time: 0 hr 38 min 18 sec) 
Heartbeat CPU 2 instructions: 260000000 cycles: 97243229 heartbeat IPC: 2.86797 cumulative IPC: 0.61701 (Simulation time: 0 hr 39 min 1 sec) 
Heartbeat CPU 0 instructions: 260000000 cycles: 97641608 heartbeat IPC: 2.70931 cumulative IPC: 0.614492 (Simulation time: 0 hr 39 min 10 sec) 
Heartbeat CPU 1 instructions: 190000003 cycles: 99425567 heartbeat IPC: 2.00645 cumulative IPC: 1.91098 (Simulation time: 0 hr 39 min 50 sec) 
Heartbeat CPU 3 instructions: 290000000 cycles: 99837023 heartbeat IPC: 2.17408 cumulative IPC: 0.901469 (Simulation time: 0 hr 39 min 58 sec) 
Heartbeat CPU 2 instructions: 270000003 cycles: 100858814 heartbeat IPC: 2.76581 cumulative IPC: 0.69404 (Simulation time: 0 hr 40 min 19 sec) 
Heartbeat CPU 0 instructions: 270000001 cycles: 101365176 heartbeat IPC: 2.6856 cumulative IPC: 0.690573 (Simulation time: 0 hr 40 min 40 sec) 
Heartbeat CPU 3 instructions: 300000000 cycles: 103018652 heartbeat IPC: 3.14304 cumulative IPC: 0.970698 (Simulation time: 0 hr 42 min 2 sec) 
Heartbeat CPU 1 instructions: 200000000 cycles: 104410551 heartbeat IPC: 2.00602 cumulative IPC: 1.91552 (Simulation time: 0 hr 43 min 11 sec) 

Warmup complete CPU 0 instructions: 278178001 cycles: 104410552 (Simulation time: 0 hr 43 min 11 sec) 
Warmup complete CPU 1 instructions: 200000001 cycles: 104410552 (Simulation time: 0 hr 43 min 11 sec) 
Warmup complete CPU 2 instructions: 279952665 cycles: 104410551 (Simulation time: 0 hr 43 min 11 sec) 
Warmup complete CPU 3 instructions: 304374380 cycles: 104410551 (Simulation time: 0 hr 43 min 11 sec) 

Heartbeat CPU 2 instructions: 280000000 cycles: 104489655 heartbeat IPC: 2.75418 cumulative IPC: 0.598389 (Simulation time: 0 hr 43 min 12 sec) 
Heartbeat CPU 0 instructions: 280000000 cycles: 107868926 heartbeat IPC: 1.53757 cumulative IPC: 0.526837 (Simulation time: 0 hr 44 min 5 sec) 
Heartbeat CPU 3 instructions: 310000002 cycles: 108885899 heartbeat IPC: 1.70438 cumulative IPC: 1.25702 (Simulation time: 0 hr 44 min 21 sec) 
Heartbeat CPU 3 instructions: 320000000 cycles: 115796302 heartbeat IPC: 1.44709 cumulative IPC: 1.37238 (Simulation time: 0 hr 45 min 22 sec) 
Heartbeat CPU 2 instructions: 290000000 cycles: 115913815 heartbeat IPC: 0.875338 cumulative IPC: 0.873433 (Simulation time: 0 hr 45 min 23 sec) 
Heartbeat CPU 3 instructions: 330000002 cycles: 123854376 heartbeat IPC: 1.24099 cumulative IPC: 1.31793 (Simulation time: 0 hr 46 min 37 sec) 
Heartbeat CPU 2 instructions: 300000000 cycles: 125989031 heartbeat IPC: 0.992535 cumulative IPC: 0.929043 (Simulation time: 0 hr 46 min 55 sec) 
Heartbeat CPU 0 instructions: 290000000 cycles: 129988354 heartbeat IPC: 0.452091 cumulative IPC: 0.462198 (Simulation time: 0 hr 47 min 27 sec) 
Heartbeat CPU 3 instructions: 340000000 cycles: 131597138 heartbeat IPC: 1.29153 cumulative IPC: 1.31041 (Simulation time: 0 hr 47 min 41 sec) 
Heartbeat CPU 2 instructions: 310000001 cycles: 136188821 heartbeat IPC: 0.980412 cumulative IPC: 0.945531 (Simulation time: 0 hr 48 min 27 sec) 
Heartbeat CPU 3 instructions: 350000001 cycles: 138821053 heartbeat IPC: 1.38429 cumulative IPC: 1.32592 (Simulation time: 0 hr 48 min 51 sec) 
Heartbeat CPU 1 instructions: 210000000 cycles: 144260869 heartbeat IPC: 0.250939 cumulative IPC: 0.250939 (Simulation time: 0 hr 49 min 39 sec) 
Heartbeat CPU 3 instructions: 360000000 cycles: 146047620 heartbeat IPC: 1.38378 cumulative IPC: 1.33596 (Simulation time: 0 hr 49 min 53 sec) 
Heartbeat CPU 2 instructions: 320000000 cycles: 148172891 heartbeat IPC: 0.834441 cumulative IPC: 0.91511 (Simulation time: 0 hr 50 min 12 sec) 
Heartbeat CPU 0 instructions: 300000000 cycles: 150724084 heartbeat IPC: 0.482259 cumulative IPC: 0.47118 (Simulation time: 0 hr 50 min 36 sec) 
Heartbeat CPU 3 instructions: 370000000 cycles: 152752420 heartbeat IPC: 1.49147 cumulative IPC: 1.35753 (Simulation time: 0 hr 50 min 55 sec) 
Heartbeat CPU 2 instructions: 330000001 cycles: 159462728 heartbeat IPC: 0.885752 cumulative IPC: 0.909089 (Simulation time: 0 hr 51 min 56 sec) 
Heartbeat CPU 3 instructions: 380000000 cycles: 159754554 heartbeat IPC: 1.42814 cumulative IPC: 1.36646 (Simulation time: 0 hr 51 min 59 sec) 
Heartbeat CPU 3 instructions: 390000002 cycles: 166379088 heartbeat IPC: 1.50954 cumulative IPC: 1.38176 (Simulation time: 0 hr 53 min 1 sec) 
Heartbeat CPU 2 instructions: 340000000 cycles: 170975406 heartbeat IPC: 0.868608 cumulative IPC: 0.902088 (Simulation time: 0 hr 53 min 43 sec) 
Heartbeat CPU 0 instructions: 310000000 cycles: 170983348 heartbeat IPC: 0.493601 cumulative IPC: 0.478003 (Simulation time: 0 hr 53 min 43 sec) 
Heartbeat CPU 3 instructions: 400000000 cycles: 172956321 heartbeat IPC: 1.5204 cumulative IPC: 1.39506 (Simulation time: 0 hr 54 min 2 sec) 
Heartbeat CPU 1 instructions: 220000000 cycles: 174992867 heartbeat IPC: 0.325394 cumulative IPC: 0.283357 (Simulation time: 0 hr 54 min 21 sec) 
Heartbeat CPU 3 instructions: 410000000 cycles: 179631776 heartbeat IPC: 1.49803 cumulative IPC: 1.4042 (Simulation time: 0 hr 54 min 58 sec) 
Heartbeat CPU 2 instructions: 350000000 cycles: 184274406 heartbeat IPC: 0.751936 cumulative IPC: 0.877084 (Simulation time: 0 hr 55 min 39 sec) 
Heartbeat CPU 3 instructions: 420000000 cycles: 186365343 heartbeat IPC: 1.4851 cumulative IPC: 1.41085 (Simulation time: 0 hr 55 min 56 sec) 
Heartbeat CPU 0 instructions: 320000000 cycles: 191940804 heartbeat IPC: 0.477157 cumulative IPC: 0.477801 (Simulation time: 0 hr 56 min 44 sec) 
Heartbeat CPU 3 instructions: 430000003 cycles: 193065135 heartbeat IPC: 1.49258 cumulative IPC: 1.41702 (Simulation time: 0 hr 56 min 54 sec) 
Heartbeat CPU 2 instructions: 360000000 cycles: 196368870 heartbeat IPC: 0.826825 cumulative IPC: 0.870474 (Simulation time: 0 hr 57 min 18 sec) 
Heartbeat CPU 3 instructions: 440000000 cycles: 200953297 heartbeat IPC: 1.26772 cumulative IPC: 1.40482 (Simulation time: 0 hr 57 min 51 sec) 
Heartbeat CPU 1 instructions: 230000000 cycles: 204308116 heartbeat IPC: 0.341119 cumulative IPC: 0.300308 (Simulation time: 0 hr 58 min 15 sec) 
Heartbeat CPU 3 instructions: 450000001 cycles: 208209671 heartbeat IPC: 1.3781 cumulative IPC: 1.40296 (Simulation time: 0 hr 58 min 40 sec) 
Heartbeat CPU 0 instructions: 330000000 cycles: 214259354 heartbeat IPC: 0.448058 cumulative IPC: 0.471758 (Simulation time: 0 hr 59 min 23 sec) 
Heartbeat CPU 3 instructions: 460000000 cycles: 215255176 heartbeat IPC: 1.41934 cumulative IPC: 1.404 (Simulation time: 0 hr 59 min 32 sec) 
Heartbeat CPU 2 instructions: 370000000 cycles: 219797415 heartbeat IPC: 0.42683 cumulative IPC: 0.780395 (Simulation time: 1 hr 0 min 12 sec) 
Heartbeat CPU 3 instructions: 470000001 cycles: 220959116 heartbeat IPC: 1.75317 cumulative IPC: 1.42109 (Simulation time: 1 hr 0 min 23 sec) 
Heartbeat CPU 3 instructions: 480000000 cycles: 226691504 heartbeat IPC: 1.74447 cumulative IPC: 1.43625 (Simulation time: 1 hr 1 min 11 sec) 
Heartbeat CPU 3 instructions: 490000001 cycles: 235073878 heartbeat IPC: 1.19298 cumulative IPC: 1.42064 (Simulation time: 1 hr 2 min 23 sec) 
Heartbeat CPU 0 instructions: 340000000 cycles: 235296629 heartbeat IPC: 0.475347 cumulative IPC: 0.472334 (Simulation time: 1 hr 2 min 24 sec) 
Heartbeat CPU 1 instructions: 240000000 cycles: 239142667 heartbeat IPC: 0.287071 cumulative IPC: 0.296885 (Simulation time: 1 hr 2 min 56 sec) 
Heartbeat CPU 2 instructions: 380000000 cycles: 239842378 heartbeat IPC: 0.498878 cumulative IPC: 0.738728 (Simulation time: 1 hr 3 min 2 sec) 
Heartbeat CPU 3 instructions: 500000000 cycles: 244616763 heartbeat IPC: 1.0479 cumulative IPC: 1.39527 (Simulation time: 1 hr 3 min 43 sec) 
Heartbeat CPU 3 instructions: 510000001 cycles: 252356308 heartbeat IPC: 1.29207 cumulative IPC: 1.38987 (Simulation time: 1 hr 4 min 52 sec) 
Heartbeat CPU 0 instructions: 350000002 cycles: 255824701 heartbeat IPC: 0.487138 cumulative IPC: 0.474341 (Simulation time: 1 hr 5 min 23 sec) 
Heartbeat CPU 3 instructions: 520000000 cycles: 258580346 heartbeat IPC: 1.60667 cumulative IPC: 1.39862 (Simulation time: 1 hr 5 min 49 sec) 
Heartbeat CPU 2 instructions: 390000002 cycles: 259719212 heartbeat IPC: 0.503098 cumulative IPC: 0.708572 (Simulation time: 1 hr 5 min 59 sec) 
Heartbeat CPU 3 instructions: 530000001 cycles: 265825195 heartbeat IPC: 1.38029 cumulative IPC: 1.3978 (Simulation time: 1 hr 6 min 49 sec) 
Heartbeat CPU 1 instructions: 250000000 cycles: 270081715 heartbeat IPC: 0.323216 cumulative IPC: 0.301803 (Simulation time: 1 hr 7 min 26 sec) 
Heartbeat CPU 3 instructions: 540000000 cycles: 273253174 heartbeat IPC: 1.34626 cumulative IPC: 1.39553 (Simulation time: 1 hr 7 min 52 sec) 
Heartbeat CPU 0 instructions: 360000000 cycles: 276690225 heartbeat IPC: 0.479259 cumulative IPC: 0.474937 (Simulation time: 1 hr 8 min 24 sec) 
Heartbeat CPU 2 instructions: 400000000 cycles: 279658235 heartbeat IPC: 0.501529 cumulative IPC: 0.685015 (Simulation time: 1 hr 8 min 49 sec) 
Heartbeat CPU 3 instructions: 550000003 cycles: 279992126 heartbeat IPC: 1.48391 cumulative IPC: 1.39893 (Simulation time: 1 hr 8 min 52 sec) 
Heartbeat CPU 3 instructions: 560000000 cycles: 287600653 heartbeat IPC: 1.31431 cumulative IPC: 1.39541 (Simulation time: 1 hr 9 min 57 sec) 
Heartbeat CPU 3 instructions: 570000001 cycles: 295059360 heartbeat IPC: 1.34072 cumulative IPC: 1.39327 (Simulation time: 1 hr 10 min 57 sec) 
Heartbeat CPU 0 instructions: 370000000 cycles: 297261658 heartbeat IPC: 0.486111 cumulative IPC: 0.476129 (Simulation time: 1 hr 11 min 17 sec) 
Heartbeat CPU 2 instructions: 410000001 cycles: 299498247 heartbeat IPC: 0.504032 cumulative IPC: 0.66661 (Simulation time: 1 hr 11 min 35 sec) 
Heartbeat CPU 1 instructions: 260000000 cycles: 300576257 heartbeat IPC: 0.327928 cumulative IPC: 0.305864 (Simulation time: 1 hr 11 min 44 sec) 
Heartbeat CPU 3 instructions: 580000000 cycles: 302138073 heartbeat IPC: 1.41269 cumulative IPC: 1.39397 (Simulation time: 1 hr 12 min 0 sec) 
Heartbeat CPU 3 instructions: 590000001 cycles: 309202644 heartbeat IPC: 1.41551 cumulative IPC: 1.39471 (Simulation time: 1 hr 13 min 0 sec) 
Heartbeat CPU 3 instructions: 600000000 cycles: 316048940 heartbeat IPC: 1.46064 cumulative IPC: 1.39684 (Simulation time: 1 hr 13 min 59 sec) 
Heartbeat CPU 0 instructions: 380000000 cycles: 317662605 heartbeat IPC: 0.490173 cumulative IPC: 0.477473 (Simulation time: 1 hr 14 min 13 sec) 
Heartbeat CPU 2 instructions: 420000000 cycles: 319373595 heartbeat IPC: 0.503136 cumulative IPC: 0.651495 (Simulation time: 1 hr 14 min 29 sec) 
Heartbeat CPU 3 instructions: 610000002 cycles: 322655649 heartbeat IPC: 1.51361 cumulative IPC: 1.40038 (Simulation time: 1 hr 14 min 57 sec) 
Heartbeat CPU 3 instructions: 620000000 cycles: 328899348 heartbeat IPC: 1.60161 cumulative IPC: 1.40597 (Simulation time: 1 hr 15 min 56 sec) 
Heartbeat CPU 1 instructions: 270000001 cycles: 330282702 heartbeat IPC: 0.336627 cumulative IPC: 0.30991 (Simulation time: 1 hr 16 min 7 sec) 
Heartbeat CPU 3 instructions: 630000001 cycles: 335150531 heartbeat IPC: 1.5997 cumulative IPC: 1.41122 (Simulation time: 1 hr 16 min 51 sec) 
Heartbeat CPU 0 instructions: 390000003 cycles: 338574224 heartbeat IPC: 0.478203 cumulative IPC: 0.477538 (Simulation time: 1 hr 17 min 22 sec) 
Heartbeat CPU 2 instructions: 430000001 cycles: 339215722 heartbeat IPC: 0.503978 cumulative IPC: 0.639029 (Simulation time: 1 hr 17 min 28 sec) 
Heartbeat CPU 3 instructions: 640000000 cycles: 341356381 heartbeat IPC: 1.61138 cumulative IPC: 1.41647 (Simulation time: 1 hr 17 min 48 sec) 
Heartbeat CPU 3 instructions: 650000003 cycles: 348234653 heartbeat IPC: 1.45385 cumulative IPC: 1.41752 (Simulation time: 1 hr 18 min 47 sec) 
Heartbeat CPU 3 instructions: 660000000 cycles: 354905470 heartbeat IPC: 1.49907 cumulative IPC: 1.41969 (Simulation time: 1 hr 19 min 51 sec) 
Heartbeat CPU 0 instructions: 400000000 cycles: 358796345 heartbeat IPC: 0.494508 cumulative IPC: 0.478887 (Simulation time: 1 hr 20 min 25 sec) 
Heartbeat CPU 2 instructions: 440000000 cycles: 359086806 heartbeat IPC: 0.503244 cumulative IPC: 0.628434 (Simulation time: 1 hr 20 min 28 sec) 
Heartbeat CPU 1 instructions: 280000000 cycles: 361512682 heartbeat IPC: 0.320205 cumulative IPC: 0.31116 (Simulation time: 1 hr 20 min 47 sec) 
Heartbeat CPU 3 instructions: 670000000 cycles: 362074017 heartbeat IPC: 1.39498 cumulative IPC: 1.419 (Simulation time: 1 hr 20 min 53 sec) 
Heartbeat CPU 3 instructions: 680000000 cycles: 368205900 heartbeat IPC: 1.63082 cumulative IPC: 1.42393 (Simulation time: 1 hr 21 min 50 sec) 
Heartbeat CPU 3 instructions: 690000002 cycles: 374650805 heartbeat IPC: 1.55161 cumulative IPC: 1.42697 (Simulation time: 1 hr 22 min 48 sec) 
Heartbeat CPU 2 instructions: 450000000 cycles: 378914487 heartbeat IPC: 0.504345 cumulative IPC: 0.619471 (Simulation time: 1 hr 23 min 29 sec) 
Heartbeat CPU 0 instructions: 410000000 cycles: 379006086 heartbeat IPC: 0.494811 cumulative IPC: 0.480059 (Simulation time: 1 hr 23 min 30 sec) 
Heartbeat CPU 3 instructions: 700000000 cycles: 380151917 heartbeat IPC: 1.81781 cumulative IPC: 1.43477 (Simulation time: 1 hr 23 min 42 sec) 
Heartbeat CPU 3 instructions: 710000000 cycles: 389055312 heartbeat IPC: 1.12317 cumulative IPC: 1.42502 (Simulation time: 1 hr 24 min 59 sec) 
Heartbeat CPU 1 instructions: 290000000 cycles: 389845585 heartbeat IPC: 0.352947 cumulative IPC: 0.315308 (Simulation time: 1 hr 25 min 6 sec) 
Heartbeat CPU 0 instructions: 420000000 cycles: 398103066 heartbeat IPC: 0.523643 cumulative IPC: 0.482893 (Simulation time: 1 hr 26 min 18 sec) 
Heartbeat CPU 3 instructions: 720000000 cycles: 398414161 heartbeat IPC: 1.06851 cumulative IPC: 1.41368 (Simulation time: 1 hr 26 min 21 sec) 
Heartbeat CPU 2 instructions: 460000000 cycles: 398722265 heartbeat IPC: 0.504852 cumulative IPC: 0.611757 (Simulation time: 1 hr 26 min 23 sec) 
Heartbeat CPU 3 instructions: 730000002 cycles: 405638223 heartbeat IPC: 1.38426 cumulative IPC: 1.41297 (Simulation time: 1 hr 27 min 25 sec) 
Heartbeat CPU 3 instructions: 740000000 cycles: 412554076 heartbeat IPC: 1.44595 cumulative IPC: 1.41371 (Simulation time: 1 hr 28 min 27 sec) 
Heartbeat CPU 2 instructions: 470000003 cycles: 418591708 heartbeat IPC: 0.503286 cumulative IPC: 0.604897 (Simulation time: 1 hr 29 min 22 sec) 
Heartbeat CPU 1 instructions: 300000000 cycles: 418608426 heartbeat IPC: 0.347671 cumulative IPC: 0.318271 (Simulation time: 1 hr 29 min 23 sec) 
Heartbeat CPU 0 instructions: 430000001 cycles: 419067939 heartbeat IPC: 0.476988 cumulative IPC: 0.482499 (Simulation time: 1 hr 29 min 26 sec) 
Heartbeat CPU 3 instructions: 750000000 cycles: 419372044 heartbeat IPC: 1.46671 cumulative IPC: 1.41486 (Simulation time: 1 hr 29 min 29 sec) 
Heartbeat CPU 3 instructions: 760000000 cycles: 426683934 heartbeat IPC: 1.36764 cumulative IPC: 1.41379 (Simulation time: 1 hr 30 min 32 sec) 
Heartbeat CPU 3 instructions: 770000000 cycles: 433539157 heartbeat IPC: 1.45874 cumulative IPC: 1.41472 (Simulation time: 1 hr 31 min 34 sec) 
Heartbeat CPU 2 instructions: 480000000 cycles: 438539396 heartbeat IPC: 0.501311 cumulative IPC: 0.598713 (Simulation time: 1 hr 32 min 18 sec) 
Heartbeat CPU 0 instructions: 440000000 cycles: 440013214 heartbeat IPC: 0.477435 cumulative IPC: 0.482183 (Simulation time: 1 hr 32 min 31 sec) 
Heartbeat CPU 3 instructions: 780000000 cycles: 440726296 heartbeat IPC: 1.39137 cumulative IPC: 1.41422 (Simulation time: 1 hr 32 min 37 sec) 
Heartbeat CPU 1 instructions: 310000003 cycles: 447654016 heartbeat IPC: 0.344286 cumulative IPC: 0.320472 (Simulation time: 1 hr 33 min 38 sec) 
Heartbeat CPU 3 instructions: 790000001 cycles: 448222581 heartbeat IPC: 1.33399 cumulative IPC: 1.41247 (Simulation time: 1 hr 33 min 43 sec) 
Heartbeat CPU 3 instructions: 800000000 cycles: 455684943 heartbeat IPC: 1.34006 cumulative IPC: 1.41094 (Simulation time: 1 hr 34 min 47 sec) 
Heartbeat CPU 2 instructions: 490000001 cycles: 458408241 heartbeat IPC: 0.503301 cumulative IPC: 0.593358 (Simulation time: 1 hr 35 min 11 sec) 
Heartbeat CPU 0 instructions: 450000003 cycles: 460645206 heartbeat IPC: 0.484684 cumulative IPC: 0.482328 (Simulation time: 1 hr 35 min 32 sec) 
Heartbeat CPU 3 instructions: 810000000 cycles: 462740537 heartbeat IPC: 1.41732 cumulative IPC: 1.41106 (Simulation time: 1 hr 35 min 49 sec) 
Heartbeat CPU 3 instructions: 820000000 cycles: 469544650 heartbeat IPC: 1.4697 cumulative IPC: 1.41215 (Simulation time: 1 hr 36 min 44 sec) 
Heartbeat CPU 3 instructions: 830000002 cycles: 476505248 heartbeat IPC: 1.43666 cumulative IPC: 1.41261 (Simulation time: 1 hr 37 min 47 sec) 
Heartbeat CPU 2 instructions: 500000000 cycles: 478321373 heartbeat IPC: 0.502181 cumulative IPC: 0.588502 (Simulation time: 1 hr 38 min 2 sec) 
Heartbeat CPU 0 instructions: 460000000 cycles: 482361991 heartbeat IPC: 0.460473 cumulative IPC: 0.481072 (Simulation time: 1 hr 38 min 38 sec) 
Heartbeat CPU 3 instructions: 840000000 cycles: 483078482 heartbeat IPC: 1.52132 cumulative IPC: 1.4145 (Simulation time: 1 hr 38 min 44 sec) 
Heartbeat CPU 1 instructions: 320000000 cycles: 487868258 heartbeat IPC: 0.248668 cumulative IPC: 0.312942 (Simulation time: 1 hr 39 min 28 sec) 
Heartbeat CPU 3 instructions: 850000001 cycles: 489288981 heartbeat IPC: 1.61018 cumulative IPC: 1.41766 (Simulation time: 1 hr 39 min 42 sec) 
Heartbeat CPU 3 instructions: 860000000 cycles: 495932005 heartbeat IPC: 1.50534 cumulative IPC: 1.41914 (Simulation time: 1 hr 40 min 40 sec) 
Heartbeat CPU 2 instructions: 510000002 cycles: 498182024 heartbeat IPC: 0.503508 cumulative IPC: 0.584215 (Simulation time: 1 hr 41 min 0 sec) 
Heartbeat CPU 0 instructions: 470000003 cycles: 502655293 heartbeat IPC: 0.492774 cumulative IPC: 0.481669 (Simulation time: 1 hr 41 min 40 sec) 
Heartbeat CPU 3 instructions: 870000000 cycles: 502845514 heartbeat IPC: 1.44644 cumulative IPC: 1.41962 (Simulation time: 1 hr 41 min 42 sec) 
Heartbeat CPU 3 instructions: 880000000 cycles: 509642420 heartbeat IPC: 1.47126 cumulative IPC: 1.42048 (Simulation time: 1 hr 42 min 49 sec) 
Heartbeat CPU 1 instructions: 330000000 cycles: 515561202 heartbeat IPC: 0.361103 cumulative IPC: 0.316186 (Simulation time: 1 hr 43 min 45 sec) 
Heartbeat CPU 3 instructions: 890000001 cycles: 515784070 heartbeat IPC: 1.62823 cumulative IPC: 1.42359 (Simulation time: 1 hr 43 min 47 sec) 
Heartbeat CPU 2 instructions: 520000000 cycles: 518004395 heartbeat IPC: 0.50448 cumulative IPC: 0.580394 (Simulation time: 1 hr 44 min 9 sec) 
Heartbeat CPU 3 instructions: 900000000 cycles: 522035189 heartbeat IPC: 1.59971 cumulative IPC: 1.42622 (Simulation time: 1 hr 44 min 47 sec) 
Heartbeat CPU 0 instructions: 480000000 cycles: 522865009 heartbeat IPC: 0.494811 cumulative IPC: 0.482303 (Simulation time: 1 hr 44 min 56 sec) 
Heartbeat CPU 3 instructions: 910000002 cycles: 528185351 heartbeat IPC: 1.62597 cumulative IPC: 1.42912 (Simulation time: 1 hr 45 min 46 sec) 
Heartbeat CPU 2 instructions: 530000001 cycles: 537834642 heartbeat IPC: 0.50428 cumulative IPC: 0.576912 (Simulation time: 1 hr 47 min 7 sec) 
Heartbeat CPU 3 instructions: 920000000 cycles: 538321894 heartbeat IPC: 0.986529 cumulative IPC: 1.41878 (Simulation time: 1 hr 47 min 11 sec) 
Heartbeat CPU 1 instructions: 340000000 cycles: 541984033 heartbeat IPC: 0.378461 cumulative IPC: 0.319946 (Simulation time: 1 hr 47 min 43 sec) 
Heartbeat CPU 0 instructions: 490000000 cycles: 543532063 heartbeat IPC: 0.483862 cumulative IPC: 0.482377 (Simulation time: 1 hr 47 min 56 sec) 
Heartbeat CPU 3 instructions: 930000003 cycles: 547060171 heartbeat IPC: 1.14439 cumulative IPC: 1.41337 (Simulation time: 1 hr 48 min 27 sec) 
Heartbeat CPU 3 instructions: 940000000 cycles: 553075661 heartbeat IPC: 1.66237 cumulative IPC: 1.4167 (Simulation time: 1 hr 49 min 24 sec) 
Heartbeat CPU 2 instructions: 540000000 cycles: 557721284 heartbeat IPC: 0.50285 cumulative IPC: 0.573662 (Simulation time: 1 hr 50 min 4 sec) 
Heartbeat CPU 3 instructions: 950000003 cycles: 560370628 heartbeat IPC: 1.37081 cumulative IPC: 1.41597 (Simulation time: 1 hr 50 min 26 sec) 
Heartbeat CPU 0 instructions: 500000000 cycles: 564712976 heartbeat IPC: 0.472123 cumulative IPC: 0.481905 (Simulation time: 1 hr 51 min 4 sec) 
Heartbeat CPU 3 instructions: 960000000 cycles: 568162028 heartbeat IPC: 1.28347 cumulative IPC: 1.41374 (Simulation time: 1 hr 51 min 30 sec) 
Heartbeat CPU 1 instructions: 350000000 cycles: 572037110 heartbeat IPC: 0.332745 cumulative IPC: 0.320769 (Simulation time: 1 hr 52 min 1 sec) 
Heartbeat CPU 3 instructions: 970000000 cycles: 574932679 heartbeat IPC: 1.47696 cumulative IPC: 1.41465 (Simulation time: 1 hr 52 min 27 sec) 
Heartbeat CPU 3 instructions: 980000000 cycles: 582407529 heartbeat IPC: 1.33782 cumulative IPC: 1.41345 (Simulation time: 1 hr 53 min 27 sec) 
Heartbeat CPU 2 instructions: 550000001 cycles: 582658077 heartbeat IPC: 0.401014 cumulative IPC: 0.56466 (Simulation time: 1 hr 53 min 29 sec) 
Heartbeat CPU 0 instructions: 510000000 cycles: 587127753 heartbeat IPC: 0.446134 cumulative IPC: 0.480244 (Simulation time: 1 hr 54 min 8 sec) 
Heartbeat CPU 3 instructions: 990000002 cycles: 589987440 heartbeat IPC: 1.31928 cumulative IPC: 1.41198 (Simulation time: 1 hr 54 min 30 sec) 
Heartbeat CPU 3 instructions: 1000000000 cycles: 596677978 heartbeat IPC: 1.49465 cumulative IPC: 1.41311 (Simulation time: 1 hr 55 min 29 sec) 
Heartbeat CPU 1 instructions: 360000000 cycles: 602986862 heartbeat IPC: 0.323104 cumulative IPC: 0.320914 (Simulation time: 1 hr 56 min 21 sec) 
Heartbeat CPU 2 instructions: 560000000 cycles: 603237195 heartbeat IPC: 0.485929 cumulative IPC: 0.561412 (Simulation time: 1 hr 56 min 24 sec) 
Heartbeat CPU 3 instructions: 1010000001 cycles: 604741675 heartbeat IPC: 1.24013 cumulative IPC: 1.41032 (Simulation time: 1 hr 56 min 37 sec) 
Heartbeat CPU 0 instructions: 520000000 cycles: 608881630 heartbeat IPC: 0.459688 cumulative IPC: 0.479358 (Simulation time: 1 hr 57 min 12 sec) 
Heartbeat CPU 3 instructions: 1020000000 cycles: 611797592 heartbeat IPC: 1.41725 cumulative IPC: 1.41041 (Simulation time: 1 hr 57 min 46 sec) 
Heartbeat CPU 3 instructions: 1030000001 cycles: 618591448 heartbeat IPC: 1.47192 cumulative IPC: 1.41123 (Simulation time: 1 hr 58 min 54 sec) 
Heartbeat CPU 2 instructions: 570000002 cycles: 623865439 heartbeat IPC: 0.484772 cumulative IPC: 0.558369 (Simulation time: 1 hr 59 min 40 sec) 
Heartbeat CPU 3 instructions: 1040000000 cycles: 625417375 heartbeat IPC: 1.465 cumulative IPC: 1.41193 (Simulation time: 1 hr 59 min 54 sec) 
Heartbeat CPU 0 instructions: 530000001 cycles: 630484474 heartbeat IPC: 0.462902 cumulative IPC: 0.478682 (Simulation time: 2 hr 0 min 37 sec) 
Heartbeat CPU 1 instructions: 370000003 cycles: 631970951 heartbeat IPC: 0.345017 cumulative IPC: 0.322238 (Simulation time: 2 hr 0 min 50 sec) 
Heartbeat CPU 3 instructions: 1050000001 cycles: 632406383 heartbeat IPC: 1.43082 cumulative IPC: 1.41218 (Simulation time: 2 hr 0 min 54 sec) 
Heartbeat CPU 3 instructions: 1060000000 cycles: 638644463 heartbeat IPC: 1.60306 cumulative IPC: 1.41441 (Simulation time: 2 hr 1 min 51 sec) 
Heartbeat CPU 3 instructions: 1070000001 cycles: 644317281 heartbeat IPC: 1.76279 cumulative IPC: 1.41807 (Simulation time: 2 hr 2 min 47 sec) 
Heartbeat CPU 2 instructions: 580000000 cycles: 644516650 heartbeat IPC: 0.484233 cumulative IPC: 0.555534 (Simulation time: 2 hr 2 min 48 sec) 
Heartbeat CPU 3 instructions: 1080000000 cycles: 650656768 heartbeat IPC: 1.57741 cumulative IPC: 1.41992 (Simulation time: 2 hr 3 min 43 sec) 
Heartbeat CPU 0 instructions: 540000000 cycles: 650852588 heartbeat IPC: 0.490963 cumulative IPC: 0.47914 (Simulation time: 2 hr 3 min 45 sec) 
Heartbeat CPU 3 instructions: 1090000003 cycles: 657674941 heartbeat IPC: 1.42487 cumulative IPC: 1.41998 (Simulation time: 2 hr 4 min 44 sec) 
Heartbeat CPU 1 instructions: 380000000 cycles: 660597120 heartbeat IPC: 0.349331 cumulative IPC: 0.323632 (Simulation time: 2 hr 5 min 10 sec) 
Heartbeat CPU 3 instructions: 1100000000 cycles: 664567443 heartbeat IPC: 1.45085 cumulative IPC: 1.42036 (Simulation time: 2 hr 5 min 45 sec) 
Heartbeat CPU 2 instructions: 590000001 cycles: 665090878 heartbeat IPC: 0.486045 cumulative IPC: 0.552984 (Simulation time: 2 hr 5 min 50 sec) 
Heartbeat CPU 3 instructions: 1110000001 cycles: 670466458 heartbeat IPC: 1.6952 cumulative IPC: 1.42323 (Simulation time: 2 hr 6 min 40 sec) 
Heartbeat CPU 0 instructions: 550000000 cycles: 672017861 heartbeat IPC: 0.472472 cumulative IPC: 0.478891 (Simulation time: 2 hr 6 min 55 sec) 
Heartbeat CPU 3 instructions: 1120000000 cycles: 676529595 heartbeat IPC: 1.64931 cumulative IPC: 1.42562 (Simulation time: 2 hr 7 min 37 sec) 
Heartbeat CPU 2 instructions: 600000000 cycles: 685702302 heartbeat IPC: 0.485168 cumulative IPC: 0.55058 (Simulation time: 2 hr 8 min 54 sec) 
Heartbeat CPU 3 instructions: 1130000000 cycles: 685882211 heartbeat IPC: 1.06922 cumulative IPC: 1.41989 (Simulation time: 2 hr 8 min 56 sec) 
Heartbeat CPU 1 instructions: 390000002 cycles: 689079163 heartbeat IPC: 0.351098 cumulative IPC: 0.32497 (Simulation time: 2 hr 9 min 23 sec) 
Heartbeat CPU 0 instructions: 560000000 cycles: 693187523 heartbeat IPC: 0.472374 cumulative IPC: 0.478657 (Simulation time: 2 hr 9 min 59 sec) 
Heartbeat CPU 3 instructions: 1140000000 cycles: 694947381 heartbeat IPC: 1.10312 cumulative IPC: 1.41503 (Simulation time: 2 hr 10 min 14 sec) 
Heartbeat CPU 3 instructions: 1150000002 cycles: 701013071 heartbeat IPC: 1.64862 cumulative IPC: 1.4174 (Simulation time: 2 hr 11 min 12 sec) 
Heartbeat CPU 2 instructions: 610000003 cycles: 706335561 heartbeat IPC: 0.484655 cumulative IPC: 0.54832 (Simulation time: 2 hr 11 min 56 sec) 
Heartbeat CPU 3 instructions: 1160000000 cycles: 708211772 heartbeat IPC: 1.38914 cumulative IPC: 1.41707 (Simulation time: 2 hr 12 min 13 sec) 
Heartbeat CPU 0 instructions: 570000002 cycles: 714053943 heartbeat IPC: 0.479239 cumulative IPC: 0.478677 (Simulation time: 2 hr 13 min 4 sec) 
Heartbeat CPU 3 instructions: 1170000000 cycles: 715627842 heartbeat IPC: 1.34842 cumulative IPC: 1.41623 (Simulation time: 2 hr 13 min 18 sec) 
Heartbeat CPU 1 instructions: 400000000 cycles: 718514617 heartbeat IPC: 0.339726 cumulative IPC: 0.325678 (Simulation time: 2 hr 13 min 46 sec) 
Heartbeat CPU 3 instructions: 1180000000 cycles: 722335327 heartbeat IPC: 1.49087 cumulative IPC: 1.41704 (Simulation time: 2 hr 14 min 19 sec) 
Heartbeat CPU 2 instructions: 620000000 cycles: 726982926 heartbeat IPC: 0.484323 cumulative IPC: 0.546197 (Simulation time: 2 hr 15 min 4 sec) 
Heartbeat CPU 3 instructions: 1190000002 cycles: 729668655 heartbeat IPC: 1.36364 cumulative IPC: 1.41642 (Simulation time: 2 hr 15 min 30 sec) 
Heartbeat CPU 0 instructions: 580000000 cycles: 736128180 heartbeat IPC: 0.453017 cumulative IPC: 0.47778 (Simulation time: 2 hr 16 min 25 sec) 
Heartbeat CPU 3 instructions: 1200000000 cycles: 737072687 heartbeat IPC: 1.35062 cumulative IPC: 1.41565 (Simulation time: 2 hr 16 min 35 sec) 
Heartbeat CPU 3 instructions: 1210000003 cycles: 744136773 heartbeat IPC: 1.41561 cumulative IPC: 1.41565 (Simulation time: 2 hr 17 min 41 sec) 
Heartbeat CPU 2 instructions: 630000000 cycles: 747628106 heartbeat IPC: 0.484375 cumulative IPC: 0.544213 (Simulation time: 2 hr 18 min 11 sec) 
Heartbeat CPU 1 instructions: 410000000 cycles: 747945099 heartbeat IPC: 0.339784 cumulative IPC: 0.326323 (Simulation time: 2 hr 18 min 13 sec) 
Heartbeat CPU 3 instructions: 1220000000 cycles: 751200002 heartbeat IPC: 1.41578 cumulative IPC: 1.41565 (Simulation time: 2 hr 18 min 43 sec) 
Heartbeat CPU 0 instructions: 590000003 cycles: 757615787 heartbeat IPC: 0.465385 cumulative IPC: 0.477372 (Simulation time: 2 hr 19 min 36 sec) 
Heartbeat CPU 3 instructions: 1230000000 cycles: 758905805 heartbeat IPC: 1.29772 cumulative IPC: 1.41426 (Simulation time: 2 hr 19 min 49 sec) 
Heartbeat CPU 3 instructions: 1240000000 cycles: 766133249 heartbeat IPC: 1.38362 cumulative IPC: 1.41392 (Simulation time: 2 hr 20 min 51 sec) 
Heartbeat CPU 2 instructions: 640000000 cycles: 768246294 heartbeat IPC: 0.485009 cumulative IPC: 0.542374 (Simulation time: 2 hr 21 min 10 sec) 
Heartbeat CPU 3 instructions: 1250000000 cycles: 772696231 heartbeat IPC: 1.5237 cumulative IPC: 1.415 (Simulation time: 2 hr 21 min 51 sec) 
Heartbeat CPU 1 instructions: 420000000 cycles: 777060645 heartbeat IPC: 0.343459 cumulative IPC: 0.327065 (Simulation time: 2 hr 22 min 29 sec) 
Heartbeat CPU 0 instructions: 600000000 cycles: 777957504 heartbeat IPC: 0.4916 cumulative IPC: 0.477802 (Simulation time: 2 hr 22 min 38 sec) 
Heartbeat CPU 3 instructions: 1260000000 cycles: 779713402 heartbeat IPC: 1.42508 cumulative IPC: 1.41511 (Simulation time: 2 hr 22 min 54 sec) 
Heartbeat CPU 3 instructions: 1270000002 cycles: 786681804 heartbeat IPC: 1.43505 cumulative IPC: 1.41531 (Simulation time: 2 hr 23 min 55 sec) 
Heartbeat CPU 2 instructions: 650000000 cycles: 788871865 heartbeat IPC: 0.484835 cumulative IPC: 0.54064 (Simulation time: 2 hr 24 min 17 sec) 
Heartbeat CPU 3 instructions: 1280000000 cycles: 792516151 heartbeat IPC: 1.71399 cumulative IPC: 1.41784 (Simulation time: 2 hr 24 min 52 sec) 
Heartbeat CPU 0 instructions: 610000003 cycles: 798163362 heartbeat IPC: 0.494906 cumulative IPC: 0.4783 (Simulation time: 2 hr 25 min 46 sec) 
Heartbeat CPU 3 instructions: 1290000000 cycles: 798276757 heartbeat IPC: 1.73593 cumulative IPC: 1.42048 (Simulation time: 2 hr 25 min 47 sec) 
Heartbeat CPU 3 instructions: 1300000000 cycles: 805109959 heartbeat IPC: 1.46344 cumulative IPC: 1.4209 (Simulation time: 2 hr 26 min 47 sec) 
Heartbeat CPU 1 instructions: 430000002 cycles: 805860312 heartbeat IPC: 0.347226 cumulative IPC: 0.327892 (Simulation time: 2 hr 26 min 52 sec) 
Finished CPU 3 instructions: 1000000003 cycles: 703799568 cumulative IPC: 1.42086 (Simulation time: 2 hr 27 min 15 sec) 
Heartbeat CPU 2 instructions: 660000000 cycles: 809452070 heartbeat IPC: 0.485904 cumulative IPC: 0.539042 (Simulation time: 2 hr 27 min 27 sec) 
Heartbeat CPU 3 instructions: 1310000001 cycles: 812176857 heartbeat IPC: 1.41505 cumulative IPC: 1.42084 (Simulation time: 2 hr 27 min 52 sec) 
Heartbeat CPU 3 instructions: 1320000000 cycles: 817905265 heartbeat IPC: 1.74569 cumulative IPC: 1.42345 (Simulation time: 2 hr 28 min 41 sec) 
Heartbeat CPU 0 instructions: 620000000 cycles: 818749028 heartbeat IPC: 0.485775 cumulative IPC: 0.478515 (Simulation time: 2 hr 28 min 47 sec) 
Heartbeat CPU 3 instructions: 1330000003 cycles: 824088589 heartbeat IPC: 1.61725 cumulative IPC: 1.42512 (Simulation time: 2 hr 29 min 36 sec) 
Heartbeat CPU 2 instructions: 670000000 cycles: 830152174 heartbeat IPC: 0.483089 cumulative IPC: 0.537447 (Simulation time: 2 hr 30 min 25 sec) 
Heartbeat CPU 3 instructions: 1340000000 cycles: 834034508 heartbeat IPC: 1.00544 cumulative IPC: 1.4194 (Simulation time: 2 hr 30 min 57 sec) 
Heartbeat CPU 0 instructions: 630000001 cycles: 840519499 heartbeat IPC: 0.459338 cumulative IPC: 0.477948 (Simulation time: 2 hr 31 min 55 sec) 
Heartbeat CPU 3 instructions: 1350000001 cycles: 842359037 heartbeat IPC: 1.20127 cumulative IPC: 1.41694 (Simulation time: 2 hr 32 min 11 sec) 
Heartbeat CPU 1 instructions: 440000000 cycles: 847718437 heartbeat IPC: 0.238902 cumulative IPC: 0.322881 (Simulation time: 2 hr 33 min 0 sec) 
Heartbeat CPU 3 instructions: 1360000000 cycles: 848423676 heartbeat IPC: 1.6489 cumulative IPC: 1.41883 (Simulation time: 2 hr 33 min 6 sec) 
Heartbeat CPU 2 instructions: 680000000 cycles: 850750529 heartbeat IPC: 0.485476 cumulative IPC: 0.536012 (Simulation time: 2 hr 33 min 27 sec) 
Heartbeat CPU 3 instructions: 1370000002 cycles: 854833067 heartbeat IPC: 1.56021 cumulative IPC: 1.42003 (Simulation time: 2 hr 34 min 4 sec) 
Heartbeat CPU 0 instructions: 640000000 cycles: 861158039 heartbeat IPC: 0.48453 cumulative IPC: 0.478128 (Simulation time: 2 hr 35 min 7 sec) 
Heartbeat CPU 3 instructions: 1380000000 cycles: 861368329 heartbeat IPC: 1.53016 cumulative IPC: 1.42098 (Simulation time: 2 hr 35 min 9 sec) 
Heartbeat CPU 3 instructions: 1390000001 cycles: 868449672 heartbeat IPC: 1.41216 cumulative IPC: 1.4209 (Simulation time: 2 hr 36 min 13 sec) 
Heartbeat CPU 2 instructions: 690000001 cycles: 871405913 heartbeat IPC: 0.484135 cumulative IPC: 0.534615 (Simulation time: 2 hr 36 min 41 sec) 
Heartbeat CPU 1 instructions: 450000000 cycles: 873239232 heartbeat IPC: 0.391837 cumulative IPC: 0.32517 (Simulation time: 2 hr 36 min 56 sec) 
Heartbeat CPU 3 instructions: 1400000000 cycles: 875460786 heartbeat IPC: 1.42631 cumulative IPC: 1.42095 (Simulation time: 2 hr 37 min 16 sec) 
Heartbeat CPU 3 instructions: 1410000002 cycles: 882717258 heartbeat IPC: 1.37808 cumulative IPC: 1.42055 (Simulation time: 2 hr 38 min 17 sec) 
Heartbeat CPU 0 instructions: 650000003 cycles: 882743435 heartbeat IPC: 0.463276 cumulative IPC: 0.477716 (Simulation time: 2 hr 38 min 17 sec) 
Heartbeat CPU 3 instructions: 1420000000 cycles: 889743133 heartbeat IPC: 1.42331 cumulative IPC: 1.42058 (Simulation time: 2 hr 39 min 15 sec) 
Heartbeat CPU 2 instructions: 700000000 cycles: 892107153 heartbeat IPC: 0.483063 cumulative IPC: 0.53326 (Simulation time: 2 hr 39 min 34 sec) 
Heartbeat CPU 3 instructions: 1430000003 cycles: 896409056 heartbeat IPC: 1.50017 cumulative IPC: 1.42125 (Simulation time: 2 hr 40 min 10 sec) 
Heartbeat CPU 1 instructions: 460000000 cycles: 902223544 heartbeat IPC: 0.345014 cumulative IPC: 0.325891 (Simulation time: 2 hr 40 min 57 sec) 
Heartbeat CPU 0 instructions: 660000000 cycles: 903651278 heartbeat IPC: 0.478289 cumulative IPC: 0.477731 (Simulation time: 2 hr 41 min 9 sec) 
Heartbeat CPU 3 instructions: 1440000000 cycles: 904192727 heartbeat IPC: 1.28474 cumulative IPC: 1.41992 (Simulation time: 2 hr 41 min 13 sec) 
Heartbeat CPU 3 instructions: 1450000002 cycles: 910488996 heartbeat IPC: 1.58824 cumulative IPC: 1.42123 (Simulation time: 2 hr 42 min 9 sec) 
Heartbeat CPU 2 instructions: 710000001 cycles: 912693346 heartbeat IPC: 0.485763 cumulative IPC: 0.532051 (Simulation time: 2 hr 42 min 28 sec) 
Heartbeat CPU 3 instructions: 1460000000 cycles: 916798531 heartbeat IPC: 1.5849 cumulative IPC: 1.4225 (Simulation time: 2 hr 43 min 2 sec) 
Heartbeat CPU 3 instructions: 1470000002 cycles: 923406133 heartbeat IPC: 1.51341 cumulative IPC: 1.42324 (Simulation time: 2 hr 43 min 58 sec) 
Heartbeat CPU 0 instructions: 670000002 cycles: 924585372 heartbeat IPC: 0.47769 cumulative IPC: 0.47773 (Simulation time: 2 hr 44 min 8 sec) 
Heartbeat CPU 3 instructions: 1480000000 cycles: 928940503 heartbeat IPC: 1.80689 cumulative IPC: 1.42581 (Simulation time: 2 hr 44 min 46 sec) 
Heartbeat CPU 2 instructions: 720000000 cycles: 930805688 heartbeat IPC: 0.55211 cumulative IPC: 0.53249 (Simulation time: 2 hr 45 min 1 sec) 
Heartbeat CPU 1 instructions: 470000000 cycles: 931219068 heartbeat IPC: 0.344881 cumulative IPC: 0.326557 (Simulation time: 2 hr 45 min 6 sec) 
Heartbeat CPU 3 instructions: 1490000000 cycles: 934651823 heartbeat IPC: 1.75091 cumulative IPC: 1.42805 (Simulation time: 2 hr 45 min 35 sec) 
Heartbeat CPU 3 instructions: 1500000000 cycles: 941773545 heartbeat IPC: 1.40415 cumulative IPC: 1.42785 (Simulation time: 2 hr 46 min 34 sec) 
Heartbeat CPU 0 instructions: 680000000 cycles: 946476871 heartbeat IPC: 0.456798 cumulative IPC: 0.477186 (Simulation time: 2 hr 47 min 12 sec) 
Heartbeat CPU 3 instructions: 1510000003 cycles: 948414158 heartbeat IPC: 1.50589 cumulative IPC: 1.42846 (Simulation time: 2 hr 47 min 29 sec) 
Heartbeat CPU 2 instructions: 730000000 cycles: 951581974 heartbeat IPC: 0.481318 cumulative IPC: 0.531235 (Simulation time: 2 hr 47 min 58 sec) 
Heartbeat CPU 3 instructions: 1520000000 cycles: 954344269 heartbeat IPC: 1.68631 cumulative IPC: 1.43026 (Simulation time: 2 hr 48 min 23 sec) 
Heartbeat CPU 1 instructions: 480000000 cycles: 960058344 heartbeat IPC: 0.346749 cumulative IPC: 0.327237 (Simulation time: 2 hr 49 min 13 sec) 
Heartbeat CPU 3 instructions: 1530000000 cycles: 964045102 heartbeat IPC: 1.03084 cumulative IPC: 1.42575 (Simulation time: 2 hr 49 min 51 sec) 
Heartbeat CPU 0 instructions: 690000003 cycles: 966010847 heartbeat IPC: 0.511929 cumulative IPC: 0.477973 (Simulation time: 2 hr 50 min 11 sec) 
Heartbeat CPU 2 instructions: 740000000 cycles: 967062266 heartbeat IPC: 0.645983 cumulative IPC: 0.533294 (Simulation time: 2 hr 50 min 20 sec) 
Heartbeat CPU 3 instructions: 1540000000 cycles: 972524132 heartbeat IPC: 1.17938 cumulative IPC: 1.42335 (Simulation time: 2 hr 51 min 8 sec) 
Heartbeat CPU 3 instructions: 1550000001 cycles: 979044717 heartbeat IPC: 1.5336 cumulative IPC: 1.42417 (Simulation time: 2 hr 52 min 11 sec) 
Heartbeat CPU 2 instructions: 750000002 cycles: 982577789 heartbeat IPC: 0.644516 cumulative IPC: 0.535259 (Simulation time: 2 hr 52 min 46 sec) 
Heartbeat CPU 3 instructions: 1560000000 cycles: 986452778 heartbeat IPC: 1.34988 cumulative IPC: 1.42354 (Simulation time: 2 hr 53 min 21 sec) 
Heartbeat CPU 0 instructions: 700000000 cycles: 986831544 heartbeat IPC: 0.480291 cumulative IPC: 0.478028 (Simulation time: 2 hr 53 min 25 sec) 
Heartbeat CPU 1 instructions: 490000002 cycles: 988154843 heartbeat IPC: 0.355916 cumulative IPC: 0.328149 (Simulation time: 2 hr 53 min 37 sec) 
Heartbeat CPU 3 instructions: 1570000000 cycles: 993791782 heartbeat IPC: 1.36258 cumulative IPC: 1.42304 (Simulation time: 2 hr 54 min 33 sec) 
Heartbeat CPU 2 instructions: 760000000 cycles: 998074122 heartbeat IPC: 0.645314 cumulative IPC: 0.537168 (Simulation time: 2 hr 55 min 13 sec) 
Heartbeat CPU 3 instructions: 1580000000 cycles: 1000740200 heartbeat IPC: 1.43918 cumulative IPC: 1.42317 (Simulation time: 2 hr 55 min 37 sec) 
Heartbeat CPU 0 instructions: 710000000 cycles: 1007581659 heartbeat IPC: 0.481925 cumulative IPC: 0.478118 (Simulation time: 2 hr 56 min 41 sec) 
Heartbeat CPU 3 instructions: 1590000003 cycles: 1007901904 heartbeat IPC: 1.39632 cumulative IPC: 1.42295 (Simulation time: 2 hr 56 min 45 sec) 
Heartbeat CPU 2 instructions: 770000000 cycles: 1013574972 heartbeat IPC: 0.645126 cumulative IPC: 0.539008 (Simulation time: 2 hr 57 min 41 sec) 
Heartbeat CPU 3 instructions: 1600000000 cycles: 1013740066 heartbeat IPC: 1.71287 cumulative IPC: 1.42481 (Simulation time: 2 hr 57 min 43 sec) 
Heartbeat CPU 1 instructions: 500000000 cycles: 1016474717 heartbeat IPC: 0.353109 cumulative IPC: 0.328924 (Simulation time: 2 hr 58 min 8 sec) 
Heartbeat CPU 3 instructions: 1610000001 cycles: 1021888883 heartbeat IPC: 1.22717 cumulative IPC: 1.42306 (Simulation time: 2 hr 59 min 2 sec) 
Heartbeat CPU 0 instructions: 720000000 cycles: 1028362796 heartbeat IPC: 0.481206 cumulative IPC: 0.478187 (Simulation time: 3 hr 0 min 1 sec) 
Heartbeat CPU 3 instructions: 1620000000 cycles: 1028516687 heartbeat IPC: 1.5088 cumulative IPC: 1.42367 (Simulation time: 3 hr 0 min 2 sec) 
Heartbeat CPU 2 instructions: 780000000 cycles: 1029047521 heartbeat IPC: 0.646306 cumulative IPC: 0.540804 (Simulation time: 3 hr 0 min 7 sec) 
Heartbeat CPU 3 instructions: 1630000002 cycles: 1035374225 heartbeat IPC: 1.45825 cumulative IPC: 1.42393 (Simulation time: 3 hr 1 min 7 sec) 
Heartbeat CPU 3 instructions: 1640000000 cycles: 1041878638 heartbeat IPC: 1.53742 cumulative IPC: 1.42472 (Simulation time: 3 hr 2 min 11 sec) 
Heartbeat CPU 1 instructions: 510000003 cycles: 1044431949 heartbeat IPC: 0.357689 cumulative IPC: 0.32978 (Simulation time: 3 hr 2 min 34 sec) 
Heartbeat CPU 2 instructions: 790000000 cycles: 1044558522 heartbeat IPC: 0.644704 cumulative IPC: 0.542518 (Simulation time: 3 hr 2 min 35 sec) 
Heartbeat CPU 0 instructions: 730000000 cycles: 1047850346 heartbeat IPC: 0.513148 cumulative IPC: 0.478909 (Simulation time: 3 hr 3 min 5 sec) 
Heartbeat CPU 3 instructions: 1650000001 cycles: 1050420283 heartbeat IPC: 1.17073 cumulative IPC: 1.42242 (Simulation time: 3 hr 3 min 32 sec) 
Heartbeat CPU 3 instructions: 1660000000 cycles: 1057047124 heartbeat IPC: 1.50901 cumulative IPC: 1.42303 (Simulation time: 3 hr 4 min 34 sec) 
Heartbeat CPU 2 instructions: 800000000 cycles: 1060053926 heartbeat IPC: 0.645353 cumulative IPC: 0.544186 (Simulation time: 3 hr 5 min 3 sec) 
Heartbeat CPU 3 instructions: 1670000001 cycles: 1063083632 heartbeat IPC: 1.65659 cumulative IPC: 1.4245 (Simulation time: 3 hr 5 min 32 sec) 
Heartbeat CPU 0 instructions: 740000000 cycles: 1068241168 heartbeat IPC: 0.490417 cumulative IPC: 0.479153 (Simulation time: 3 hr 6 min 20 sec) 
Heartbeat CPU 3 instructions: 1680000000 cycles: 1069670484 heartbeat IPC: 1.51818 cumulative IPC: 1.42513 (Simulation time: 3 hr 6 min 35 sec) 
Heartbeat CPU 1 instructions: 520000000 cycles: 1072389498 heartbeat IPC: 0.357685 cumulative IPC: 0.330586 (Simulation time: 3 hr 7 min 2 sec) 
Heartbeat CPU 2 instructions: 810000003 cycles: 1075561805 heartbeat IPC: 0.644834 cumulative IPC: 0.545793 (Simulation time: 3 hr 7 min 30 sec) 
Heartbeat CPU 3 instructions: 1690000000 cycles: 1077220310 heartbeat IPC: 1.32453 cumulative IPC: 1.42435 (Simulation time: 3 hr 7 min 47 sec) 
Heartbeat CPU 3 instructions: 1700000000 cycles: 1085641483 heartbeat IPC: 1.18748 cumulative IPC: 1.42232 (Simulation time: 3 hr 9 min 5 sec) 
Heartbeat CPU 0 instructions: 750000000 cycles: 1088168147 heartbeat IPC: 0.501832 cumulative IPC: 0.479612 (Simulation time: 3 hr 9 min 30 sec) 
Heartbeat CPU 2 instructions: 820000000 cycles: 1091088471 heartbeat IPC: 0.644053 cumulative IPC: 0.547339 (Simulation time: 3 hr 9 min 55 sec) 
Heartbeat CPU 3 instructions: 1710000002 cycles: 1092578073 heartbeat IPC: 1.44163 cumulative IPC: 1.42246 (Simulation time: 3 hr 10 min 10 sec) 
Heartbeat CPU 1 instructions: 530000001 cycles: 1100373065 heartbeat IPC: 0.357353 cumulative IPC: 0.331338 (Simulation time: 3 hr 11 min 23 sec) 
Heartbeat CPU 3 instructions: 1720000000 cycles: 1100539738 heartbeat IPC: 1.25602 cumulative IPC: 1.42113 (Simulation time: 3 hr 11 min 25 sec) 
Heartbeat CPU 2 instructions: 830000000 cycles: 1106584699 heartbeat IPC: 0.645318 cumulative IPC: 0.548854 (Simulation time: 3 hr 12 min 23 sec) 
Heartbeat CPU 3 instructions: 1730000001 cycles: 1108389261 heartbeat IPC: 1.27396 cumulative IPC: 1.41998 (Simulation time: 3 hr 12 min 39 sec) 
Heartbeat CPU 0 instructions: 760000000 cycles: 1108961830 heartbeat IPC: 0.480915 cumulative IPC: 0.479639 (Simulation time: 3 hr 12 min 45 sec) 
Heartbeat CPU 3 instructions: 1740000000 cycles: 1114664006 heartbeat IPC: 1.59369 cumulative IPC: 1.42105 (Simulation time: 3 hr 13 min 41 sec) 
Heartbeat CPU 3 instructions: 1750000003 cycles: 1121237593 heartbeat IPC: 1.52124 cumulative IPC: 1.4217 (Simulation time: 3 hr 14 min 45 sec) 
Heartbeat CPU 2 instructions: 840000000 cycles: 1122081463 heartbeat IPC: 0.645296 cumulative IPC: 0.550323 (Simulation time: 3 hr 14 min 53 sec) 
Heartbeat CPU 3 instructions: 1760000000 cycles: 1127750832 heartbeat IPC: 1.53533 cumulative IPC: 1.42243 (Simulation time: 3 hr 15 min 48 sec) 
Heartbeat CPU 0 instructions: 770000002 cycles: 1127894298 heartbeat IPC: 0.528193 cumulative IPC: 0.480537 (Simulation time: 3 hr 15 min 50 sec) 
Heartbeat CPU 1 instructions: 540000000 cycles: 1128477992 heartbeat IPC: 0.355809 cumulative IPC: 0.332009 (Simulation time: 3 hr 15 min 56 sec) 
Heartbeat CPU 3 instructions: 1770000003 cycles: 1134622131 heartbeat IPC: 1.45533 cumulative IPC: 1.42265 (Simulation time: 3 hr 16 min 56 sec) 
Heartbeat CPU 2 instructions: 850000000 cycles: 1137576907 heartbeat IPC: 0.645351 cumulative IPC: 0.551748 (Simulation time: 3 hr 17 min 25 sec) 
Heartbeat CPU 3 instructions: 1780000000 cycles: 1140618350 heartbeat IPC: 1.66772 cumulative IPC: 1.42406 (Simulation time: 3 hr 17 min 54 sec) 
Heartbeat CPU 3 instructions: 1790000002 cycles: 1147426630 heartbeat IPC: 1.4688 cumulative IPC: 1.42436 (Simulation time: 3 hr 19 min 1 sec) 
Heartbeat CPU 0 instructions: 780000000 cycles: 1147923315 heartbeat IPC: 0.499276 cumulative IPC: 0.480897 (Simulation time: 3 hr 19 min 6 sec) 
Heartbeat CPU 2 instructions: 860000000 cycles: 1153057298 heartbeat IPC: 0.645979 cumulative IPC: 0.553139 (Simulation time: 3 hr 19 min 57 sec) 
Heartbeat CPU 3 instructions: 1800000000 cycles: 1153337842 heartbeat IPC: 1.6917 cumulative IPC: 1.42586 (Simulation time: 3 hr 20 min 0 sec) 
Heartbeat CPU 1 instructions: 550000002 cycles: 1155742094 heartbeat IPC: 0.366783 cumulative IPC: 0.332911 (Simulation time: 3 hr 20 min 25 sec) 
Heartbeat CPU 3 instructions: 1810000000 cycles: 1159221994 heartbeat IPC: 1.69948 cumulative IPC: 1.42739 (Simulation time: 3 hr 20 min 57 sec) 
Heartbeat CPU 3 instructions: 1820000000 cycles: 1167549855 heartbeat IPC: 1.20079 cumulative IPC: 1.42561 (Simulation time: 3 hr 22 min 9 sec) 
Heartbeat CPU 0 instructions: 790000000 cycles: 1168260539 heartbeat IPC: 0.491709 cumulative IPC: 0.481104 (Simulation time: 3 hr 22 min 15 sec) 
Heartbeat CPU 2 instructions: 870000001 cycles: 1168556486 heartbeat IPC: 0.645195 cumulative IPC: 0.55448 (Simulation time: 3 hr 22 min 18 sec) 
Heartbeat CPU 3 instructions: 1830000001 cycles: 1173614788 heartbeat IPC: 1.64882 cumulative IPC: 1.42688 (Simulation time: 3 hr 23 min 7 sec) 
Heartbeat CPU 3 instructions: 1840000000 cycles: 1179354239 heartbeat IPC: 1.74233 cumulative IPC: 1.42856 (Simulation time: 3 hr 24 min 2 sec) 
Heartbeat CPU 2 instructions: 880000000 cycles: 1184055683 heartbeat IPC: 0.645195 cumulative IPC: 0.555782 (Simulation time: 3 hr 24 min 46 sec) 
Heartbeat CPU 3 instructions: 1850000003 cycles: 1186094273 heartbeat IPC: 1.48367 cumulative IPC: 1.42891 (Simulation time: 3 hr 25 min 6 sec) 
Heartbeat CPU 0 instructions: 800000000 cycles: 1188780048 heartbeat IPC: 0.487341 cumulative IPC: 0.481222 (Simulation time: 3 hr 25 min 30 sec) 
Heartbeat CPU 3 instructions: 1860000000 cycles: 1192417565 heartbeat IPC: 1.58145 cumulative IPC: 1.42979 (Simulation time: 3 hr 26 min 5 sec) 
Heartbeat CPU 1 instructions: 560000000 cycles: 1198154471 heartbeat IPC: 0.23578 cumulative IPC: 0.329145 (Simulation time: 3 hr 27 min 0 sec) 
Heartbeat CPU 3 instructions: 1870000003 cycles: 1198719141 heartbeat IPC: 1.58691 cumulative IPC: 1.4307 (Simulation time: 3 hr 27 min 6 sec) 
Heartbeat CPU 2 instructions: 890000000 cycles: 1199539671 heartbeat IPC: 0.645828 cumulative IPC: 0.557055 (Simulation time: 3 hr 27 min 14 sec) 
Heartbeat CPU 3 instructions: 1880000000 cycles: 1207378886 heartbeat IPC: 1.15477 cumulative IPC: 1.42853 (Simulation time: 3 hr 28 min 33 sec) 
Heartbeat CPU 0 instructions: 810000000 cycles: 1207644066 heartbeat IPC: 0.53011 cumulative IPC: 0.482058 (Simulation time: 3 hr 28 min 36 sec) 
Heartbeat CPU 3 instructions: 1890000002 cycles: 1214647741 heartbeat IPC: 1.37573 cumulative IPC: 1.42819 (Simulation time: 3 hr 29 min 43 sec) 
Heartbeat CPU 2 instructions: 900000000 cycles: 1215029385 heartbeat IPC: 0.64559 cumulative IPC: 0.55829 (Simulation time: 3 hr 29 min 47 sec) 
Heartbeat CPU 1 instructions: 570000002 cycles: 1220673113 heartbeat IPC: 0.444077 cumulative IPC: 0.331463 (Simulation time: 3 hr 30 min 43 sec) 
Heartbeat CPU 3 instructions: 1900000000 cycles: 1221249993 heartbeat IPC: 1.51463 cumulative IPC: 1.4287 (Simulation time: 3 hr 30 min 50 sec) 
Heartbeat CPU 3 instructions: 1910000002 cycles: 1226898747 heartbeat IPC: 1.7703 cumulative IPC: 1.43042 (Simulation time: 3 hr 31 min 44 sec) 
Heartbeat CPU 0 instructions: 820000000 cycles: 1228538200 heartbeat IPC: 0.478603 cumulative IPC: 0.481993 (Simulation time: 3 hr 32 min 0 sec) 
Heartbeat CPU 2 instructions: 910000000 cycles: 1230531909 heartbeat IPC: 0.645056 cumulative IPC: 0.559484 (Simulation time: 3 hr 32 min 19 sec) 
Heartbeat CPU 3 instructions: 1920000000 cycles: 1233320317 heartbeat IPC: 1.55725 cumulative IPC: 1.43114 (Simulation time: 3 hr 32 min 46 sec) 
Heartbeat CPU 3 instructions: 1930000002 cycles: 1240001296 heartbeat IPC: 1.49679 cumulative IPC: 1.43152 (Simulation time: 3 hr 33 min 48 sec) 
Heartbeat CPU 2 instructions: 920000000 cycles: 1246032549 heartbeat IPC: 0.645135 cumulative IPC: 0.560647 (Simulation time: 3 hr 34 min 47 sec) 
Heartbeat CPU 3 instructions: 1940000000 cycles: 1246132877 heartbeat IPC: 1.6309 cumulative IPC: 1.43259 (Simulation time: 3 hr 34 min 47 sec) 
Heartbeat CPU 0 instructions: 830000001 cycles: 1248543182 heartbeat IPC: 0.499876 cumulative IPC: 0.482306 (Simulation time: 3 hr 35 min 10 sec) 
Heartbeat CPU 1 instructions: 580000000 cycles: 1250749727 heartbeat IPC: 0.332484 cumulative IPC: 0.33149 (Simulation time: 3 hr 35 min 36 sec) 
Heartbeat CPU 3 instructions: 1950000001 cycles: 1255302677 heartbeat IPC: 1.09054 cumulative IPC: 1.42987 (Simulation time: 3 hr 36 min 23 sec) 
Heartbeat CPU 2 instructions: 930000003 cycles: 1261538411 heartbeat IPC: 0.644918 cumulative IPC: 0.561777 (Simulation time: 3 hr 37 min 32 sec) 
Heartbeat CPU 3 instructions: 1960000000 cycles: 1262716358 heartbeat IPC: 1.34886 cumulative IPC: 1.42935 (Simulation time: 3 hr 37 min 44 sec) 
Heartbeat CPU 0 instructions: 840000000 cycles: 1268735332 heartbeat IPC: 0.495242 cumulative IPC: 0.48253 (Simulation time: 3 hr 38 min 45 sec) 
Heartbeat CPU 3 instructions: 1970000003 cycles: 1270264697 heartbeat IPC: 1.3248 cumulative IPC: 1.42867 (Simulation time: 3 hr 38 min 59 sec) 
Heartbeat CPU 2 instructions: 940000000 cycles: 1277031716 heartbeat IPC: 0.64544 cumulative IPC: 0.562882 (Simulation time: 3 hr 40 min 7 sec) 
Heartbeat CPU 3 instructions: 1980000000 cycles: 1277168223 heartbeat IPC: 1.44853 cumulative IPC: 1.42879 (Simulation time: 3 hr 40 min 8 sec) 
Heartbeat CPU 1 instructions: 590000000 cycles: 1279359609 heartbeat IPC: 0.34953 cumulative IPC: 0.331929 (Simulation time: 3 hr 40 min 32 sec) 
Heartbeat CPU 3 instructions: 1990000001 cycles: 1282827416 heartbeat IPC: 1.76704 cumulative IPC: 1.43042 (Simulation time: 3 hr 41 min 12 sec) 
Heartbeat CPU 0 instructions: 850000001 cycles: 1288330350 heartbeat IPC: 0.510334 cumulative IPC: 0.48299 (Simulation time: 3 hr 42 min 9 sec) 
*** Reached end of trace for Core: 3 Repeating trace: /scratch/user/djimenez/champsim-traces/speccpu2006/xz//454.calculix-460B.champsimtrace.xz
Heartbeat CPU 3 instructions: 2000000000 cycles: 1289237266 heartbeat IPC: 1.5601 cumulative IPC: 1.43112 (Simulation time: 3 hr 42 min 19 sec) 
Heartbeat CPU 2 instructions: 950000000 cycles: 1292517459 heartbeat IPC: 0.645755 cumulative IPC: 0.563962 (Simulation time: 3 hr 42 min 49 sec) 
Heartbeat CPU 3 instructions: 2010000001 cycles: 1296777472 heartbeat IPC: 1.32622 cumulative IPC: 1.43045 (Simulation time: 3 hr 43 min 25 sec) 
Heartbeat CPU 3 instructions: 2020000000 cycles: 1303579070 heartbeat IPC: 1.47024 cumulative IPC: 1.43068 (Simulation time: 3 hr 44 min 28 sec) 
Heartbeat CPU 1 instructions: 600000000 cycles: 1307879572 heartbeat IPC: 0.350632 cumulative IPC: 0.332372 (Simulation time: 3 hr 45 min 9 sec) 
Heartbeat CPU 2 instructions: 960000000 cycles: 1308005906 heartbeat IPC: 0.645643 cumulative IPC: 0.565013 (Simulation time: 3 hr 45 min 10 sec) 
Heartbeat CPU 0 instructions: 860000000 cycles: 1308271751 heartbeat IPC: 0.501469 cumulative IPC: 0.483297 (Simulation time: 3 hr 45 min 13 sec) 
Heartbeat CPU 3 instructions: 2030000000 cycles: 1310305861 heartbeat IPC: 1.48659 cumulative IPC: 1.43099 (Simulation time: 3 hr 45 min 31 sec) 
Heartbeat CPU 3 instructions: 2040000000 cycles: 1316181719 heartbeat IPC: 1.70188 cumulative IPC: 1.4323 (Simulation time: 3 hr 46 min 33 sec) 
Heartbeat CPU 3 instructions: 2050000001 cycles: 1321675874 heartbeat IPC: 1.82012 cumulative IPC: 1.43406 (Simulation time: 3 hr 47 min 31 sec) 
Heartbeat CPU 2 instructions: 970000001 cycles: 1323477698 heartbeat IPC: 0.646338 cumulative IPC: 0.566045 (Simulation time: 3 hr 47 min 47 sec) 
Heartbeat CPU 3 instructions: 2060000000 cycles: 1327648908 heartbeat IPC: 1.67419 cumulative IPC: 1.43523 (Simulation time: 3 hr 48 min 28 sec) 
Heartbeat CPU 0 instructions: 870000002 cycles: 1327981889 heartbeat IPC: 0.507353 cumulative IPC: 0.483684 (Simulation time: 3 hr 48 min 32 sec) 
Heartbeat CPU 1 instructions: 610000000 cycles: 1336206053 heartbeat IPC: 0.353027 cumulative IPC: 0.332847 (Simulation time: 3 hr 49 min 48 sec) 
Heartbeat CPU 3 instructions: 2070000001 cycles: 1337796069 heartbeat IPC: 0.985497 cumulative IPC: 1.43153 (Simulation time: 3 hr 50 min 3 sec) 
Heartbeat CPU 2 instructions: 980000000 cycles: 1338956219 heartbeat IPC: 0.646056 cumulative IPC: 0.567049 (Simulation time: 3 hr 50 min 14 sec) 
Heartbeat CPU 0 instructions: 880000000 cycles: 1346864894 heartbeat IPC: 0.529577 cumulative IPC: 0.484382 (Simulation time: 3 hr 51 min 26 sec) 
Heartbeat CPU 3 instructions: 2080000000 cycles: 1347125262 heartbeat IPC: 1.0719 cumulative IPC: 1.42883 (Simulation time: 3 hr 51 min 29 sec) 
Heartbeat CPU 3 instructions: 2090000002 cycles: 1354360233 heartbeat IPC: 1.38218 cumulative IPC: 1.42856 (Simulation time: 3 hr 52 min 36 sec) 
Heartbeat CPU 2 instructions: 990000002 cycles: 1354442723 heartbeat IPC: 0.645724 cumulative IPC: 0.568023 (Simulation time: 3 hr 52 min 37 sec) 
Heartbeat CPU 3 instructions: 2100000000 cycles: 1360936185 heartbeat IPC: 1.52069 cumulative IPC: 1.42904 (Simulation time: 3 hr 53 min 38 sec) 
Heartbeat CPU 1 instructions: 620000000 cycles: 1365817312 heartbeat IPC: 0.337709 cumulative IPC: 0.332962 (Simulation time: 3 hr 54 min 23 sec) 
Heartbeat CPU 0 instructions: 890000002 cycles: 1366820931 heartbeat IPC: 0.501102 cumulative IPC: 0.484646 (Simulation time: 3 hr 54 min 33 sec) 
Heartbeat CPU 3 instructions: 2110000002 cycles: 1369160796 heartbeat IPC: 1.21586 cumulative IPC: 1.42765 (Simulation time: 3 hr 54 min 58 sec) 
Heartbeat CPU 2 instructions: 1000000000 cycles: 1369944504 heartbeat IPC: 0.645087 cumulative IPC: 0.568967 (Simulation time: 3 hr 55 min 5 sec) 
Heartbeat CPU 3 instructions: 2120000000 cycles: 1376740341 heartbeat IPC: 1.31934 cumulative IPC: 1.42701 (Simulation time: 3 hr 56 min 8 sec) 
Heartbeat CPU 3 instructions: 2130000001 cycles: 1383957107 heartbeat IPC: 1.38566 cumulative IPC: 1.42678 (Simulation time: 3 hr 57 min 14 sec) 
Heartbeat CPU 2 instructions: 1010000000 cycles: 1385462922 heartbeat IPC: 0.644396 cumulative IPC: 0.569881 (Simulation time: 3 hr 57 min 29 sec) 
Heartbeat CPU 0 instructions: 900000000 cycles: 1387524676 heartbeat IPC: 0.483004 cumulative IPC: 0.484619 (Simulation time: 3 hr 57 min 48 sec) 
Heartbeat CPU 3 instructions: 2140000000 cycles: 1391102620 heartbeat IPC: 1.39948 cumulative IPC: 1.42662 (Simulation time: 3 hr 58 min 20 sec) 
Heartbeat CPU 1 instructions: 630000002 cycles: 1396120090 heartbeat IPC: 0.330003 cumulative IPC: 0.332892 (Simulation time: 3 hr 59 min 9 sec) 
Heartbeat CPU 3 instructions: 2150000003 cycles: 1397739930 heartbeat IPC: 1.50663 cumulative IPC: 1.42703 (Simulation time: 3 hr 59 min 24 sec) 
Heartbeat CPU 2 instructions: 1020000000 cycles: 1400963105 heartbeat IPC: 0.645154 cumulative IPC: 0.570781 (Simulation time: 3 hr 59 min 54 sec) 
Heartbeat CPU 3 instructions: 2160000000 cycles: 1405156565 heartbeat IPC: 1.34832 cumulative IPC: 1.42659 (Simulation time: 4 hr 0 min 32 sec) 
Heartbeat CPU 0 instructions: 910000002 cycles: 1408325620 heartbeat IPC: 0.480748 cumulative IPC: 0.484558 (Simulation time: 4 hr 1 min 1 sec) 
Heartbeat CPU 3 instructions: 2170000000 cycles: 1412127326 heartbeat IPC: 1.43456 cumulative IPC: 1.42663 (Simulation time: 4 hr 1 min 36 sec) 
Heartbeat CPU 2 instructions: 1030000003 cycles: 1416456497 heartbeat IPC: 0.645437 cumulative IPC: 0.571662 (Simulation time: 4 hr 2 min 18 sec) 
Heartbeat CPU 3 instructions: 2180000000 cycles: 1418758081 heartbeat IPC: 1.50812 cumulative IPC: 1.42704 (Simulation time: 4 hr 2 min 38 sec) 
Heartbeat CPU 3 instructions: 2190000002 cycles: 1425236393 heartbeat IPC: 1.54361 cumulative IPC: 1.42761 (Simulation time: 4 hr 3 min 40 sec) 
Heartbeat CPU 1 instructions: 640000000 cycles: 1426781790 heartbeat IPC: 0.32614 cumulative IPC: 0.332736 (Simulation time: 4 hr 3 min 54 sec) 
Heartbeat CPU 0 instructions: 920000000 cycles: 1428345701 heartbeat IPC: 0.499498 cumulative IPC: 0.484784 (Simulation time: 4 hr 4 min 10 sec) 
Heartbeat CPU 2 instructions: 1040000000 cycles: 1431918385 heartbeat IPC: 0.646751 cumulative IPC: 0.572537 (Simulation time: 4 hr 4 min 44 sec) 
Heartbeat CPU 3 instructions: 2200000000 cycles: 1432203177 heartbeat IPC: 1.43538 cumulative IPC: 1.42765 (Simulation time: 4 hr 4 min 47 sec) 
Heartbeat CPU 3 instructions: 2210000001 cycles: 1439690908 heartbeat IPC: 1.33552 cumulative IPC: 1.42714 (Simulation time: 4 hr 5 min 53 sec) 
Heartbeat CPU 3 instructions: 2220000000 cycles: 1446635015 heartbeat IPC: 1.44007 cumulative IPC: 1.4272 (Simulation time: 4 hr 6 min 57 sec) 
Heartbeat CPU 2 instructions: 1050000003 cycles: 1447435740 heartbeat IPC: 0.64444 cumulative IPC: 0.573368 (Simulation time: 4 hr 7 min 5 sec) 
Heartbeat CPU 0 instructions: 930000000 cycles: 1448059474 heartbeat IPC: 0.50726 cumulative IPC: 0.485113 (Simulation time: 4 hr 7 min 11 sec) 
Heartbeat CPU 3 instructions: 2230000003 cycles: 1453458823 heartbeat IPC: 1.46546 cumulative IPC: 1.4274 (Simulation time: 4 hr 7 min 58 sec) 
Heartbeat CPU 1 instructions: 650000000 cycles: 1455826750 heartbeat IPC: 0.344294 cumulative IPC: 0.332984 (Simulation time: 4 hr 8 min 19 sec) 
Heartbeat CPU 3 instructions: 2240000000 cycles: 1460225483 heartbeat IPC: 1.47783 cumulative IPC: 1.42765 (Simulation time: 4 hr 8 min 58 sec) 
Heartbeat CPU 2 instructions: 1060000000 cycles: 1462924039 heartbeat IPC: 0.645648 cumulative IPC: 0.574192 (Simulation time: 4 hr 9 min 25 sec) 
Heartbeat CPU 3 instructions: 2250000000 cycles: 1466029567 heartbeat IPC: 1.72292 cumulative IPC: 1.42891 (Simulation time: 4 hr 9 min 52 sec) 
Heartbeat CPU 0 instructions: 940000000 cycles: 1468601520 heartbeat IPC: 0.486806 cumulative IPC: 0.485139 (Simulation time: 4 hr 10 min 16 sec) 
Heartbeat CPU 3 instructions: 2260000000 cycles: 1471570677 heartbeat IPC: 1.80469 cumulative IPC: 1.43043 (Simulation time: 4 hr 10 min 44 sec) 
Heartbeat CPU 3 instructions: 2270000003 cycles: 1478145095 heartbeat IPC: 1.52105 cumulative IPC: 1.43086 (Simulation time: 4 hr 11 min 44 sec) 
Heartbeat CPU 2 instructions: 1070000002 cycles: 1478418014 heartbeat IPC: 0.645412 cumulative IPC: 0.574995 (Simulation time: 4 hr 11 min 46 sec) 
Heartbeat CPU 1 instructions: 660000000 cycles: 1484832850 heartbeat IPC: 0.344755 cumulative IPC: 0.333231 (Simulation time: 4 hr 12 min 43 sec) 
Heartbeat CPU 0 instructions: 950000001 cycles: 1488192047 heartbeat IPC: 0.510451 cumulative IPC: 0.485497 (Simulation time: 4 hr 13 min 13 sec) 
Heartbeat CPU 3 instructions: 2280000000 cycles: 1488443390 heartbeat IPC: 0.971034 cumulative IPC: 1.42744 (Simulation time: 4 hr 13 min 15 sec) 
Heartbeat CPU 2 instructions: 1080000000 cycles: 1493914648 heartbeat IPC: 0.645301 cumulative IPC: 0.575779 (Simulation time: 4 hr 14 min 7 sec) 
Heartbeat CPU 3 instructions: 2290000001 cycles: 1497790052 heartbeat IPC: 1.0699 cumulative IPC: 1.42504 (Simulation time: 4 hr 14 min 40 sec) 
Heartbeat CPU 3 instructions: 2300000000 cycles: 1503772270 heartbeat IPC: 1.67162 cumulative IPC: 1.4261 (Simulation time: 4 hr 15 min 34 sec) 
Heartbeat CPU 0 instructions: 960000000 cycles: 1508349285 heartbeat IPC: 0.4961 cumulative IPC: 0.485649 (Simulation time: 4 hr 16 min 14 sec) 
Heartbeat CPU 2 instructions: 1090000001 cycles: 1509430058 heartbeat IPC: 0.644521 cumulative IPC: 0.576538 (Simulation time: 4 hr 16 min 21 sec) 
Heartbeat CPU 3 instructions: 2310000002 cycles: 1511198172 heartbeat IPC: 1.34664 cumulative IPC: 1.42568 (Simulation time: 4 hr 16 min 40 sec) 
Heartbeat CPU 1 instructions: 670000000 cycles: 1514862977 heartbeat IPC: 0.332999 cumulative IPC: 0.333226 (Simulation time: 4 hr 17 min 14 sec) 
Heartbeat CPU 3 instructions: 2320000000 cycles: 1517950218 heartbeat IPC: 1.48103 cumulative IPC: 1.42594 (Simulation time: 4 hr 17 min 44 sec) 
Heartbeat CPU 2 instructions: 1100000000 cycles: 1524937393 heartbeat IPC: 0.644856 cumulative IPC: 0.577284 (Simulation time: 4 hr 18 min 47 sec) 
Heartbeat CPU 3 instructions: 2330000002 cycles: 1525947047 heartbeat IPC: 1.2505 cumulative IPC: 1.42496 (Simulation time: 4 hr 18 min 56 sec) 
Heartbeat CPU 0 instructions: 970000000 cycles: 1528893413 heartbeat IPC: 0.486757 cumulative IPC: 0.485665 (Simulation time: 4 hr 19 min 21 sec) 
Heartbeat CPU 3 instructions: 2340000000 cycles: 1533583629 heartbeat IPC: 1.30949 cumulative IPC: 1.42434 (Simulation time: 4 hr 19 min 59 sec) 
Heartbeat CPU 2 instructions: 1110000001 cycles: 1540474353 heartbeat IPC: 0.643627 cumulative IPC: 0.578002 (Simulation time: 4 hr 21 min 6 sec) 
Heartbeat CPU 3 instructions: 2350000001 cycles: 1540946602 heartbeat IPC: 1.35815 cumulative IPC: 1.424 (Simulation time: 4 hr 21 min 10 sec) 
Heartbeat CPU 3 instructions: 2360000000 cycles: 1548131260 heartbeat IPC: 1.39185 cumulative IPC: 1.42384 (Simulation time: 4 hr 22 min 14 sec) 
Heartbeat CPU 0 instructions: 980000000 cycles: 1549595947 heartbeat IPC: 0.483033 cumulative IPC: 0.485628 (Simulation time: 4 hr 22 min 28 sec) 
Heartbeat CPU 3 instructions: 2370000000 cycles: 1554637183 heartbeat IPC: 1.53706 cumulative IPC: 1.42435 (Simulation time: 4 hr 23 min 15 sec) 
Heartbeat CPU 2 instructions: 1120000000 cycles: 1555976944 heartbeat IPC: 0.645053 cumulative IPC: 0.578718 (Simulation time: 4 hr 23 min 28 sec) 
Heartbeat CPU 1 instructions: 680000000 cycles: 1558121041 heartbeat IPC: 0.231171 cumulative IPC: 0.33019 (Simulation time: 4 hr 23 min 47 sec) 
Heartbeat CPU 3 instructions: 2380000000 cycles: 1561494367 heartbeat IPC: 1.45832 cumulative IPC: 1.42451 (Simulation time: 4 hr 24 min 19 sec) 
Heartbeat CPU 3 instructions: 2390000002 cycles: 1567879796 heartbeat IPC: 1.56607 cumulative IPC: 1.42512 (Simulation time: 4 hr 25 min 20 sec) 
Heartbeat CPU 0 instructions: 990000003 cycles: 1568318618 heartbeat IPC: 0.534112 cumulative IPC: 0.486248 (Simulation time: 4 hr 25 min 24 sec) 
Heartbeat CPU 2 instructions: 1130000002 cycles: 1571442356 heartbeat IPC: 0.646604 cumulative IPC: 0.579434 (Simulation time: 4 hr 25 min 54 sec) 
Heartbeat CPU 3 instructions: 2400000000 cycles: 1574360064 heartbeat IPC: 1.54315 cumulative IPC: 1.42564 (Simulation time: 4 hr 26 min 22 sec) 
Heartbeat CPU 3 instructions: 2410000000 cycles: 1580885548 heartbeat IPC: 1.53245 cumulative IPC: 1.42612 (Simulation time: 4 hr 27 min 23 sec) 
Heartbeat CPU 1 instructions: 690000002 cycles: 1584174768 heartbeat IPC: 0.383822 cumulative IPC: 0.331134 (Simulation time: 4 hr 27 min 54 sec) 
Heartbeat CPU 2 instructions: 1140000000 cycles: 1586946158 heartbeat IPC: 0.645003 cumulative IPC: 0.580119 (Simulation time: 4 hr 28 min 19 sec) 
Heartbeat CPU 0 instructions: 1000000000 cycles: 1587234799 heartbeat IPC: 0.528648 cumulative IPC: 0.486789 (Simulation time: 4 hr 28 min 22 sec) 
Heartbeat CPU 3 instructions: 2420000000 cycles: 1587670782 heartbeat IPC: 1.47379 cumulative IPC: 1.42633 (Simulation time: 4 hr 28 min 26 sec) 
Heartbeat CPU 3 instructions: 2430000003 cycles: 1594279067 heartbeat IPC: 1.51325 cumulative IPC: 1.42672 (Simulation time: 4 hr 29 min 26 sec) 
Heartbeat CPU 3 instructions: 2440000000 cycles: 1601668034 heartbeat IPC: 1.35337 cumulative IPC: 1.42636 (Simulation time: 4 hr 30 min 29 sec) 
Heartbeat CPU 2 instructions: 1150000001 cycles: 1602465461 heartbeat IPC: 0.644359 cumulative IPC: 0.580785 (Simulation time: 4 hr 30 min 35 sec) 
Heartbeat CPU 0 instructions: 1010000001 cycles: 1607512427 heartbeat IPC: 0.493154 cumulative IPC: 0.486875 (Simulation time: 4 hr 31 min 19 sec) 
Heartbeat CPU 3 instructions: 2450000001 cycles: 1608765929 heartbeat IPC: 1.40887 cumulative IPC: 1.42628 (Simulation time: 4 hr 31 min 30 sec) 
Heartbeat CPU 1 instructions: 700000000 cycles: 1611270558 heartbeat IPC: 0.369061 cumulative IPC: 0.331816 (Simulation time: 4 hr 31 min 52 sec) 
Heartbeat CPU 3 instructions: 2460000000 cycles: 1615457227 heartbeat IPC: 1.49448 cumulative IPC: 1.42658 (Simulation time: 4 hr 32 min 29 sec) 
Heartbeat CPU 2 instructions: 1160000000 cycles: 1617952682 heartbeat IPC: 0.645694 cumulative IPC: 0.581449 (Simulation time: 4 hr 32 min 52 sec) 
Heartbeat CPU 3 instructions: 2470000001 cycles: 1621092716 heartbeat IPC: 1.77447 cumulative IPC: 1.42787 (Simulation time: 4 hr 33 min 23 sec) 
Heartbeat CPU 3 instructions: 2480000000 cycles: 1626826945 heartbeat IPC: 1.74391 cumulative IPC: 1.42906 (Simulation time: 4 hr 34 min 16 sec) 
Heartbeat CPU 0 instructions: 1020000000 cycles: 1628168644 heartbeat IPC: 0.484116 cumulative IPC: 0.486837 (Simulation time: 4 hr 34 min 28 sec) 
Heartbeat CPU 2 instructions: 1170000000 cycles: 1633461350 heartbeat IPC: 0.644801 cumulative IPC: 0.582091 (Simulation time: 4 hr 35 min 11 sec) 
Heartbeat CPU 3 instructions: 2490000001 cycles: 1635280737 heartbeat IPC: 1.1829 cumulative IPC: 1.4277 (Simulation time: 4 hr 35 min 28 sec) 
Heartbeat CPU 1 instructions: 710000001 cycles: 1640261048 heartbeat IPC: 0.344941 cumulative IPC: 0.332064 (Simulation time: 4 hr 36 min 9 sec) 
Heartbeat CPU 3 instructions: 2500000000 cycles: 1644825862 heartbeat IPC: 1.04766 cumulative IPC: 1.42535 (Simulation time: 4 hr 36 min 49 sec) 
Heartbeat CPU 0 instructions: 1030000000 cycles: 1646936505 heartbeat IPC: 0.532826 cumulative IPC: 0.487397 (Simulation time: 4 hr 37 min 8 sec) 
Heartbeat CPU 2 instructions: 1180000000 cycles: 1648964505 heartbeat IPC: 0.64503 cumulative IPC: 0.582723 (Simulation time: 4 hr 37 min 25 sec) 
Heartbeat CPU 3 instructions: 2510000001 cycles: 1652676811 heartbeat IPC: 1.27373 cumulative IPC: 1.42458 (Simulation time: 4 hr 37 min 58 sec) 
[...]
Heartbeat CPU 3 instructions: 4550000003 cycles: 3083131030 heartbeat IPC: 1.42037 cumulative IPC: 1.42532 (Simulation time: 7 hr 55 min 10 sec) 
Heartbeat CPU 0 instructions: 1720000000 cycles: 3085834278 heartbeat IPC: 0.406858 cumulative IPC: 0.483602 (Simulation time: 7 hr 55 min 31 sec) 
Heartbeat CPU 2 instructions: 1990000002 cycles: 3086810786 heartbeat IPC: 1.81044 cumulative IPC: 0.57338 (Simulation time: 7 hr 55 min 37 sec) 
*** Reached end of trace for Core: 2 Repeating trace: /scratch/user/djimenez/champsim-traces/speccpu2006/xz//481.wrf-1254B.champsimtrace.xz
Heartbeat CPU 2 instructions: 2000000000 cycles: 3092367178 heartbeat IPC: 1.79973 cumulative IPC: 0.57566 (Simulation time: 7 hr 56 min 17 sec) 
Heartbeat CPU 3 instructions: 4560000000 cycles: 3092493529 heartbeat IPC: 1.06809 cumulative IPC: 1.4242 (Simulation time: 7 hr 56 min 18 sec) 
Heartbeat CPU 3 instructions: 4570000001 cycles: 3100636275 heartbeat IPC: 1.22809 cumulative IPC: 1.42367 (Simulation time: 7 hr 57 min 8 sec) 
Heartbeat CPU 3 instructions: 4580000000 cycles: 3107945369 heartbeat IPC: 1.36816 cumulative IPC: 1.42353 (Simulation time: 7 hr 57 min 58 sec) 
Heartbeat CPU 1 instructions: 1170000000 cycles: 3108537982 heartbeat IPC: 0.24462 cumulative IPC: 0.322889 (Simulation time: 7 hr 58 min 3 sec) 
Heartbeat CPU 0 instructions: 1730000003 cycles: 3112612254 heartbeat IPC: 0.373441 cumulative IPC: 0.482621 (Simulation time: 7 hr 58 min 32 sec) 
Heartbeat CPU 3 instructions: 4590000001 cycles: 3115358236 heartbeat IPC: 1.34901 cumulative IPC: 1.42335 (Simulation time: 7 hr 58 min 50 sec) 
Heartbeat CPU 2 instructions: 2010000003 cycles: 3117378510 heartbeat IPC: 0.399819 cumulative IPC: 0.5742 (Simulation time: 7 hr 59 min 5 sec) 
Heartbeat CPU 3 instructions: 4600000000 cycles: 3122714447 heartbeat IPC: 1.3594 cumulative IPC: 1.42319 (Simulation time: 7 hr 59 min 45 sec) 
Heartbeat CPU 2 instructions: 2020000000 cycles: 3128004342 heartbeat IPC: 0.941103 cumulative IPC: 0.57549 (Simulation time: 8 hr 0 min 26 sec) 
Heartbeat CPU 3 instructions: 4610000002 cycles: 3129444008 heartbeat IPC: 1.48598 cumulative IPC: 1.42333 (Simulation time: 8 hr 0 min 38 sec) 
Heartbeat CPU 0 instructions: 1740000000 cycles: 3134003769 heartbeat IPC: 0.467475 cumulative IPC: 0.482514 (Simulation time: 8 hr 1 min 18 sec) 
Heartbeat CPU 3 instructions: 4620000000 cycles: 3135687186 heartbeat IPC: 1.60175 cumulative IPC: 1.4237 (Simulation time: 8 hr 1 min 33 sec) 
Heartbeat CPU 2 instructions: 2030000002 cycles: 3138882270 heartbeat IPC: 0.919293 cumulative IPC: 0.576722 (Simulation time: 8 hr 2 min 1 sec) 
Heartbeat CPU 3 instructions: 4630000001 cycles: 3141996450 heartbeat IPC: 1.58497 cumulative IPC: 1.42403 (Simulation time: 8 hr 2 min 27 sec) 
Heartbeat CPU 1 instructions: 1180000000 cycles: 3145574424 heartbeat IPC: 0.270004 cumulative IPC: 0.322245 (Simulation time: 8 hr 2 min 56 sec) 
Heartbeat CPU 3 instructions: 4640000000 cycles: 3148294551 heartbeat IPC: 1.58778 cumulative IPC: 1.42437 (Simulation time: 8 hr 3 min 21 sec) 
Heartbeat CPU 2 instructions: 2040000000 cycles: 3149652094 heartbeat IPC: 0.92852 cumulative IPC: 0.577966 (Simulation time: 8 hr 3 min 33 sec) 
Heartbeat CPU 3 instructions: 4650000003 cycles: 3155281762 heartbeat IPC: 1.43119 cumulative IPC: 1.42439 (Simulation time: 8 hr 4 min 17 sec) 
Heartbeat CPU 0 instructions: 1750000003 cycles: 3155944603 heartbeat IPC: 0.455771 cumulative IPC: 0.482322 (Simulation time: 8 hr 4 min 22 sec) 
Heartbeat CPU 2 instructions: 2050000001 cycles: 3160164387 heartbeat IPC: 0.951267 cumulative IPC: 0.579251 (Simulation time: 8 hr 4 min 59 sec) 
Heartbeat CPU 3 instructions: 4660000000 cycles: 3162205437 heartbeat IPC: 1.44432 cumulative IPC: 1.42443 (Simulation time: 8 hr 5 min 16 sec) 
Heartbeat CPU 3 instructions: 4670000000 cycles: 3169598461 heartbeat IPC: 1.35263 cumulative IPC: 1.42426 (Simulation time: 8 hr 6 min 16 sec) 
Heartbeat CPU 2 instructions: 2060000000 cycles: 3171029782 heartbeat IPC: 0.920353 cumulative IPC: 0.580459 (Simulation time: 8 hr 6 min 28 sec) 
Heartbeat CPU 1 instructions: 1190000000 cycles: 3175726670 heartbeat IPC: 0.33165 cumulative IPC: 0.322337 (Simulation time: 8 hr 7 min 7 sec) 
Heartbeat CPU 3 instructions: 4680000000 cycles: 3176004421 heartbeat IPC: 1.56105 cumulative IPC: 1.42455 (Simulation time: 8 hr 7 min 9 sec) 
Heartbeat CPU 0 instructions: 1760000000 cycles: 3176394214 heartbeat IPC: 0.489007 cumulative IPC: 0.482367 (Simulation time: 8 hr 7 min 13 sec) 
Heartbeat CPU 2 instructions: 2070000002 cycles: 3181891659 heartbeat IPC: 0.920651 cumulative IPC: 0.58166 (Simulation time: 8 hr 7 min 58 sec) 
Heartbeat CPU 3 instructions: 4690000002 cycles: 3182409327 heartbeat IPC: 1.5613 cumulative IPC: 1.42483 (Simulation time: 8 hr 8 min 1 sec) 
Heartbeat CPU 3 instructions: 4700000000 cycles: 3188002130 heartbeat IPC: 1.78801 cumulative IPC: 1.42549 (Simulation time: 8 hr 8 min 48 sec) 
Heartbeat CPU 2 instructions: 2080000000 cycles: 3193838755 heartbeat IPC: 0.837023 cumulative IPC: 0.582647 (Simulation time: 8 hr 9 min 33 sec) 
Heartbeat CPU 3 instructions: 4710000000 cycles: 3197025021 heartbeat IPC: 1.10829 cumulative IPC: 1.42456 (Simulation time: 8 hr 9 min 58 sec) 
Heartbeat CPU 0 instructions: 1770000000 cycles: 3197882805 heartbeat IPC: 0.465363 cumulative IPC: 0.482248 (Simulation time: 8 hr 10 min 4 sec) 
Heartbeat CPU 2 instructions: 2090000000 cycles: 3205724492 heartbeat IPC: 0.841345 cumulative IPC: 0.583639 (Simulation time: 8 hr 11 min 2 sec) 
Heartbeat CPU 3 instructions: 4720000000 cycles: 3206387253 heartbeat IPC: 1.06812 cumulative IPC: 1.42349 (Simulation time: 8 hr 11 min 7 sec) 
Heartbeat CPU 1 instructions: 1200000000 cycles: 3206755563 heartbeat IPC: 0.32228 cumulative IPC: 0.322337 (Simulation time: 8 hr 11 min 10 sec) 
Finished CPU 1 instructions: 1000000000 cycles: 3102345019 cumulative IPC: 0.322337 (Simulation time: 8 hr 11 min 10 sec) 

CPU 0 Branch Prediction Accuracy: 96.612% MPKI: 2.91437

CPU 1 Branch Prediction Accuracy: 95.0999% MPKI: 8.66423

CPU 2 Branch Prediction Accuracy: 99.2193% MPKI: 0.758238

CPU 3 Branch Prediction Accuracy: 98.9263% MPKI: 0.573538

ChampSim completed all CPUs

Total Simulation Statistics (not including warmup)

CPU 0 cumulative IPC: 0.482146 instructions: 1495782929 cycles: 3102345019
L1D TOTAL     ACCESS:  242803561  HIT:  219650679  MISS:   23152882
L1D LOAD      ACCESS:  215522820  HIT:  193204139  MISS:   22318681
L1D RFO       ACCESS:   27280741  HIT:   26446540  MISS:     834201
L1D PREFETCH  ACCESS:          0  HIT:          0  MISS:          0
L1D WRITEBACK ACCESS:          0  HIT:          0  MISS:          0
L1I TOTAL     ACCESS:  391268745  HIT:  391267748  MISS:        997
L1I LOAD      ACCESS:  391268745  HIT:  391267748  MISS:        997
L1I RFO       ACCESS:          0  HIT:          0  MISS:          0
L1I PREFETCH  ACCESS:          0  HIT:          0  MISS:          0
L1I WRITEBACK ACCESS:          0  HIT:          0  MISS:          0
L2C TOTAL     ACCESS:   24630332  HIT:    5501928  MISS:   19128404
L2C LOAD      ACCESS:   22319663  HIT:    3861518  MISS:   18458145
L2C RFO       ACCESS:     834166  HIT:     166820  MISS:     667346
L2C PREFETCH  ACCESS:          0  HIT:          0  MISS:          0
L2C WRITEBACK ACCESS:    1476503  HIT:    1473590  MISS:       2913
LLC TOTAL     ACCESS:   20326810  HIT:    3300943  MISS:   17025867
LLC LOAD      ACCESS:   18458135  HIT:    1936966  MISS:   16521169
LLC RFO       ACCESS:     667335  HIT:     164641  MISS:     502694
LLC PREFETCH  ACCESS:          0  HIT:          0  MISS:          0
LLC WRITEBACK ACCESS:    1201340  HIT:    1199336  MISS:       2004

CPU 1 cumulative IPC: 0.322337 instructions: 1000000000 cycles: 3102345019
L1D TOTAL     ACCESS:  216198705  HIT:  163069475  MISS:   53129230
L1D LOAD      ACCESS:  162375564  HIT:  116802189  MISS:   45573375
L1D RFO       ACCESS:   53823141  HIT:   46267286  MISS:    7555855
L1D PREFETCH  ACCESS:          0  HIT:          0  MISS:          0
L1D WRITEBACK ACCESS:          0  HIT:          0  MISS:          0
L1I TOTAL     ACCESS:  232745568  HIT:  232739056  MISS:       6512
L1I LOAD      ACCESS:  232745568  HIT:  232739056  MISS:       6512
L1I RFO       ACCESS:          0  HIT:          0  MISS:          0
L1I PREFETCH  ACCESS:          0  HIT:          0  MISS:          0
L1I WRITEBACK ACCESS:          0  HIT:          0  MISS:          0
L2C TOTAL     ACCESS:   75408603  HIT:   31713097  MISS:   43695506
L2C LOAD      ACCESS:   45575478  HIT:    8521225  MISS:   37054253
L2C RFO       ACCESS:    7555435  HIT:     915689  MISS:    6639746
L2C PREFETCH  ACCESS:          0  HIT:          0  MISS:          0
L2C WRITEBACK ACCESS:   22277690  HIT:   22276183  MISS:       1507
LLC TOTAL     ACCESS:   60386316  HIT:   37901268  MISS:   22485048
LLC LOAD      ACCESS:   37053955  HIT:   18138243  MISS:   18915712
LLC RFO       ACCESS:    6639719  HIT:    3070538  MISS:    3569181
LLC PREFETCH  ACCESS:          0  HIT:          0  MISS:          0
LLC WRITEBACK ACCESS:   16692642  HIT:   16692487  MISS:        155

CPU 2 cumulative IPC: 0.583631 instructions: 1810624628 cycles: 3102345020
L1D TOTAL     ACCESS:  539831832  HIT:  525356224  MISS:   14475608
L1D LOAD      ACCESS:  334592000  HIT:  326306453  MISS:    8285547
L1D RFO       ACCESS:  205239832  HIT:  199049771  MISS:    6190061
L1D PREFETCH  ACCESS:          0  HIT:          0  MISS:          0
L1D WRITEBACK ACCESS:          0  HIT:          0  MISS:          0
L1I TOTAL     ACCESS:  579230087  HIT:  578021760  MISS:    1208327
L1I LOAD      ACCESS:  579230087  HIT:  578021760  MISS:    1208327
L1I RFO       ACCESS:          0  HIT:          0  MISS:          0
L1I PREFETCH  ACCESS:          0  HIT:          0  MISS:          0
L1I WRITEBACK ACCESS:          0  HIT:          0  MISS:          0
L2C TOTAL     ACCESS:   22602957  HIT:   18313445  MISS:    4289512
L2C LOAD      ACCESS:    9493852  HIT:    6398904  MISS:    3094948
L2C RFO       ACCESS:    6189816  HIT:    4996105  MISS:    1193711
L2C PREFETCH  ACCESS:          0  HIT:          0  MISS:          0
L2C WRITEBACK ACCESS:    6919289  HIT:    6918436  MISS:        853
LLC TOTAL     ACCESS:    6175359  HIT:    1737596  MISS:    4437763
LLC LOAD      ACCESS:    3094948  HIT:      54527  MISS:    3040421
LLC RFO       ACCESS:    1193711  HIT:      38846  MISS:    1154865
LLC PREFETCH  ACCESS:          0  HIT:          0  MISS:          0
LLC WRITEBACK ACCESS:    1886700  HIT:    1644223  MISS:     242477

CPU 3 cumulative IPC: 1.42346 instructions: 4416069661 cycles: 3102345020
L1D TOTAL     ACCESS:  786782207  HIT:  731126072  MISS:   55656135
L1D LOAD      ACCESS:  654903667  HIT:  600268345  MISS:   54635322
L1D RFO       ACCESS:  131878540  HIT:  130857727  MISS:    1020813
L1D PREFETCH  ACCESS:          0  HIT:          0  MISS:          0
L1D WRITEBACK ACCESS:          0  HIT:          0  MISS:          0
L1I TOTAL     ACCESS:  925101977  HIT:  925078759  MISS:      23218
L1I LOAD      ACCESS:  925101977  HIT:  925078759  MISS:      23218
L1I RFO       ACCESS:          0  HIT:          0  MISS:          0
L1I PREFETCH  ACCESS:          0  HIT:          0  MISS:          0
L1I WRITEBACK ACCESS:          0  HIT:          0  MISS:          0
L2C TOTAL     ACCESS:   68842702  HIT:   31309367  MISS:   37533335
L2C LOAD      ACCESS:   54658461  HIT:   18123379  MISS:   36535082
L2C RFO       ACCESS:    1020807  HIT:     141945  MISS:     878862
L2C PREFETCH  ACCESS:          0  HIT:          0  MISS:          0
L2C WRITEBACK ACCESS:   13163434  HIT:   13044043  MISS:     119391
LLC TOTAL     ACCESS:   45920584  HIT:   41060934  MISS:    4859650
LLC LOAD      ACCESS:   36535072  HIT:   32151617  MISS:    4383455
LLC RFO       ACCESS:     878860  HIT:     430940  MISS:     447920
LLC PREFETCH  ACCESS:          0  HIT:          0  MISS:          0
LLC WRITEBACK ACCESS:    8506652  HIT:    8478377  MISS:      28275

Region of Interest Statistics

CPU 0 cumulative IPC: 0.48778 instructions: 1000000001 cycles: 2050104077
L1D TOTAL     ACCESS:  161771117  HIT:  146372626  MISS:   15398491
L1D LOAD      ACCESS:  143841160  HIT:  128981682  MISS:   14859478
L1D RFO       ACCESS:   17929957  HIT:   17390944  MISS:     539013
L1D PREFETCH  ACCESS:          0  HIT:          0  MISS:          0
L1D WRITEBACK ACCESS:          0  HIT:          0  MISS:          0
L1D PREFETCH  REQUESTED:          0  ISSUED:          0  USEFUL:          0  USELESS:          0
L1I TOTAL     ACCESS:  261628056  HIT:  261627445  MISS:        611
L1I LOAD      ACCESS:  261628056  HIT:  261627445  MISS:        611
L1I RFO       ACCESS:          0  HIT:          0  MISS:          0
L1I PREFETCH  ACCESS:          0  HIT:          0  MISS:          0
L1I WRITEBACK ACCESS:          0  HIT:          0  MISS:          0
L1I PREFETCH  REQUESTED:          0  ISSUED:          0  USEFUL:          0  USELESS:          0
L2C TOTAL     ACCESS:   16374687  HIT:    3626483  MISS:   12748204
L2C LOAD      ACCESS:   14860074  HIT:    2543609  MISS:   12316465
L2C RFO       ACCESS:     538991  HIT:     109119  MISS:     429872
L2C PREFETCH  ACCESS:          0  HIT:          0  MISS:          0
L2C WRITEBACK ACCESS:     975622  HIT:     973755  MISS:       1867
L2C PREFETCH  REQUESTED:          0  ISSUED:          0  USEFUL:          0  USELESS:          0
LLC TOTAL     ACCESS:   13542877  HIT:    2261095  MISS:   11281782
LLC LOAD      ACCESS:   12316457  HIT:    1358457  MISS:   10958000
LLC RFO       ACCESS:     429862  HIT:     107270  MISS:     322592
LLC PREFETCH  ACCESS:          0  HIT:          0  MISS:          0
LLC WRITEBACK ACCESS:     796558  HIT:     795368  MISS:       1190
LLC PREFETCH  REQUESTED:          0  ISSUED:          0  USEFUL:          0  USELESS:          0
Major fault: 0 Minor fault: 4486

CPU 1 cumulative IPC: 0.322337 instructions: 1000000000 cycles: 3102345019
L1D TOTAL     ACCESS:  216198705  HIT:  163069475  MISS:   53129230
L1D LOAD      ACCESS:  162375564  HIT:  116802189  MISS:   45573375
L1D RFO       ACCESS:   53823141  HIT:   46267286  MISS:    7555855
L1D PREFETCH  ACCESS:          0  HIT:          0  MISS:          0
L1D WRITEBACK ACCESS:          0  HIT:          0  MISS:          0
L1D PREFETCH  REQUESTED:          0  ISSUED:          0  USEFUL:          0  USELESS:          0
L1I TOTAL     ACCESS:  232745568  HIT:  232739056  MISS:       6512
L1I LOAD      ACCESS:  232745568  HIT:  232739056  MISS:       6512
L1I RFO       ACCESS:          0  HIT:          0  MISS:          0
L1I PREFETCH  ACCESS:          0  HIT:          0  MISS:          0
L1I WRITEBACK ACCESS:          0  HIT:          0  MISS:          0
L1I PREFETCH  REQUESTED:          0  ISSUED:          0  USEFUL:          0  USELESS:          0
L2C TOTAL     ACCESS:   75408603  HIT:   31713097  MISS:   43695506
L2C LOAD      ACCESS:   45575478  HIT:    8521225  MISS:   37054253
L2C RFO       ACCESS:    7555435  HIT:     915689  MISS:    6639746
L2C PREFETCH  ACCESS:          0  HIT:          0  MISS:          0
L2C WRITEBACK ACCESS:   22277690  HIT:   22276183  MISS:       1507
L2C PREFETCH  REQUESTED:          0  ISSUED:          0  USEFUL:          0  USELESS:          0
LLC TOTAL     ACCESS:   60386316  HIT:   37901268  MISS:   22485048
LLC LOAD      ACCESS:   37053955  HIT:   18138243  MISS:   18915712
LLC RFO       ACCESS:    6639719  HIT:    3070538  MISS:    3569181
LLC PREFETCH  ACCESS:          0  HIT:          0  MISS:          0
LLC WRITEBACK ACCESS:   16692642  HIT:   16692487  MISS:        155
LLC PREFETCH  REQUESTED:          0  ISSUED:          0  USEFUL:          0  USELESS:          0
Major fault: 0 Minor fault: 14618

CPU 2 cumulative IPC: 0.588403 instructions: 1000000003 cycles: 1699514382
L1D TOTAL     ACCESS:  311498651  HIT:  304102386  MISS:    7396265
L1D LOAD      ACCESS:  187620836  HIT:  183548399  MISS:    4072437
L1D RFO       ACCESS:  123877815  HIT:  120553987  MISS:    3323828
L1D PREFETCH  ACCESS:          0  HIT:          0  MISS:          0
L1D WRITEBACK ACCESS:          0  HIT:          0  MISS:          0
L1D PREFETCH  REQUESTED:          0  ISSUED:          0  USEFUL:          0  USELESS:          0
L1I TOTAL     ACCESS:  332861350  HIT:  332159869  MISS:     701481
L1I LOAD      ACCESS:  332861350  HIT:  332159869  MISS:     701481
L1I RFO       ACCESS:          0  HIT:          0  MISS:          0
L1I PREFETCH  ACCESS:          0  HIT:          0  MISS:          0
L1I WRITEBACK ACCESS:          0  HIT:          0  MISS:          0
L1I PREFETCH  REQUESTED:          0  ISSUED:          0  USEFUL:          0  USELESS:          0
L2C TOTAL     ACCESS:   11752332  HIT:   10162814  MISS:    1589518
L2C LOAD      ACCESS:    4773906  HIT:    3576038  MISS:    1197868
L2C RFO       ACCESS:    3323683  HIT:    2932468  MISS:     391215
L2C PREFETCH  ACCESS:          0  HIT:          0  MISS:          0
L2C WRITEBACK ACCESS:    3654743  HIT:    3654308  MISS:        435
L2C PREFETCH  REQUESTED:          0  ISSUED:          0  USEFUL:          0  USELESS:          0
LLC TOTAL     ACCESS:    2300866  HIT:     585070  MISS:    1715796
LLC LOAD      ACCESS:    1197868  HIT:       8323  MISS:    1189545
LLC RFO       ACCESS:     391215  HIT:      14525  MISS:     376690
LLC PREFETCH  ACCESS:          0  HIT:          0  MISS:          0
LLC WRITEBACK ACCESS:     711783  HIT:     562222  MISS:     149561
LLC PREFETCH  REQUESTED:          0  ISSUED:          0  USEFUL:          0  USELESS:          0
Major fault: 0 Minor fault: 35848

CPU 3 cumulative IPC: 1.42086 instructions: 1000000003 cycles: 703799568
L1D TOTAL     ACCESS:  172071715  HIT:  159649052  MISS:   12422663
L1D LOAD      ACCESS:  150146572  HIT:  137846594  MISS:   12299978
L1D RFO       ACCESS:   21925143  HIT:   21802458  MISS:     122685
L1D PREFETCH  ACCESS:          0  HIT:          0  MISS:          0
L1D WRITEBACK ACCESS:          0  HIT:          0  MISS:          0
L1D PREFETCH  REQUESTED:          0  ISSUED:          0  USEFUL:          0  USELESS:          0
L1I TOTAL     ACCESS:  203871436  HIT:  203870529  MISS:        907
L1I LOAD      ACCESS:  203871436  HIT:  203870529  MISS:        907
L1I RFO       ACCESS:          0  HIT:          0  MISS:          0
L1I PREFETCH  ACCESS:          0  HIT:          0  MISS:          0
L1I WRITEBACK ACCESS:          0  HIT:          0  MISS:          0
L1I PREFETCH  REQUESTED:          0  ISSUED:          0  USEFUL:          0  USELESS:          0
L2C TOTAL     ACCESS:   14426149  HIT:    4845391  MISS:    9580758
L2C LOAD      ACCESS:   12300882  HIT:    2856630  MISS:    9444252
L2C RFO       ACCESS:     122685  HIT:       8322  MISS:     114363
L2C PREFETCH  ACCESS:          0  HIT:          0  MISS:          0
L2C WRITEBACK ACCESS:    2002582  HIT:    1980439  MISS:      22143
L2C PREFETCH  REQUESTED:          0  ISSUED:          0  USEFUL:          0  USELESS:          0
LLC TOTAL     ACCESS:   11173029  HIT:   10010156  MISS:    1162873
LLC LOAD      ACCESS:    9444249  HIT:    8326024  MISS:    1118225
LLC RFO       ACCESS:     114363  HIT:      76338  MISS:      38025
LLC PREFETCH  ACCESS:          0  HIT:          0  MISS:          0
LLC WRITEBACK ACCESS:    1614417  HIT:    1607794  MISS:       6623
LLC PREFETCH  REQUESTED:          0  ISSUED:          0  USEFUL:          0  USELESS:          0
Major fault: 0 Minor fault: 6829

DRAM Statistics
 CHANNEL 0
 RQ ROW_BUFFER_HIT:   12621093  ROW_BUFFER_MISS:   11641988
 DBUS_CONGESTED:   19768099
 WQ ROW_BUFFER_HIT:     700882  ROW_BUFFER_MISS:    5194635  FULL:          0

 CHANNEL 1
 RQ ROW_BUFFER_HIT:   12609707  ROW_BUFFER_MISS:   11648497
 DBUS_CONGESTED:   19768099
 WQ ROW_BUFFER_HIT:     700512  ROW_BUFFER_MISS:    5185531  FULL:          0

 AVG_CONGESTED_CYCLE: 12
