
*** ChampSim Multicore Out-of-Order Simulator ***

Warmup Instructions: 200000000
Simulation Instructions: 1000000000
Number of CPUs: 4
LLC sets: 8192
LLC ways: 16
Off-chip DRAM Size: 8192 MB Channels: 2 Width: 64-bit Data Rate: 1600 MT/s

CPU 0 runs /scratch/user/djimenez/champsim-traces/speccpu2006/xz//482.sphinx3-1395B.champsimtrace.xz
CPU 1 runs /scratch/user/djimenez/champsim-traces/speccpu2006/xz//481.wrf-1281B.champsimtrace.xz
CPU 2 runs /scratch/user/djimenez/champsim-traces/speccpu2006/xz//454.calculix-460B.champsimtrace.xz
CPU 3 runs /scratch/user/djimenez/champsim-traces/speccpu2006/xz//459.GemsFDTD-1491B.champsimtrace.xz
Heartbeat CPU 2 instructions: 10000000 cycles: 3331433 heartbeat IPC: 3.00171 cumulative IPC: 3.00171 (Simulation time: 0 hr 1 min 21 sec) 
Heartbeat CPU 0 instructions: 10000001 cycles: 3822349 heartbeat IPC: 2.61619 cumulative IPC: 2.61619 (Simulation time: 0 hr 1 min 33 sec) 
Heartbeat CPU 3 instructions: 10000003 cycles: 4422903 heartbeat IPC: 2.26096 cumulative IPC: 2.26096 (Simulation time: 0 hr 1 min 49 sec) 
Heartbeat CPU 1 instructions: 10000000 cycles: 5709508 heartbeat IPC: 1.75146 cumulative IPC: 1.75146 (Simulation time: 0 hr 2 min 21 sec) 
Heartbeat CPU 2 instructions: 20000000 cycles: 6550781 heartbeat IPC: 3.10622 cumulative IPC: 3.05307 (Simulation time: 0 hr 2 min 43 sec) 
Heartbeat CPU 0 instructions: 20000000 cycles: 7713603 heartbeat IPC: 2.56987 cumulative IPC: 2.59282 (Simulation time: 0 hr 3 min 14 sec) 
Heartbeat CPU 3 instructions: 20000000 cycles: 8843651 heartbeat IPC: 2.26206 cumulative IPC: 2.26151 (Simulation time: 0 hr 3 min 43 sec) 
Heartbeat CPU 1 instructions: 20000000 cycles: 9623849 heartbeat IPC: 2.55471 cumulative IPC: 2.07817 (Simulation time: 0 hr 4 min 3 sec) 
Heartbeat CPU 2 instructions: 30000001 cycles: 9847090 heartbeat IPC: 3.0337 cumulative IPC: 3.04659 (Simulation time: 0 hr 4 min 9 sec) 
Heartbeat CPU 0 instructions: 30000000 cycles: 11505359 heartbeat IPC: 2.6373 cumulative IPC: 2.60748 (Simulation time: 0 hr 4 min 53 sec) 
Heartbeat CPU 2 instructions: 40000000 cycles: 13077570 heartbeat IPC: 3.09552 cumulative IPC: 3.05867 (Simulation time: 0 hr 5 min 33 sec) 
Heartbeat CPU 3 instructions: 30000002 cycles: 13266204 heartbeat IPC: 2.26114 cumulative IPC: 2.26139 (Simulation time: 0 hr 5 min 38 sec) 
Heartbeat CPU 1 instructions: 30000001 cycles: 13966458 heartbeat IPC: 2.30276 cumulative IPC: 2.148 (Simulation time: 0 hr 5 min 56 sec) 
Heartbeat CPU 0 instructions: 40000000 cycles: 15326828 heartbeat IPC: 2.61679 cumulative IPC: 2.6098 (Simulation time: 0 hr 6 min 32 sec) 
Heartbeat CPU 2 instructions: 50000000 cycles: 16332172 heartbeat IPC: 3.07257 cumulative IPC: 3.06144 (Simulation time: 0 hr 6 min 59 sec) 
Heartbeat CPU 3 instructions: 40000000 cycles: 17688836 heartbeat IPC: 2.2611 cumulative IPC: 2.26131 (Simulation time: 0 hr 7 min 35 sec) 
Heartbeat CPU 1 instructions: 40000000 cycles: 18353300 heartbeat IPC: 2.27954 cumulative IPC: 2.17944 (Simulation time: 0 hr 7 min 52 sec) 
Heartbeat CPU 0 instructions: 50000000 cycles: 19066173 heartbeat IPC: 2.67427 cumulative IPC: 2.62245 (Simulation time: 0 hr 8 min 11 sec) 
Heartbeat CPU 2 instructions: 60000000 cycles: 19587074 heartbeat IPC: 3.07229 cumulative IPC: 3.06324 (Simulation time: 0 hr 8 min 24 sec) 
Heartbeat CPU 3 instructions: 50000003 cycles: 22110660 heartbeat IPC: 2.26151 cumulative IPC: 2.26135 (Simulation time: 0 hr 9 min 25 sec) 
Heartbeat CPU 0 instructions: 60000000 cycles: 22923312 heartbeat IPC: 2.5926 cumulative IPC: 2.61742 (Simulation time: 0 hr 9 min 45 sec) 
Heartbeat CPU 1 instructions: 50000001 cycles: 23589621 heartbeat IPC: 1.90974 cumulative IPC: 2.11958 (Simulation time: 0 hr 10 min 0 sec) 
Heartbeat CPU 2 instructions: 70000000 cycles: 24022469 heartbeat IPC: 2.25459 cumulative IPC: 2.91394 (Simulation time: 0 hr 10 min 9 sec) 
Heartbeat CPU 3 instructions: 60000000 cycles: 26533438 heartbeat IPC: 2.26102 cumulative IPC: 2.2613 (Simulation time: 0 hr 11 min 8 sec) 
Heartbeat CPU 0 instructions: 70000003 cycles: 26704580 heartbeat IPC: 2.64462 cumulative IPC: 2.62127 (Simulation time: 0 hr 11 min 12 sec) 
Heartbeat CPU 1 instructions: 60000000 cycles: 27414212 heartbeat IPC: 2.61466 cumulative IPC: 2.18865 (Simulation time: 0 hr 11 min 30 sec) 
Heartbeat CPU 2 instructions: 80000000 cycles: 28805917 heartbeat IPC: 2.09054 cumulative IPC: 2.77721 (Simulation time: 0 hr 12 min 4 sec) 
Heartbeat CPU 0 instructions: 80000000 cycles: 30498126 heartbeat IPC: 2.63606 cumulative IPC: 2.62311 (Simulation time: 0 hr 12 min 45 sec) 
Heartbeat CPU 3 instructions: 70000003 cycles: 30954892 heartbeat IPC: 2.2617 cumulative IPC: 2.26136 (Simulation time: 0 hr 12 min 57 sec) 
Heartbeat CPU 1 instructions: 70000003 cycles: 31081374 heartbeat IPC: 2.72691 cumulative IPC: 2.25215 (Simulation time: 0 hr 13 min 0 sec) 
Heartbeat CPU 2 instructions: 90000000 cycles: 32388491 heartbeat IPC: 2.79129 cumulative IPC: 2.77876 (Simulation time: 0 hr 13 min 29 sec) 
Heartbeat CPU 0 instructions: 90000000 cycles: 34189220 heartbeat IPC: 2.70922 cumulative IPC: 2.63241 (Simulation time: 0 hr 14 min 16 sec) 
Heartbeat CPU 1 instructions: 80000000 cycles: 34799881 heartbeat IPC: 2.68925 cumulative IPC: 2.29886 (Simulation time: 0 hr 14 min 32 sec) 
Heartbeat CPU 3 instructions: 80000000 cycles: 35376749 heartbeat IPC: 2.26149 cumulative IPC: 2.26137 (Simulation time: 0 hr 14 min 46 sec) 
Heartbeat CPU 2 instructions: 100000000 cycles: 35569627 heartbeat IPC: 3.14353 cumulative IPC: 2.81139 (Simulation time: 0 hr 14 min 51 sec) 
Heartbeat CPU 0 instructions: 100000000 cycles: 37837113 heartbeat IPC: 2.74131 cumulative IPC: 2.64291 (Simulation time: 0 hr 15 min 50 sec) 
Heartbeat CPU 1 instructions: 90000000 cycles: 38299576 heartbeat IPC: 2.85739 cumulative IPC: 2.3499 (Simulation time: 0 hr 16 min 2 sec) 
Heartbeat CPU 2 instructions: 110000000 cycles: 38753021 heartbeat IPC: 3.1413 cumulative IPC: 2.83849 (Simulation time: 0 hr 16 min 13 sec) 
Heartbeat CPU 3 instructions: 90000000 cycles: 39799442 heartbeat IPC: 2.26107 cumulative IPC: 2.26134 (Simulation time: 0 hr 16 min 38 sec) 
Heartbeat CPU 0 instructions: 110000000 cycles: 41690979 heartbeat IPC: 2.5948 cumulative IPC: 2.63846 (Simulation time: 0 hr 17 min 24 sec) 
Heartbeat CPU 2 instructions: 120000000 cycles: 41927879 heartbeat IPC: 3.14975 cumulative IPC: 2.86206 (Simulation time: 0 hr 17 min 30 sec) 
Heartbeat CPU 1 instructions: 100000000 cycles: 43120814 heartbeat IPC: 2.07416 cumulative IPC: 2.31907 (Simulation time: 0 hr 17 min 59 sec) 
Heartbeat CPU 3 instructions: 100000000 cycles: 44221200 heartbeat IPC: 2.26154 cumulative IPC: 2.26136 (Simulation time: 0 hr 18 min 26 sec) 
Heartbeat CPU 2 instructions: 130000001 cycles: 45100823 heartbeat IPC: 3.15165 cumulative IPC: 2.88243 (Simulation time: 0 hr 18 min 48 sec) 
Heartbeat CPU 0 instructions: 120000000 cycles: 45410098 heartbeat IPC: 2.68881 cumulative IPC: 2.64258 (Simulation time: 0 hr 18 min 55 sec) 
Heartbeat CPU 2 instructions: 140000000 cycles: 48272362 heartbeat IPC: 3.15304 cumulative IPC: 2.90021 (Simulation time: 0 hr 20 min 5 sec) 
Heartbeat CPU 3 instructions: 110000003 cycles: 48642989 heartbeat IPC: 2.26153 cumulative IPC: 2.26137 (Simulation time: 0 hr 20 min 15 sec) 
Heartbeat CPU 1 instructions: 110000003 cycles: 48693789 heartbeat IPC: 1.79437 cumulative IPC: 2.25902 (Simulation time: 0 hr 20 min 16 sec) 
Heartbeat CPU 0 instructions: 130000003 cycles: 49109104 heartbeat IPC: 2.70343 cumulative IPC: 2.64717 (Simulation time: 0 hr 20 min 26 sec) 
Heartbeat CPU 2 instructions: 150000000 cycles: 51438466 heartbeat IPC: 3.15846 cumulative IPC: 2.91611 (Simulation time: 0 hr 21 min 23 sec) 
Heartbeat CPU 0 instructions: 140000000 cycles: 52739874 heartbeat IPC: 2.75424 cumulative IPC: 2.65454 (Simulation time: 0 hr 21 min 56 sec) 
Heartbeat CPU 3 instructions: 120000000 cycles: 53065870 heartbeat IPC: 2.26097 cumulative IPC: 2.26134 (Simulation time: 0 hr 22 min 5 sec) 
Heartbeat CPU 1 instructions: 120000000 cycles: 54283155 heartbeat IPC: 1.78911 cumulative IPC: 2.21063 (Simulation time: 0 hr 22 min 36 sec) 
Heartbeat CPU 2 instructions: 160000000 cycles: 54610757 heartbeat IPC: 3.1523 cumulative IPC: 2.92983 (Simulation time: 0 hr 22 min 45 sec) 
Heartbeat CPU 0 instructions: 150000000 cycles: 56519074 heartbeat IPC: 2.64606 cumulative IPC: 2.65397 (Simulation time: 0 hr 23 min 35 sec) 
Heartbeat CPU 3 instructions: 130000000 cycles: 57487521 heartbeat IPC: 2.2616 cumulative IPC: 2.26136 (Simulation time: 0 hr 24 min 0 sec) 
Heartbeat CPU 2 instructions: 170000000 cycles: 57795831 heartbeat IPC: 3.13964 cumulative IPC: 2.94139 (Simulation time: 0 hr 24 min 8 sec) 
Heartbeat CPU 1 instructions: 130000001 cycles: 59902890 heartbeat IPC: 1.77944 cumulative IPC: 2.17018 (Simulation time: 0 hr 25 min 3 sec) 
Heartbeat CPU 0 instructions: 160000000 cycles: 60143390 heartbeat IPC: 2.75914 cumulative IPC: 2.66031 (Simulation time: 0 hr 25 min 10 sec) 
Heartbeat CPU 2 instructions: 180000000 cycles: 60975586 heartbeat IPC: 3.1449 cumulative IPC: 2.952 (Simulation time: 0 hr 25 min 32 sec) 
Heartbeat CPU 3 instructions: 140000000 cycles: 61910097 heartbeat IPC: 2.26113 cumulative IPC: 2.26134 (Simulation time: 0 hr 25 min 56 sec) 
Heartbeat CPU 0 instructions: 170000003 cycles: 63808632 heartbeat IPC: 2.72833 cumulative IPC: 2.66422 (Simulation time: 0 hr 26 min 45 sec) 
Heartbeat CPU 2 instructions: 190000002 cycles: 64156489 heartbeat IPC: 3.14376 cumulative IPC: 2.96151 (Simulation time: 0 hr 26 min 55 sec) 
Heartbeat CPU 1 instructions: 140000000 cycles: 65482106 heartbeat IPC: 1.79237 cumulative IPC: 2.13799 (Simulation time: 0 hr 27 min 29 sec) 
Heartbeat CPU 3 instructions: 150000000 cycles: 66332820 heartbeat IPC: 2.26105 cumulative IPC: 2.26132 (Simulation time: 0 hr 27 min 51 sec) 
Heartbeat CPU 2 instructions: 200000000 cycles: 67404349 heartbeat IPC: 3.07895 cumulative IPC: 2.96717 (Simulation time: 0 hr 28 min 19 sec) 
Heartbeat CPU 0 instructions: 180000000 cycles: 67511332 heartbeat IPC: 2.70073 cumulative IPC: 2.66622 (Simulation time: 0 hr 28 min 22 sec) 
Heartbeat CPU 3 instructions: 160000000 cycles: 70755442 heartbeat IPC: 2.2611 cumulative IPC: 2.26131 (Simulation time: 0 hr 29 min 44 sec) 
Heartbeat CPU 2 instructions: 210000003 cycles: 70765238 heartbeat IPC: 2.9754 cumulative IPC: 0.141312 (Simulation time: 0 hr 29 min 45 sec) 
Heartbeat CPU 1 instructions: 150000002 cycles: 71065004 heartbeat IPC: 1.79118 cumulative IPC: 2.11074 (Simulation time: 0 hr 29 min 53 sec) 
Heartbeat CPU 0 instructions: 190000003 cycles: 71320207 heartbeat IPC: 2.62545 cumulative IPC: 2.66404 (Simulation time: 0 hr 29 min 59 sec) 
Heartbeat CPU 2 instructions: 220000000 cycles: 74082589 heartbeat IPC: 3.01445 cumulative IPC: 0.269969 (Simulation time: 0 hr 31 min 10 sec) 
Heartbeat CPU 0 instructions: 200000000 cycles: 75086474 heartbeat IPC: 2.65515 cumulative IPC: 2.6636 (Simulation time: 0 hr 31 min 37 sec) 
Heartbeat CPU 3 instructions: 170000001 cycles: 75178512 heartbeat IPC: 2.26087 cumulative IPC: 2.26128 (Simulation time: 0 hr 31 min 40 sec) 
Heartbeat CPU 1 instructions: 160000000 cycles: 75713585 heartbeat IPC: 2.15119 cumulative IPC: 2.11323 (Simulation time: 0 hr 31 min 54 sec) 
Heartbeat CPU 2 instructions: 230000000 cycles: 77302144 heartbeat IPC: 3.10602 cumulative IPC: 0.388088 (Simulation time: 0 hr 32 min 36 sec) 
Heartbeat CPU 0 instructions: 210000003 cycles: 78900271 heartbeat IPC: 2.62206 cumulative IPC: 0.126742 (Simulation time: 0 hr 33 min 18 sec) 
Heartbeat CPU 3 instructions: 180000000 cycles: 79600973 heartbeat IPC: 2.26118 cumulative IPC: 2.26128 (Simulation time: 0 hr 33 min 37 sec) 
Heartbeat CPU 1 instructions: 170000000 cycles: 79763684 heartbeat IPC: 2.46908 cumulative IPC: 2.1313 (Simulation time: 0 hr 33 min 41 sec) 
Heartbeat CPU 2 instructions: 240000000 cycles: 80613307 heartbeat IPC: 3.02009 cumulative IPC: 0.496196 (Simulation time: 0 hr 34 min 3 sec) 
Heartbeat CPU 0 instructions: 220000000 cycles: 82662246 heartbeat IPC: 2.65818 cumulative IPC: 0.241948 (Simulation time: 0 hr 34 min 58 sec) 
Heartbeat CPU 1 instructions: 180000000 cycles: 83820396 heartbeat IPC: 2.46505 cumulative IPC: 2.14745 (Simulation time: 0 hr 35 min 28 sec) 
Heartbeat CPU 2 instructions: 250000002 cycles: 83828524 heartbeat IPC: 3.11021 cumulative IPC: 0.596456 (Simulation time: 0 hr 35 min 29 sec) 
Heartbeat CPU 3 instructions: 190000000 cycles: 84023160 heartbeat IPC: 2.26132 cumulative IPC: 2.26128 (Simulation time: 0 hr 35 min 34 sec) 
Heartbeat CPU 0 instructions: 230000003 cycles: 86588989 heartbeat IPC: 2.54664 cumulative IPC: 0.346464 (Simulation time: 0 hr 36 min 41 sec) 
Heartbeat CPU 2 instructions: 260000000 cycles: 87085799 heartbeat IPC: 3.07005 cumulative IPC: 0.688976 (Simulation time: 0 hr 36 min 54 sec) 
Heartbeat CPU 1 instructions: 190000002 cycles: 87873463 heartbeat IPC: 2.46727 cumulative IPC: 2.1622 (Simulation time: 0 hr 37 min 14 sec) 
Heartbeat CPU 3 instructions: 200000000 cycles: 88446266 heartbeat IPC: 2.26085 cumulative IPC: 2.26126 (Simulation time: 0 hr 37 min 30 sec) 
Heartbeat CPU 0 instructions: 240000000 cycles: 90394257 heartbeat IPC: 2.62793 cumulative IPC: 0.442506 (Simulation time: 0 hr 38 min 21 sec) 
Heartbeat CPU 2 instructions: 270000003 cycles: 90428124 heartbeat IPC: 2.99193 cumulative IPC: 0.774095 (Simulation time: 0 hr 38 min 21 sec) 
Heartbeat CPU 1 instructions: 200000000 cycles: 92048621 heartbeat IPC: 2.39512 cumulative IPC: 2.17276 (Simulation time: 0 hr 39 min 2 sec) 

Warmup complete CPU 0 instructions: 244292005 cycles: 92048624 (Simulation time: 0 hr 39 min 2 sec) 
Warmup complete CPU 1 instructions: 200000002 cycles: 92048624 (Simulation time: 0 hr 39 min 2 sec) 
Warmup complete CPU 2 instructions: 273385479 cycles: 92048623 (Simulation time: 0 hr 39 min 2 sec) 
Warmup complete CPU 3 instructions: 208145628 cycles: 92048623 (Simulation time: 0 hr 39 min 2 sec) 

Heartbeat CPU 3 instructions: 210000001 cycles: 96627122 heartbeat IPC: 1.22237 cumulative IPC: 0.405018 (Simulation time: 0 hr 39 min 47 sec) 
Heartbeat CPU 2 instructions: 280000000 cycles: 98575685 heartbeat IPC: 1.22736 cumulative IPC: 1.0134 (Simulation time: 0 hr 40 min 6 sec) 
Heartbeat CPU 0 instructions: 250000001 cycles: 103543483 heartbeat IPC: 0.760501 cumulative IPC: 0.496569 (Simulation time: 0 hr 40 min 55 sec) 
Heartbeat CPU 2 instructions: 290000001 cycles: 108051132 heartbeat IPC: 1.05536 cumulative IPC: 1.03824 (Simulation time: 0 hr 41 min 37 sec) 
Heartbeat CPU 1 instructions: 210000000 cycles: 109461951 heartbeat IPC: 0.574273 cumulative IPC: 0.574273 (Simulation time: 0 hr 41 min 52 sec) 
Heartbeat CPU 2 instructions: 300000000 cycles: 114083475 heartbeat IPC: 1.65773 cumulative IPC: 1.20784 (Simulation time: 0 hr 42 min 41 sec) 
Heartbeat CPU 3 instructions: 220000000 cycles: 121444414 heartbeat IPC: 0.402945 cumulative IPC: 0.403268 (Simulation time: 0 hr 43 min 51 sec) 
Heartbeat CPU 2 instructions: 310000002 cycles: 121639296 heartbeat IPC: 1.32348 cumulative IPC: 1.23737 (Simulation time: 0 hr 43 min 53 sec) 
Heartbeat CPU 0 instructions: 260000000 cycles: 125387853 heartbeat IPC: 0.457784 cumulative IPC: 0.471157 (Simulation time: 0 hr 44 min 29 sec) 
Heartbeat CPU 1 instructions: 220000000 cycles: 127357369 heartbeat IPC: 0.558802 cumulative IPC: 0.566432 (Simulation time: 0 hr 44 min 48 sec) 
Heartbeat CPU 2 instructions: 320000000 cycles: 128473607 heartbeat IPC: 1.4632 cumulative IPC: 1.27974 (Simulation time: 0 hr 45 min 0 sec) 
Heartbeat CPU 2 instructions: 330000002 cycles: 136534751 heartbeat IPC: 1.24052 cumulative IPC: 1.27263 (Simulation time: 0 hr 46 min 16 sec) 
Heartbeat CPU 2 instructions: 340000000 cycles: 144247622 heartbeat IPC: 1.29653 cumulative IPC: 1.27616 (Simulation time: 0 hr 47 min 30 sec) 
Heartbeat CPU 1 instructions: 230000003 cycles: 145168887 heartbeat IPC: 0.561435 cumulative IPC: 0.564756 (Simulation time: 0 hr 47 min 39 sec) 
Heartbeat CPU 0 instructions: 270000002 cycles: 146029314 heartbeat IPC: 0.484462 cumulative IPC: 0.476244 (Simulation time: 0 hr 47 min 48 sec) 
Heartbeat CPU 3 instructions: 230000002 cycles: 146582767 heartbeat IPC: 0.397799 cumulative IPC: 0.400747 (Simulation time: 0 hr 47 min 54 sec) 
Heartbeat CPU 2 instructions: 350000001 cycles: 151601369 heartbeat IPC: 1.35985 cumulative IPC: 1.2865 (Simulation time: 0 hr 48 min 41 sec) 
Heartbeat CPU 2 instructions: 360000000 cycles: 158970614 heartbeat IPC: 1.35699 cumulative IPC: 1.29426 (Simulation time: 0 hr 49 min 50 sec) 
Heartbeat CPU 1 instructions: 240000000 cycles: 163414164 heartbeat IPC: 0.548087 cumulative IPC: 0.560495 (Simulation time: 0 hr 50 min 32 sec) 
Heartbeat CPU 2 instructions: 370000000 cycles: 165942172 heartbeat IPC: 1.4344 cumulative IPC: 1.30748 (Simulation time: 0 hr 50 min 54 sec) 
Heartbeat CPU 0 instructions: 280000000 cycles: 167501853 heartbeat IPC: 0.465711 cumulative IPC: 0.473247 (Simulation time: 0 hr 51 min 8 sec) 
Heartbeat CPU 3 instructions: 240000000 cycles: 172995944 heartbeat IPC: 0.378599 cumulative IPC: 0.39352 (Simulation time: 0 hr 52 min 0 sec) 
Heartbeat CPU 2 instructions: 380000000 cycles: 173432595 heartbeat IPC: 1.33504 cumulative IPC: 1.31002 (Simulation time: 0 hr 52 min 4 sec) 
Heartbeat CPU 2 instructions: 390000002 cycles: 180439707 heartbeat IPC: 1.42712 cumulative IPC: 1.3193 (Simulation time: 0 hr 53 min 12 sec) 
Heartbeat CPU 1 instructions: 250000001 cycles: 180616722 heartbeat IPC: 0.581309 cumulative IPC: 0.564537 (Simulation time: 0 hr 53 min 14 sec) 
Heartbeat CPU 0 instructions: 290000001 cycles: 185895778 heartbeat IPC: 0.543658 cumulative IPC: 0.487047 (Simulation time: 0 hr 54 min 8 sec) 
Heartbeat CPU 2 instructions: 400000000 cycles: 187000338 heartbeat IPC: 1.52424 cumulative IPC: 1.33346 (Simulation time: 0 hr 54 min 19 sec) 
Heartbeat CPU 2 instructions: 410000000 cycles: 193537024 heartbeat IPC: 1.52983 cumulative IPC: 1.34611 (Simulation time: 0 hr 55 min 24 sec) 
Heartbeat CPU 1 instructions: 260000000 cycles: 197005334 heartbeat IPC: 0.61018 cumulative IPC: 0.571664 (Simulation time: 0 hr 55 min 59 sec) 
Heartbeat CPU 3 instructions: 250000000 cycles: 198101865 heartbeat IPC: 0.398312 cumulative IPC: 0.394654 (Simulation time: 0 hr 56 min 11 sec) 
Heartbeat CPU 2 instructions: 420000000 cycles: 200222616 heartbeat IPC: 1.49575 cumulative IPC: 1.35536 (Simulation time: 0 hr 56 min 31 sec) 
Heartbeat CPU 0 instructions: 300000000 cycles: 202811638 heartbeat IPC: 0.591161 cumulative IPC: 0.502948 (Simulation time: 0 hr 56 min 57 sec) 
Heartbeat CPU 2 instructions: 430000003 cycles: 206948762 heartbeat IPC: 1.48674 cumulative IPC: 1.36305 (Simulation time: 0 hr 57 min 40 sec) 
Heartbeat CPU 1 instructions: 270000002 cycles: 211226242 heartbeat IPC: 0.70319 cumulative IPC: 0.587359 (Simulation time: 0 hr 58 min 22 sec) 
Heartbeat CPU 2 instructions: 440000000 cycles: 215217590 heartbeat IPC: 1.20936 cumulative IPC: 1.35273 (Simulation time: 0 hr 58 min 53 sec) 
Heartbeat CPU 0 instructions: 310000001 cycles: 222548994 heartbeat IPC: 0.506654 cumulative IPC: 0.503508 (Simulation time: 0 hr 59 min 48 sec) 
Heartbeat CPU 2 instructions: 450000000 cycles: 222769325 heartbeat IPC: 1.3242 cumulative IPC: 1.35108 (Simulation time: 0 hr 59 min 50 sec) 
Heartbeat CPU 3 instructions: 260000000 cycles: 226000567 heartbeat IPC: 0.35844 cumulative IPC: 0.387112 (Simulation time: 1 hr 0 min 19 sec) 
Heartbeat CPU 2 instructions: 460000000 cycles: 229554926 heartbeat IPC: 1.47371 cumulative IPC: 1.35713 (Simulation time: 1 hr 0 min 49 sec) 
Heartbeat CPU 2 instructions: 470000001 cycles: 235369228 heartbeat IPC: 1.7199 cumulative IPC: 1.37185 (Simulation time: 1 hr 1 min 41 sec) 
Heartbeat CPU 2 instructions: 480000000 cycles: 241154948 heartbeat IPC: 1.72839 cumulative IPC: 1.38569 (Simulation time: 1 hr 2 min 33 sec) 
Heartbeat CPU 0 instructions: 320000000 cycles: 242743161 heartbeat IPC: 0.495192 cumulative IPC: 0.502394 (Simulation time: 1 hr 2 min 48 sec) 
Heartbeat CPU 1 instructions: 280000000 cycles: 247038304 heartbeat IPC: 0.279235 cumulative IPC: 0.516163 (Simulation time: 1 hr 3 min 18 sec) 
Heartbeat CPU 2 instructions: 490000001 cycles: 250179650 heartbeat IPC: 1.10807 cumulative IPC: 1.36984 (Simulation time: 1 hr 3 min 41 sec) 
Heartbeat CPU 3 instructions: 270000001 cycles: 252078855 heartbeat IPC: 0.383461 cumulative IPC: 0.386517 (Simulation time: 1 hr 3 min 57 sec) 
Heartbeat CPU 2 instructions: 500000000 cycles: 259729830 heartbeat IPC: 1.0471 cumulative IPC: 1.35146 (Simulation time: 1 hr 5 min 4 sec) 
Heartbeat CPU 0 instructions: 330000000 cycles: 263788986 heartbeat IPC: 0.475154 cumulative IPC: 0.499056 (Simulation time: 1 hr 5 min 44 sec) 
Heartbeat CPU 1 instructions: 290000003 cycles: 266281031 heartbeat IPC: 0.519677 cumulative IPC: 0.516551 (Simulation time: 1 hr 6 min 6 sec) 
Heartbeat CPU 2 instructions: 510000001 cycles: 267636000 heartbeat IPC: 1.26484 cumulative IPC: 1.34756 (Simulation time: 1 hr 6 min 18 sec) 
Heartbeat CPU 2 instructions: 520000000 cycles: 274044122 heartbeat IPC: 1.56052 cumulative IPC: 1.35506 (Simulation time: 1 hr 7 min 20 sec) 
Heartbeat CPU 3 instructions: 280000000 cycles: 277113363 heartbeat IPC: 0.399449 cumulative IPC: 0.388266 (Simulation time: 1 hr 7 min 45 sec) 
Heartbeat CPU 2 instructions: 530000001 cycles: 281712121 heartbeat IPC: 1.30412 cumulative IPC: 1.353 (Simulation time: 1 hr 8 min 28 sec) 
Heartbeat CPU 1 instructions: 300000000 cycles: 282961053 heartbeat IPC: 0.599519 cumulative IPC: 0.5238 (Simulation time: 1 hr 8 min 39 sec) 
Heartbeat CPU 0 instructions: 340000000 cycles: 285996505 heartbeat IPC: 0.450298 cumulative IPC: 0.493473 (Simulation time: 1 hr 9 min 7 sec) 
Heartbeat CPU 2 instructions: 540000000 cycles: 289315196 heartbeat IPC: 1.31526 cumulative IPC: 1.35154 (Simulation time: 1 hr 9 min 36 sec) 
Heartbeat CPU 2 instructions: 550000003 cycles: 296106399 heartbeat IPC: 1.47249 cumulative IPC: 1.35557 (Simulation time: 1 hr 10 min 39 sec) 
Heartbeat CPU 1 instructions: 310000002 cycles: 299578892 heartbeat IPC: 0.601763 cumulative IPC: 0.530043 (Simulation time: 1 hr 11 min 9 sec) 
Heartbeat CPU 3 instructions: 290000002 cycles: 302273393 heartbeat IPC: 0.397456 cumulative IPC: 0.389366 (Simulation time: 1 hr 11 min 32 sec) 
Heartbeat CPU 2 instructions: 560000000 cycles: 304153582 heartbeat IPC: 1.24267 cumulative IPC: 1.35129 (Simulation time: 1 hr 11 min 50 sec) 
Heartbeat CPU 0 instructions: 350000003 cycles: 306593996 heartbeat IPC: 0.485496 cumulative IPC: 0.492707 (Simulation time: 1 hr 12 min 13 sec) 
Heartbeat CPU 2 instructions: 570000001 cycles: 311814985 heartbeat IPC: 1.30524 cumulative IPC: 1.34968 (Simulation time: 1 hr 12 min 58 sec) 
Heartbeat CPU 1 instructions: 320000000 cycles: 316130233 heartbeat IPC: 0.604181 cumulative IPC: 0.535519 (Simulation time: 1 hr 13 min 39 sec) 
Heartbeat CPU 2 instructions: 580000000 cycles: 319159250 heartbeat IPC: 1.36161 cumulative IPC: 1.35007 (Simulation time: 1 hr 14 min 5 sec) 
Heartbeat CPU 3 instructions: 300000000 cycles: 326247143 heartbeat IPC: 0.417123 cumulative IPC: 0.392207 (Simulation time: 1 hr 15 min 13 sec) 
Heartbeat CPU 2 instructions: 590000001 cycles: 326419919 heartbeat IPC: 1.37728 cumulative IPC: 1.35091 (Simulation time: 1 hr 15 min 15 sec) 
Heartbeat CPU 0 instructions: 360000000 cycles: 328523903 heartbeat IPC: 0.455998 cumulative IPC: 0.489303 (Simulation time: 1 hr 15 min 36 sec) 
Heartbeat CPU 1 instructions: 330000002 cycles: 332365580 heartbeat IPC: 0.61594 cumulative IPC: 0.540952 (Simulation time: 1 hr 16 min 17 sec) 
Heartbeat CPU 2 instructions: 600000000 cycles: 333442169 heartbeat IPC: 1.42404 cumulative IPC: 1.35304 (Simulation time: 1 hr 16 min 27 sec) 
Heartbeat CPU 2 instructions: 610000002 cycles: 339823059 heartbeat IPC: 1.56718 cumulative IPC: 1.35855 (Simulation time: 1 hr 17 min 34 sec) 
Heartbeat CPU 0 instructions: 370000000 cycles: 344090769 heartbeat IPC: 0.64239 cumulative IPC: 0.498758 (Simulation time: 1 hr 18 min 20 sec) 
Heartbeat CPU 2 instructions: 620000000 cycles: 346144116 heartbeat IPC: 1.58201 cumulative IPC: 1.36411 (Simulation time: 1 hr 18 min 43 sec) 
Heartbeat CPU 3 instructions: 310000002 cycles: 346507582 heartbeat IPC: 0.493573 cumulative IPC: 0.400278 (Simulation time: 1 hr 18 min 46 sec) 
Heartbeat CPU 1 instructions: 340000000 cycles: 348285913 heartbeat IPC: 0.628127 cumulative IPC: 0.546369 (Simulation time: 1 hr 19 min 5 sec) 
Heartbeat CPU 2 instructions: 630000001 cycles: 352376703 heartbeat IPC: 1.60447 cumulative IPC: 1.36987 (Simulation time: 1 hr 19 min 50 sec) 
Heartbeat CPU 2 instructions: 640000000 cycles: 358630910 heartbeat IPC: 1.59892 cumulative IPC: 1.37524 (Simulation time: 1 hr 20 min 58 sec) 
Heartbeat CPU 0 instructions: 380000000 cycles: 358841949 heartbeat IPC: 0.677912 cumulative IPC: 0.508663 (Simulation time: 1 hr 21 min 0 sec) 
Heartbeat CPU 1 instructions: 350000000 cycles: 363986857 heartbeat IPC: 0.636904 cumulative IPC: 0.551596 (Simulation time: 1 hr 21 min 56 sec) 
Heartbeat CPU 2 instructions: 650000003 cycles: 365478558 heartbeat IPC: 1.46036 cumulative IPC: 1.37737 (Simulation time: 1 hr 22 min 11 sec) 
Heartbeat CPU 3 instructions: 320000000 cycles: 366650307 heartbeat IPC: 0.496457 cumulative IPC: 0.407333 (Simulation time: 1 hr 22 min 23 sec) 
Heartbeat CPU 2 instructions: 660000000 cycles: 372256669 heartbeat IPC: 1.47534 cumulative IPC: 1.37974 (Simulation time: 1 hr 23 min 23 sec) 
Heartbeat CPU 0 instructions: 390000003 cycles: 373063549 heartbeat IPC: 0.703156 cumulative IPC: 0.518506 (Simulation time: 1 hr 23 min 32 sec) 
Heartbeat CPU 2 instructions: 670000000 cycles: 379417633 heartbeat IPC: 1.39646 cumulative IPC: 1.38016 (Simulation time: 1 hr 24 min 39 sec) 
Heartbeat CPU 1 instructions: 360000000 cycles: 379849426 heartbeat IPC: 0.630415 cumulative IPC: 0.55594 (Simulation time: 1 hr 24 min 44 sec) 
Heartbeat CPU 2 instructions: 680000000 cycles: 385698545 heartbeat IPC: 1.59213 cumulative IPC: 1.38469 (Simulation time: 1 hr 25 min 48 sec) 
Heartbeat CPU 0 instructions: 400000000 cycles: 386656685 heartbeat IPC: 0.735665 cumulative IPC: 0.528526 (Simulation time: 1 hr 25 min 59 sec) 
Heartbeat CPU 3 instructions: 330000003 cycles: 386777354 heartbeat IPC: 0.496844 cumulative IPC: 0.413446 (Simulation time: 1 hr 26 min 0 sec) 
Heartbeat CPU 2 instructions: 690000002 cycles: 392176755 heartbeat IPC: 1.54364 cumulative IPC: 1.38812 (Simulation time: 1 hr 26 min 58 sec) 
Heartbeat CPU 1 instructions: 370000002 cycles: 395604398 heartbeat IPC: 0.63472 cumulative IPC: 0.560029 (Simulation time: 1 hr 27 min 38 sec) 
Heartbeat CPU 2 instructions: 700000000 cycles: 397790136 heartbeat IPC: 1.78146 cumulative IPC: 1.39534 (Simulation time: 1 hr 28 min 1 sec) 
Heartbeat CPU 0 instructions: 410000002 cycles: 400767093 heartbeat IPC: 0.708697 cumulative IPC: 0.536761 (Simulation time: 1 hr 28 min 30 sec) 
Heartbeat CPU 2 instructions: 710000000 cycles: 407029704 heartbeat IPC: 1.0823 cumulative IPC: 1.38616 (Simulation time: 1 hr 29 min 26 sec) 
Heartbeat CPU 3 instructions: 340000000 cycles: 407221910 heartbeat IPC: 0.489128 cumulative IPC: 0.418355 (Simulation time: 1 hr 29 min 27 sec) 
Heartbeat CPU 1 instructions: 380000000 cycles: 413128730 heartbeat IPC: 0.570635 cumulative IPC: 0.560608 (Simulation time: 1 hr 30 min 24 sec) 
Heartbeat CPU 2 instructions: 720000000 cycles: 416379475 heartbeat IPC: 1.06954 cumulative IPC: 1.37703 (Simulation time: 1 hr 30 min 55 sec) 
Heartbeat CPU 0 instructions: 420000000 cycles: 421232001 heartbeat IPC: 0.488641 cumulative IPC: 0.533769 (Simulation time: 1 hr 31 min 42 sec) 
Heartbeat CPU 2 instructions: 730000002 cycles: 423728714 heartbeat IPC: 1.36069 cumulative IPC: 1.37667 (Simulation time: 1 hr 32 min 7 sec) 
Heartbeat CPU 3 instructions: 350000003 cycles: 427829508 heartbeat IPC: 0.485258 cumulative IPC: 0.422461 (Simulation time: 1 hr 32 min 48 sec) 
Heartbeat CPU 2 instructions: 740000000 cycles: 430744462 heartbeat IPC: 1.42536 cumulative IPC: 1.37768 (Simulation time: 1 hr 33 min 14 sec) 
Heartbeat CPU 1 instructions: 390000000 cycles: 432302137 heartbeat IPC: 0.521556 cumulative IPC: 0.558407 (Simulation time: 1 hr 33 min 28 sec) 
Heartbeat CPU 2 instructions: 750000000 cycles: 437645125 heartbeat IPC: 1.44914 cumulative IPC: 1.37911 (Simulation time: 1 hr 34 min 21 sec) 
Heartbeat CPU 0 instructions: 430000000 cycles: 439206539 heartbeat IPC: 0.556343 cumulative IPC: 0.534938 (Simulation time: 1 hr 34 min 38 sec) 
Heartbeat CPU 2 instructions: 760000000 cycles: 445198220 heartbeat IPC: 1.32396 cumulative IPC: 1.37793 (Simulation time: 1 hr 35 min 36 sec) 
Heartbeat CPU 3 instructions: 360000000 cycles: 448741882 heartbeat IPC: 0.478186 cumulative IPC: 0.425728 (Simulation time: 1 hr 36 min 18 sec) 
Heartbeat CPU 0 instructions: 440000000 cycles: 451831596 heartbeat IPC: 0.792076 cumulative IPC: 0.543961 (Simulation time: 1 hr 36 min 56 sec) 
Heartbeat CPU 2 instructions: 770000000 cycles: 452053154 heartbeat IPC: 1.4588 cumulative IPC: 1.37947 (Simulation time: 1 hr 36 min 58 sec) 
Heartbeat CPU 1 instructions: 400000000 cycles: 453132366 heartbeat IPC: 0.480072 cumulative IPC: 0.553888 (Simulation time: 1 hr 37 min 9 sec) 
Heartbeat CPU 2 instructions: 780000000 cycles: 459171416 heartbeat IPC: 1.40484 cumulative IPC: 1.37996 (Simulation time: 1 hr 38 min 24 sec) 
Heartbeat CPU 0 instructions: 450000002 cycles: 461437497 heartbeat IPC: 1.04103 cumulative IPC: 0.556887 (Simulation time: 1 hr 38 min 54 sec) 
Heartbeat CPU 2 instructions: 790000001 cycles: 466661192 heartbeat IPC: 1.33515 cumulative IPC: 1.37906 (Simulation time: 1 hr 39 min 55 sec) 
Heartbeat CPU 1 instructions: 410000000 cycles: 467480594 heartbeat IPC: 0.69695 cumulative IPC: 0.559356 (Simulation time: 1 hr 40 min 5 sec) 
Heartbeat CPU 3 instructions: 370000000 cycles: 468953836 heartbeat IPC: 0.494757 cumulative IPC: 0.42943 (Simulation time: 1 hr 40 min 24 sec) 
Heartbeat CPU 0 instructions: 460000000 cycles: 471107913 heartbeat IPC: 1.03408 cumulative IPC: 0.569061 (Simulation time: 1 hr 40 min 49 sec) 
Heartbeat CPU 2 instructions: 800000000 cycles: 473792480 heartbeat IPC: 1.40227 cumulative IPC: 1.3795 (Simulation time: 1 hr 41 min 22 sec) 
Heartbeat CPU 2 instructions: 810000000 cycles: 480422298 heartbeat IPC: 1.50834 cumulative IPC: 1.3817 (Simulation time: 1 hr 42 min 44 sec) 
Heartbeat CPU 0 instructions: 470000000 cycles: 481204999 heartbeat IPC: 0.990385 cumulative IPC: 0.579993 (Simulation time: 1 hr 42 min 55 sec) 
Heartbeat CPU 1 instructions: 420000000 cycles: 481625713 heartbeat IPC: 0.706958 cumulative IPC: 0.564715 (Simulation time: 1 hr 43 min 1 sec) 
Heartbeat CPU 2 instructions: 820000000 cycles: 487051220 heartbeat IPC: 1.50854 cumulative IPC: 1.38383 (Simulation time: 1 hr 44 min 8 sec) 
Heartbeat CPU 3 instructions: 380000000 cycles: 488941311 heartbeat IPC: 0.500313 cumulative IPC: 0.433 (Simulation time: 1 hr 44 min 32 sec) 
Heartbeat CPU 0 instructions: 480000000 cycles: 491458174 heartbeat IPC: 0.975308 cumulative IPC: 0.590141 (Simulation time: 1 hr 45 min 2 sec) 
Heartbeat CPU 2 instructions: 830000002 cycles: 493698282 heartbeat IPC: 1.50442 cumulative IPC: 1.38582 (Simulation time: 1 hr 45 min 29 sec) 
Heartbeat CPU 1 instructions: 430000001 cycles: 495962048 heartbeat IPC: 0.697528 cumulative IPC: 0.569429 (Simulation time: 1 hr 45 min 56 sec) 
Heartbeat CPU 2 instructions: 840000000 cycles: 500048190 heartbeat IPC: 1.57483 cumulative IPC: 1.38876 (Simulation time: 1 hr 46 min 47 sec) 
Heartbeat CPU 0 instructions: 490000001 cycles: 501751679 heartbeat IPC: 0.971487 cumulative IPC: 0.599722 (Simulation time: 1 hr 47 min 8 sec) 
Heartbeat CPU 2 instructions: 850000000 cycles: 506449188 heartbeat IPC: 1.56226 cumulative IPC: 1.39144 (Simulation time: 1 hr 48 min 6 sec) 
Heartbeat CPU 3 instructions: 390000002 cycles: 509053157 heartbeat IPC: 0.49722 cumulative IPC: 0.436097 (Simulation time: 1 hr 48 min 38 sec) 
Heartbeat CPU 1 instructions: 440000000 cycles: 510233470 heartbeat IPC: 0.700701 cumulative IPC: 0.573909 (Simulation time: 1 hr 48 min 53 sec) 
Heartbeat CPU 0 instructions: 500000000 cycles: 512069974 heartbeat IPC: 0.969152 cumulative IPC: 0.608798 (Simulation time: 1 hr 49 min 16 sec) 
Heartbeat CPU 2 instructions: 860000000 cycles: 513333234 heartbeat IPC: 1.45263 cumulative IPC: 1.39244 (Simulation time: 1 hr 49 min 30 sec) 
Heartbeat CPU 2 instructions: 870000000 cycles: 520471497 heartbeat IPC: 1.4009 cumulative IPC: 1.39258 (Simulation time: 1 hr 50 min 57 sec) 
Heartbeat CPU 0 instructions: 510000001 cycles: 522103046 heartbeat IPC: 0.996704 cumulative IPC: 0.617847 (Simulation time: 1 hr 51 min 18 sec) 
Heartbeat CPU 1 instructions: 450000001 cycles: 524331279 heartbeat IPC: 0.70933 cumulative IPC: 0.578325 (Simulation time: 1 hr 51 min 46 sec) 
Heartbeat CPU 2 instructions: 880000000 cycles: 527202738 heartbeat IPC: 1.48561 cumulative IPC: 1.39402 (Simulation time: 1 hr 52 min 21 sec) 
Heartbeat CPU 3 instructions: 400000000 cycles: 529011572 heartbeat IPC: 0.501042 cumulative IPC: 0.439063 (Simulation time: 1 hr 52 min 44 sec) 
Heartbeat CPU 0 instructions: 520000000 cycles: 532038944 heartbeat IPC: 1.00645 cumulative IPC: 0.626623 (Simulation time: 1 hr 53 min 20 sec) 
Heartbeat CPU 2 instructions: 890000001 cycles: 533367089 heartbeat IPC: 1.62223 cumulative IPC: 1.39721 (Simulation time: 1 hr 53 min 37 sec) 
Heartbeat CPU 1 instructions: 460000000 cycles: 538893017 heartbeat IPC: 0.686731 cumulative IPC: 0.581858 (Simulation time: 1 hr 54 min 46 sec) 
Heartbeat CPU 2 instructions: 900000000 cycles: 539596546 heartbeat IPC: 1.60528 cumulative IPC: 1.40011 (Simulation time: 1 hr 54 min 55 sec) 
Heartbeat CPU 0 instructions: 530000000 cycles: 541369094 heartbeat IPC: 1.07179 cumulative IPC: 0.635867 (Simulation time: 1 hr 55 min 19 sec) 
Heartbeat CPU 2 instructions: 910000002 cycles: 545664855 heartbeat IPC: 1.64791 cumulative IPC: 1.40342 (Simulation time: 1 hr 56 min 16 sec) 
Heartbeat CPU 3 instructions: 410000001 cycles: 549041278 heartbeat IPC: 0.499258 cumulative IPC: 0.441702 (Simulation time: 1 hr 56 min 56 sec) 
Heartbeat CPU 0 instructions: 540000000 cycles: 549310216 heartbeat IPC: 1.25927 cumulative IPC: 0.646693 (Simulation time: 1 hr 57 min 0 sec) 
Heartbeat CPU 1 instructions: 470000001 cycles: 553141895 heartbeat IPC: 0.70181 cumulative IPC: 0.585565 (Simulation time: 1 hr 57 min 48 sec) 
Heartbeat CPU 2 instructions: 920000000 cycles: 555709107 heartbeat IPC: 0.995594 cumulative IPC: 1.39459 (Simulation time: 1 hr 58 min 21 sec) 
Heartbeat CPU 0 instructions: 550000002 cycles: 557139419 heartbeat IPC: 1.27727 cumulative IPC: 0.657308 (Simulation time: 1 hr 58 min 40 sec) 
Heartbeat CPU 2 instructions: 930000003 cycles: 564209422 heartbeat IPC: 1.17643 cumulative IPC: 1.39066 (Simulation time: 2 hr 0 min 10 sec) 
Heartbeat CPU 0 instructions: 560000000 cycles: 565149803 heartbeat IPC: 1.24838 cumulative IPC: 0.667316 (Simulation time: 2 hr 0 min 22 sec) 
Heartbeat CPU 1 instructions: 480000000 cycles: 567564635 heartbeat IPC: 0.693349 cumulative IPC: 0.588834 (Simulation time: 2 hr 0 min 55 sec) 
Heartbeat CPU 3 instructions: 420000000 cycles: 569020304 heartbeat IPC: 0.500525 cumulative IPC: 0.444166 (Simulation time: 2 hr 1 min 14 sec) 
Heartbeat CPU 2 instructions: 940000000 cycles: 570143021 heartbeat IPC: 1.68532 cumulative IPC: 1.39432 (Simulation time: 2 hr 1 min 29 sec) 
Heartbeat CPU 0 instructions: 570000003 cycles: 573238740 heartbeat IPC: 1.23626 cumulative IPC: 0.67688 (Simulation time: 2 hr 2 min 8 sec) 
Heartbeat CPU 2 instructions: 950000003 cycles: 577083685 heartbeat IPC: 1.44078 cumulative IPC: 1.39498 (Simulation time: 2 hr 2 min 58 sec) 
Heartbeat CPU 0 instructions: 580000000 cycles: 581128757 heartbeat IPC: 1.26742 cumulative IPC: 0.686407 (Simulation time: 2 hr 3 min 51 sec) 
Heartbeat CPU 1 instructions: 490000002 cycles: 582270552 heartbeat IPC: 0.679999 cumulative IPC: 0.591569 (Simulation time: 2 hr 4 min 6 sec) 
Heartbeat CPU 2 instructions: 960000000 cycles: 584261425 heartbeat IPC: 1.3932 cumulative IPC: 1.39495 (Simulation time: 2 hr 4 min 29 sec) 
Heartbeat CPU 0 instructions: 590000001 cycles: 589101797 heartbeat IPC: 1.25423 cumulative IPC: 0.695515 (Simulation time: 2 hr 5 min 29 sec) 
Heartbeat CPU 2 instructions: 970000000 cycles: 590812661 heartbeat IPC: 1.52643 cumulative IPC: 1.39668 (Simulation time: 2 hr 5 min 48 sec) 
Heartbeat CPU 3 instructions: 430000002 cycles: 591934773 heartbeat IPC: 0.436406 cumulative IPC: 0.44381 (Simulation time: 2 hr 6 min 1 sec) 
Heartbeat CPU 2 instructions: 980000000 cycles: 598516167 heartbeat IPC: 1.29811 cumulative IPC: 1.39518 (Simulation time: 2 hr 7 min 2 sec) 
Heartbeat CPU 1 instructions: 500000000 cycles: 599176160 heartbeat IPC: 0.59152 cumulative IPC: 0.591567 (Simulation time: 2 hr 7 min 9 sec) 
Heartbeat CPU 0 instructions: 600000000 cycles: 601241713 heartbeat IPC: 0.823729 cumulative IPC: 0.698572 (Simulation time: 2 hr 7 min 28 sec) 
Heartbeat CPU 2 instructions: 990000002 cycles: 606250026 heartbeat IPC: 1.29302 cumulative IPC: 1.39365 (Simulation time: 2 hr 8 min 11 sec) 
Heartbeat CPU 2 instructions: 1000000000 cycles: 613111659 heartbeat IPC: 1.45738 cumulative IPC: 1.39448 (Simulation time: 2 hr 9 min 15 sec) 
Heartbeat CPU 1 instructions: 510000000 cycles: 617550798 heartbeat IPC: 0.544228 cumulative IPC: 0.589912 (Simulation time: 2 hr 9 min 52 sec) 
Heartbeat CPU 0 instructions: 610000000 cycles: 621214856 heartbeat IPC: 0.500672 cumulative IPC: 0.691102 (Simulation time: 2 hr 10 min 26 sec) 
Heartbeat CPU 2 instructions: 1010000001 cycles: 621283428 heartbeat IPC: 1.22373 cumulative IPC: 1.39185 (Simulation time: 2 hr 10 min 27 sec) 
Heartbeat CPU 2 instructions: 1020000000 cycles: 628644026 heartbeat IPC: 1.35859 cumulative IPC: 1.39139 (Simulation time: 2 hr 11 min 34 sec) 
Heartbeat CPU 2 instructions: 1030000001 cycles: 635804121 heartbeat IPC: 1.39663 cumulative IPC: 1.39146 (Simulation time: 2 hr 12 min 40 sec) 
Heartbeat CPU 1 instructions: 520000000 cycles: 635891266 heartbeat IPC: 0.545242 cumulative IPC: 0.588405 (Simulation time: 2 hr 12 min 41 sec) 
Heartbeat CPU 0 instructions: 620000000 cycles: 639073320 heartbeat IPC: 0.559959 cumulative IPC: 0.686821 (Simulation time: 2 hr 13 min 22 sec) 
Heartbeat CPU 3 instructions: 440000000 cycles: 642132337 heartbeat IPC: 0.199213 cumulative IPC: 0.421489 (Simulation time: 2 hr 14 min 18 sec) 
Heartbeat CPU 2 instructions: 1040000000 cycles: 642929992 heartbeat IPC: 1.40334 cumulative IPC: 1.39161 (Simulation time: 2 hr 14 min 27 sec) 
Heartbeat CPU 2 instructions: 1050000001 cycles: 649590678 heartbeat IPC: 1.50135 cumulative IPC: 1.39293 (Simulation time: 2 hr 15 min 47 sec) 
Heartbeat CPU 0 instructions: 630000000 cycles: 651917818 heartbeat IPC: 0.778543 cumulative IPC: 0.688925 (Simulation time: 2 hr 16 min 13 sec) 
Heartbeat CPU 1 instructions: 530000002 cycles: 653336838 heartbeat IPC: 0.573211 cumulative IPC: 0.587933 (Simulation time: 2 hr 16 min 31 sec) 
Heartbeat CPU 2 instructions: 1060000000 cycles: 655931119 heartbeat IPC: 1.57718 cumulative IPC: 1.395 (Simulation time: 2 hr 17 min 3 sec) 
Heartbeat CPU 2 instructions: 1070000001 cycles: 661831701 heartbeat IPC: 1.69475 cumulative IPC: 1.3981 (Simulation time: 2 hr 18 min 21 sec) 
Heartbeat CPU 3 instructions: 450000000 cycles: 662011045 heartbeat IPC: 0.503051 cumulative IPC: 0.424334 (Simulation time: 2 hr 18 min 23 sec) 
Heartbeat CPU 0 instructions: 640000000 cycles: 662161318 heartbeat IPC: 0.976229 cumulative IPC: 0.694087 (Simulation time: 2 hr 18 min 25 sec) 
Heartbeat CPU 2 instructions: 1080000000 cycles: 668511442 heartbeat IPC: 1.49706 cumulative IPC: 1.39925 (Simulation time: 2 hr 19 min 41 sec) 
Heartbeat CPU 1 instructions: 540000000 cycles: 670531164 heartbeat IPC: 0.581587 cumulative IPC: 0.587745 (Simulation time: 2 hr 20 min 2 sec) 
Heartbeat CPU 0 instructions: 650000002 cycles: 674289322 heartbeat IPC: 0.824538 cumulative IPC: 0.696805 (Simulation time: 2 hr 20 min 42 sec) 
Heartbeat CPU 2 instructions: 1090000003 cycles: 675993447 heartbeat IPC: 1.33654 cumulative IPC: 1.39844 (Simulation time: 2 hr 20 min 59 sec) 
Heartbeat CPU 3 instructions: 460000000 cycles: 682397004 heartbeat IPC: 0.490534 cumulative IPC: 0.42662 (Simulation time: 2 hr 22 min 12 sec) 
Heartbeat CPU 2 instructions: 1100000000 cycles: 682949645 heartbeat IPC: 1.43757 cumulative IPC: 1.39891 (Simulation time: 2 hr 22 min 19 sec) 
Heartbeat CPU 0 instructions: 660000000 cycles: 684713065 heartbeat IPC: 0.959348 cumulative IPC: 0.701422 (Simulation time: 2 hr 22 min 39 sec) 
Heartbeat CPU 1 instructions: 550000000 cycles: 686821412 heartbeat IPC: 0.613864 cumulative IPC: 0.58846 (Simulation time: 2 hr 23 min 6 sec) 
Heartbeat CPU 2 instructions: 1110000001 cycles: 688863250 heartbeat IPC: 1.69102 cumulative IPC: 1.4018 (Simulation time: 2 hr 23 min 33 sec) 
Heartbeat CPU 0 instructions: 670000000 cycles: 693265894 heartbeat IPC: 1.1692 cumulative IPC: 0.708077 (Simulation time: 2 hr 24 min 33 sec) 
Heartbeat CPU 2 instructions: 1120000000 cycles: 694875867 heartbeat IPC: 1.66317 cumulative IPC: 1.40441 (Simulation time: 2 hr 24 min 54 sec) 
Heartbeat CPU 0 instructions: 680000000 cycles: 701205268 heartbeat IPC: 1.25955 cumulative IPC: 0.715264 (Simulation time: 2 hr 26 min 16 sec) 
Heartbeat CPU 3 instructions: 470000002 cycles: 702156019 heartbeat IPC: 0.506098 cumulative IPC: 0.429194 (Simulation time: 2 hr 26 min 31 sec) 
Heartbeat CPU 1 instructions: 560000000 cycles: 702243901 heartbeat IPC: 0.648404 cumulative IPC: 0.589975 (Simulation time: 2 hr 26 min 32 sec) 
Heartbeat CPU 2 instructions: 1130000000 cycles: 704294892 heartbeat IPC: 1.06168 cumulative IPC: 1.39913 (Simulation time: 2 hr 26 min 58 sec) 
Heartbeat CPU 0 instructions: 690000000 cycles: 709396087 heartbeat IPC: 1.22088 cumulative IPC: 0.721973 (Simulation time: 2 hr 28 min 1 sec) 
Heartbeat CPU 2 instructions: 1140000000 cycles: 713216276 heartbeat IPC: 1.1209 cumulative IPC: 1.39514 (Simulation time: 2 hr 28 min 47 sec) 
Heartbeat CPU 0 instructions: 700000000 cycles: 717706198 heartbeat IPC: 1.20335 cumulative IPC: 0.728366 (Simulation time: 2 hr 29 min 39 sec) 
Heartbeat CPU 2 instructions: 1150000002 cycles: 719253113 heartbeat IPC: 1.6565 cumulative IPC: 1.39765 (Simulation time: 2 hr 30 min 0 sec) 
Heartbeat CPU 3 instructions: 480000000 cycles: 722089412 heartbeat IPC: 0.501671 cumulative IPC: 0.431487 (Simulation time: 2 hr 30 min 32 sec) 
Heartbeat CPU 1 instructions: 570000003 cycles: 725853914 heartbeat IPC: 0.423549 cumulative IPC: 0.583776 (Simulation time: 2 hr 31 min 8 sec) 
Heartbeat CPU 2 instructions: 1160000000 cycles: 726363764 heartbeat IPC: 1.40634 cumulative IPC: 1.39775 (Simulation time: 2 hr 31 min 14 sec) 
Heartbeat CPU 0 instructions: 710000003 cycles: 727839157 heartbeat IPC: 0.986879 cumulative IPC: 0.732487 (Simulation time: 2 hr 31 min 29 sec) 
Heartbeat CPU 2 instructions: 1170000000 cycles: 733762950 heartbeat IPC: 1.3515 cumulative IPC: 1.39722 (Simulation time: 2 hr 32 min 30 sec) 
Heartbeat CPU 0 instructions: 720000000 cycles: 738241057 heartbeat IPC: 0.961363 cumulative IPC: 0.736171 (Simulation time: 2 hr 33 min 16 sec) 
Heartbeat CPU 2 instructions: 1180000000 cycles: 740359869 heartbeat IPC: 1.51586 cumulative IPC: 1.39842 (Simulation time: 2 hr 33 min 38 sec) 
Heartbeat CPU 3 instructions: 490000000 cycles: 742496197 heartbeat IPC: 0.490033 cumulative IPC: 0.433324 (Simulation time: 2 hr 33 min 58 sec) 
Heartbeat CPU 2 instructions: 1190000002 cycles: 747803648 heartbeat IPC: 1.3434 cumulative IPC: 1.3978 (Simulation time: 2 hr 34 min 51 sec) 
Heartbeat CPU 0 instructions: 730000001 cycles: 751445847 heartbeat IPC: 0.757301 cumulative IPC: 0.736594 (Simulation time: 2 hr 35 min 29 sec) 
Heartbeat CPU 2 instructions: 1200000000 cycles: 755229310 heartbeat IPC: 1.34668 cumulative IPC: 1.39723 (Simulation time: 2 hr 36 min 5 sec) 
Heartbeat CPU 1 instructions: 580000000 cycles: 756224335 heartbeat IPC: 0.329268 cumulative IPC: 0.572138 (Simulation time: 2 hr 36 min 15 sec) 
Heartbeat CPU 2 instructions: 1210000001 cycles: 762383688 heartbeat IPC: 1.39775 cumulative IPC: 1.39723 (Simulation time: 2 hr 37 min 18 sec) 
Heartbeat CPU 3 instructions: 500000000 cycles: 762901124 heartbeat IPC: 0.490078 cumulative IPC: 0.43505 (Simulation time: 2 hr 37 min 22 sec) 
Heartbeat CPU 0 instructions: 740000000 cycles: 768542818 heartbeat IPC: 0.584899 cumulative IPC: 0.73276 (Simulation time: 2 hr 38 min 21 sec) 
Heartbeat CPU 2 instructions: 1220000000 cycles: 769407486 heartbeat IPC: 1.42373 cumulative IPC: 1.39751 (Simulation time: 2 hr 38 min 30 sec) 
Heartbeat CPU 1 instructions: 590000001 cycles: 775308690 heartbeat IPC: 0.523989 cumulative IPC: 0.570793 (Simulation time: 2 hr 39 min 29 sec) 
Heartbeat CPU 2 instructions: 1230000000 cycles: 777118192 heartbeat IPC: 1.2969 cumulative IPC: 1.39638 (Simulation time: 2 hr 39 min 47 sec) 
Heartbeat CPU 3 instructions: 510000001 cycles: 783299730 heartbeat IPC: 0.49023 cumulative IPC: 0.436678 (Simulation time: 2 hr 40 min 47 sec) 
Heartbeat CPU 2 instructions: 1240000000 cycles: 784161440 heartbeat IPC: 1.4198 cumulative IPC: 1.39661 (Simulation time: 2 hr 40 min 56 sec) 
Heartbeat CPU 0 instructions: 750000001 cycles: 784721126 heartbeat IPC: 0.618112 cumulative IPC: 0.730082 (Simulation time: 2 hr 41 min 1 sec) 
Heartbeat CPU 2 instructions: 1250000000 cycles: 790884085 heartbeat IPC: 1.48751 cumulative IPC: 1.39749 (Simulation time: 2 hr 42 min 7 sec) 
Heartbeat CPU 1 instructions: 600000000 cycles: 795088225 heartbeat IPC: 0.505573 cumulative IPC: 0.568958 (Simulation time: 2 hr 42 min 54 sec) 
Heartbeat CPU 2 instructions: 1260000000 cycles: 797421822 heartbeat IPC: 1.52958 cumulative IPC: 1.39871 (Simulation time: 2 hr 43 min 21 sec) 
Heartbeat CPU 0 instructions: 760000000 cycles: 800375323 heartbeat IPC: 0.638806 cumulative IPC: 0.728065 (Simulation time: 2 hr 43 min 54 sec) 
Heartbeat CPU 3 instructions: 520000000 cycles: 803285328 heartbeat IPC: 0.50036 cumulative IPC: 0.438468 (Simulation time: 2 hr 44 min 28 sec) 
Heartbeat CPU 2 instructions: 1270000002 cycles: 804340034 heartbeat IPC: 1.44546 cumulative IPC: 1.39917 (Simulation time: 2 hr 44 min 40 sec) 
Finished CPU 2 instructions: 1000000002 cycles: 714317202 cumulative IPC: 1.39994 (Simulation time: 2 hr 45 min 3 sec) 
Heartbeat CPU 2 instructions: 1280000000 cycles: 810320132 heartbeat IPC: 1.67221 cumulative IPC: 1.40144 (Simulation time: 2 hr 45 min 49 sec) 
Heartbeat CPU 1 instructions: 610000000 cycles: 810958071 heartbeat IPC: 0.630126 cumulative IPC: 0.570308 (Simulation time: 2 hr 45 min 57 sec) 
Heartbeat CPU 0 instructions: 770000000 cycles: 815478607 heartbeat IPC: 0.662108 cumulative IPC: 0.726688 (Simulation time: 2 hr 46 min 47 sec) 
Heartbeat CPU 2 instructions: 1290000000 cycles: 816246587 heartbeat IPC: 1.68735 cumulative IPC: 1.40378 (Simulation time: 2 hr 46 min 56 sec) 
Heartbeat CPU 3 instructions: 530000003 cycles: 823084232 heartbeat IPC: 0.505079 cumulative IPC: 0.440272 (Simulation time: 2 hr 48 min 11 sec) 
Heartbeat CPU 2 instructions: 1300000000 cycles: 823127305 heartbeat IPC: 1.45334 cumulative IPC: 1.40425 (Simulation time: 2 hr 48 min 11 sec) 
Heartbeat CPU 1 instructions: 620000000 cycles: 826783747 heartbeat IPC: 0.631885 cumulative IPC: 0.571635 (Simulation time: 2 hr 48 min 51 sec) 
Heartbeat CPU 2 instructions: 1310000001 cycles: 830235479 heartbeat IPC: 1.40683 cumulative IPC: 1.40427 (Simulation time: 2 hr 49 min 27 sec) 
Heartbeat CPU 0 instructions: 780000000 cycles: 832371701 heartbeat IPC: 0.591958 cumulative IPC: 0.723614 (Simulation time: 2 hr 50 min 2 sec) 
Heartbeat CPU 2 instructions: 1320000000 cycles: 836029203 heartbeat IPC: 1.72601 cumulative IPC: 1.40678 (Simulation time: 2 hr 51 min 29 sec) 
Heartbeat CPU 2 instructions: 1330000001 cycles: 842242405 heartbeat IPC: 1.60948 cumulative IPC: 1.40846 (Simulation time: 2 hr 53 min 35 sec) 
Heartbeat CPU 1 instructions: 630000000 cycles: 842655105 heartbeat IPC: 0.630066 cumulative IPC: 0.57287 (Simulation time: 2 hr 53 min 39 sec) 
Heartbeat CPU 3 instructions: 540000000 cycles: 842920371 heartbeat IPC: 0.50413 cumulative IPC: 0.441959 (Simulation time: 2 hr 53 min 42 sec) 
Heartbeat CPU 0 instructions: 790000000 cycles: 851422069 heartbeat IPC: 0.524924 cumulative IPC: 0.718629 (Simulation time: 2 hr 55 min 9 sec) 
Heartbeat CPU 2 instructions: 1340000000 cycles: 852196794 heartbeat IPC: 1.00458 cumulative IPC: 1.40317 (Simulation time: 2 hr 55 min 18 sec) 
Heartbeat CPU 1 instructions: 640000000 cycles: 858552839 heartbeat IPC: 0.62902 cumulative IPC: 0.574035 (Simulation time: 2 hr 56 min 27 sec) 
Heartbeat CPU 2 instructions: 1350000001 cycles: 860328901 heartbeat IPC: 1.22969 cumulative IPC: 1.40133 (Simulation time: 2 hr 56 min 47 sec) 
Heartbeat CPU 3 instructions: 550000001 cycles: 862756299 heartbeat IPC: 0.504136 cumulative IPC: 0.443559 (Simulation time: 2 hr 57 min 14 sec) 
Heartbeat CPU 2 instructions: 1360000000 cycles: 866462868 heartbeat IPC: 1.63027 cumulative IPC: 1.40314 (Simulation time: 2 hr 57 min 55 sec) 
Heartbeat CPU 0 instructions: 800000000 cycles: 869665028 heartbeat IPC: 0.548157 cumulative IPC: 0.71463 (Simulation time: 2 hr 58 min 28 sec) 
Heartbeat CPU 2 instructions: 1370000002 cycles: 873326050 heartbeat IPC: 1.45705 cumulative IPC: 1.40362 (Simulation time: 2 hr 59 min 7 sec) 
Heartbeat CPU 1 instructions: 650000000 cycles: 874735470 heartbeat IPC: 0.617947 cumulative IPC: 0.574943 (Simulation time: 2 hr 59 min 23 sec) 
Heartbeat CPU 2 instructions: 1380000000 cycles: 880363495 heartbeat IPC: 1.42097 cumulative IPC: 1.40377 (Simulation time: 3 hr 0 min 20 sec) 
Heartbeat CPU 3 instructions: 560000000 cycles: 882768036 heartbeat IPC: 0.499707 cumulative IPC: 0.44498 (Simulation time: 3 hr 0 min 45 sec) 
Heartbeat CPU 2 instructions: 1390000001 cycles: 887386291 heartbeat IPC: 1.42393 cumulative IPC: 1.40395 (Simulation time: 3 hr 1 min 32 sec) 
Heartbeat CPU 0 instructions: 810000002 cycles: 888669264 heartbeat IPC: 0.526199 cumulative IPC: 0.710135 (Simulation time: 3 hr 1 min 45 sec) 
Heartbeat CPU 1 instructions: 660000000 cycles: 890715090 heartbeat IPC: 0.625797 cumulative IPC: 0.57596 (Simulation time: 3 hr 2 min 8 sec) 
Heartbeat CPU 2 instructions: 1400000000 cycles: 894469519 heartbeat IPC: 1.41179 cumulative IPC: 1.40402 (Simulation time: 3 hr 2 min 48 sec) 
Heartbeat CPU 2 instructions: 1410000002 cycles: 901481538 heartbeat IPC: 1.42612 cumulative IPC: 1.40421 (Simulation time: 3 hr 4 min 4 sec) 
Heartbeat CPU 3 instructions: 570000003 cycles: 902721750 heartbeat IPC: 0.50116 cumulative IPC: 0.446363 (Simulation time: 3 hr 4 min 17 sec) 
Heartbeat CPU 0 instructions: 820000000 cycles: 905430629 heartbeat IPC: 0.59661 cumulative IPC: 0.707795 (Simulation time: 3 hr 4 min 48 sec) 
Heartbeat CPU 1 instructions: 670000003 cycles: 906684935 heartbeat IPC: 0.62618 cumulative IPC: 0.576945 (Simulation time: 3 hr 5 min 3 sec) 
Heartbeat CPU 2 instructions: 1420000000 cycles: 908503060 heartbeat IPC: 1.42419 cumulative IPC: 1.40438 (Simulation time: 3 hr 5 min 21 sec) 
Heartbeat CPU 2 instructions: 1430000003 cycles: 914891342 heartbeat IPC: 1.56537 cumulative IPC: 1.40563 (Simulation time: 3 hr 6 min 33 sec) 
Heartbeat CPU 0 instructions: 830000000 cycles: 920602931 heartbeat IPC: 0.659096 cumulative IPC: 0.706904 (Simulation time: 3 hr 7 min 36 sec) 
Heartbeat CPU 2 instructions: 1440000000 cycles: 922347890 heartbeat IPC: 1.3411 cumulative IPC: 1.40505 (Simulation time: 3 hr 7 min 56 sec) 
Heartbeat CPU 1 instructions: 680000000 cycles: 922558301 heartbeat IPC: 0.629986 cumulative IPC: 0.577958 (Simulation time: 3 hr 7 min 59 sec) 
Heartbeat CPU 3 instructions: 580000000 cycles: 922609494 heartbeat IPC: 0.502822 cumulative IPC: 0.447715 (Simulation time: 3 hr 7 min 59 sec) 
Heartbeat CPU 2 instructions: 1450000002 cycles: 928766182 heartbeat IPC: 1.55805 cumulative IPC: 1.40623 (Simulation time: 3 hr 9 min 18 sec) 
Heartbeat CPU 2 instructions: 1460000000 cycles: 935258811 heartbeat IPC: 1.54021 cumulative IPC: 1.40726 (Simulation time: 3 hr 10 min 29 sec) 
Heartbeat CPU 0 instructions: 840000000 cycles: 935372615 heartbeat IPC: 0.677063 cumulative IPC: 0.706381 (Simulation time: 3 hr 10 min 30 sec) 
Heartbeat CPU 1 instructions: 690000000 cycles: 939831187 heartbeat IPC: 0.578942 cumulative IPC: 0.577978 (Simulation time: 3 hr 11 min 18 sec) 
Heartbeat CPU 3 instructions: 590000001 cycles: 941794145 heartbeat IPC: 0.52125 cumulative IPC: 0.449375 (Simulation time: 3 hr 11 min 38 sec) 
Heartbeat CPU 2 instructions: 1470000002 cycles: 941870687 heartbeat IPC: 1.51243 cumulative IPC: 1.40808 (Simulation time: 3 hr 11 min 39 sec) 
Heartbeat CPU 2 instructions: 1480000000 cycles: 947692142 heartbeat IPC: 1.71778 cumulative IPC: 1.41018 (Simulation time: 3 hr 12 min 44 sec) 
Heartbeat CPU 2 instructions: 1490000002 cycles: 953427360 heartbeat IPC: 1.74361 cumulative IPC: 1.4124 (Simulation time: 3 hr 13 min 49 sec) 
Heartbeat CPU 0 instructions: 850000000 cycles: 954905922 heartbeat IPC: 0.511946 cumulative IPC: 0.701979 (Simulation time: 3 hr 14 min 5 sec) 
Heartbeat CPU 1 instructions: 700000000 cycles: 956250051 heartbeat IPC: 0.609056 cumulative IPC: 0.578569 (Simulation time: 3 hr 14 min 28 sec) 
Heartbeat CPU 3 instructions: 600000000 cycles: 960291221 heartbeat IPC: 0.540626 cumulative IPC: 0.451319 (Simulation time: 3 hr 15 min 51 sec) 
Heartbeat CPU 2 instructions: 1500000000 cycles: 960678673 heartbeat IPC: 1.37906 cumulative IPC: 1.41213 (Simulation time: 3 hr 15 min 58 sec) 
Heartbeat CPU 2 instructions: 1510000003 cycles: 967706831 heartbeat IPC: 1.42285 cumulative IPC: 1.41221 (Simulation time: 3 hr 18 min 23 sec) 
Heartbeat CPU 0 instructions: 860000000 cycles: 971602578 heartbeat IPC: 0.598922 cumulative IPC: 0.700023 (Simulation time: 3 hr 19 min 48 sec) 
Heartbeat CPU 2 instructions: 1520000000 cycles: 973840433 heartbeat IPC: 1.63036 cumulative IPC: 1.41373 (Simulation time: 3 hr 20 min 41 sec) 
Heartbeat CPU 3 instructions: 610000001 cycles: 979050993 heartbeat IPC: 0.533056 cumulative IPC: 0.453048 (Simulation time: 3 hr 22 min 35 sec) 
Heartbeat CPU 1 instructions: 710000000 cycles: 979662817 heartbeat IPC: 0.427117 cumulative IPC: 0.574574 (Simulation time: 3 hr 22 min 49 sec) 
Heartbeat CPU 0 instructions: 870000002 cycles: 983237525 heartbeat IPC: 0.85948 cumulative IPC: 0.702105 (Simulation time: 3 hr 24 min 17 sec) 
Heartbeat CPU 2 instructions: 1530000000 cycles: 983750205 heartbeat IPC: 1.0091 cumulative IPC: 1.40923 (Simulation time: 3 hr 24 min 30 sec) 
Heartbeat CPU 2 instructions: 1540000000 cycles: 992410087 heartbeat IPC: 1.15475 cumulative IPC: 1.40678 (Simulation time: 3 hr 28 min 2 sec) 
Heartbeat CPU 0 instructions: 880000000 cycles: 992944464 heartbeat IPC: 1.03019 cumulative IPC: 0.70564 (Simulation time: 3 hr 28 min 15 sec) 
Heartbeat CPU 1 instructions: 720000000 cycles: 997749872 heartbeat IPC: 0.552882 cumulative IPC: 0.574141 (Simulation time: 3 hr 29 min 31 sec) 
Heartbeat CPU 3 instructions: 620000000 cycles: 997783812 heartbeat IPC: 0.533822 cumulative IPC: 0.454718 (Simulation time: 3 hr 29 min 32 sec) 
Heartbeat CPU 2 instructions: 1550000001 cycles: 998968508 heartbeat IPC: 1.52476 cumulative IPC: 1.40764 (Simulation time: 3 hr 29 min 48 sec) 
Heartbeat CPU 0 instructions: 890000000 cycles: 1001386409 heartbeat IPC: 1.18456 cumulative IPC: 0.710086 (Simulation time: 3 hr 30 min 18 sec) 
Heartbeat CPU 2 instructions: 1560000000 cycles: 1006193721 heartbeat IPC: 1.38404 cumulative IPC: 1.40745 (Simulation time: 3 hr 31 min 12 sec) 
Heartbeat CPU 0 instructions: 900000000 cycles: 1011585299 heartbeat IPC: 0.980499 cumulative IPC: 0.713085 (Simulation time: 3 hr 32 min 15 sec) 
Heartbeat CPU 2 instructions: 1570000000 cycles: 1013584426 heartbeat IPC: 1.35305 cumulative IPC: 1.40701 (Simulation time: 3 hr 32 min 38 sec) 
Heartbeat CPU 3 instructions: 630000001 cycles: 1016636656 heartbeat IPC: 0.530424 cumulative IPC: 0.456262 (Simulation time: 3 hr 33 min 15 sec) 
Heartbeat CPU 2 instructions: 1580000000 cycles: 1020554768 heartbeat IPC: 1.43465 cumulative IPC: 1.40722 (Simulation time: 3 hr 34 min 0 sec) 
Heartbeat CPU 0 instructions: 910000003 cycles: 1021162897 heartbeat IPC: 1.0441 cumulative IPC: 0.716497 (Simulation time: 3 hr 34 min 7 sec) 
Heartbeat CPU 1 instructions: 730000000 cycles: 1025189693 heartbeat IPC: 0.364434 cumulative IPC: 0.567974 (Simulation time: 3 hr 34 min 52 sec) 
Heartbeat CPU 2 instructions: 1590000003 cycles: 1027779308 heartbeat IPC: 1.38417 cumulative IPC: 1.40704 (Simulation time: 3 hr 35 min 22 sec) 
Heartbeat CPU 0 instructions: 920000000 cycles: 1030864684 heartbeat IPC: 1.03074 cumulative IPC: 0.719745 (Simulation time: 3 hr 35 min 58 sec) 
Heartbeat CPU 2 instructions: 1600000000 cycles: 1033643983 heartbeat IPC: 1.70512 cumulative IPC: 1.4089 (Simulation time: 3 hr 36 min 31 sec) 
Heartbeat CPU 3 instructions: 640000000 cycles: 1035338537 heartbeat IPC: 0.534706 cumulative IPC: 0.457817 (Simulation time: 3 hr 36 min 50 sec) 
Heartbeat CPU 0 instructions: 930000000 cycles: 1040977668 heartbeat IPC: 0.988828 cumulative IPC: 0.722613 (Simulation time: 3 hr 37 min 54 sec) 
Heartbeat CPU 2 instructions: 1610000001 cycles: 1041764319 heartbeat IPC: 1.23148 cumulative IPC: 1.40738 (Simulation time: 3 hr 38 min 4 sec) 
Heartbeat CPU 1 instructions: 740000000 cycles: 1044615277 heartbeat IPC: 0.514785 cumulative IPC: 0.566889 (Simulation time: 3 hr 38 min 37 sec) 
Heartbeat CPU 2 instructions: 1620000000 cycles: 1048454073 heartbeat IPC: 1.49482 cumulative IPC: 1.408 (Simulation time: 3 hr 39 min 27 sec) 
Heartbeat CPU 0 instructions: 940000000 cycles: 1052293787 heartbeat IPC: 0.883695 cumulative IPC: 0.724511 (Simulation time: 3 hr 40 min 15 sec) 
Heartbeat CPU 3 instructions: 650000000 cycles: 1054037966 heartbeat IPC: 0.534776 cumulative IPC: 0.459313 (Simulation time: 3 hr 40 min 34 sec) 
Heartbeat CPU 2 instructions: 1630000002 cycles: 1055291472 heartbeat IPC: 1.46254 cumulative IPC: 1.40838 (Simulation time: 3 hr 40 min 53 sec) 
Heartbeat CPU 1 instructions: 750000003 cycles: 1055578039 heartbeat IPC: 0.912179 cumulative IPC: 0.570818 (Simulation time: 3 hr 40 min 57 sec) 
Heartbeat CPU 2 instructions: 1640000000 cycles: 1061861028 heartbeat IPC: 1.52217 cumulative IPC: 1.40915 (Simulation time: 3 hr 42 min 16 sec) 
Heartbeat CPU 0 instructions: 950000003 cycles: 1062674561 heartbeat IPC: 0.96332 cumulative IPC: 0.727065 (Simulation time: 3 hr 42 min 27 sec) 
Heartbeat CPU 1 instructions: 760000000 cycles: 1066595310 heartbeat IPC: 0.907665 cumulative IPC: 0.574626 (Simulation time: 3 hr 43 min 16 sec) 
Heartbeat CPU 2 instructions: 1650000001 cycles: 1070408210 heartbeat IPC: 1.16998 cumulative IPC: 1.40706 (Simulation time: 3 hr 44 min 6 sec) 
Heartbeat CPU 3 instructions: 660000000 cycles: 1072205187 heartbeat IPC: 0.550442 cumulative IPC: 0.461002 (Simulation time: 3 hr 44 min 26 sec) 
Heartbeat CPU 0 instructions: 960000000 cycles: 1072945964 heartbeat IPC: 0.973577 cumulative IPC: 0.729646 (Simulation time: 3 hr 44 min 36 sec) 
Heartbeat CPU 2 instructions: 1660000000 cycles: 1076939503 heartbeat IPC: 1.53109 cumulative IPC: 1.40789 (Simulation time: 3 hr 45 min 33 sec) 
Heartbeat CPU 1 instructions: 770000003 cycles: 1077014676 heartbeat IPC: 0.959752 cumulative IPC: 0.5787 (Simulation time: 3 hr 45 min 34 sec) 
Heartbeat CPU 0 instructions: 970000001 cycles: 1082719266 heartbeat IPC: 1.0232 cumulative IPC: 0.732542 (Simulation time: 3 hr 46 min 48 sec) 
Heartbeat CPU 2 instructions: 1670000001 cycles: 1082896041 heartbeat IPC: 1.67883 cumulative IPC: 1.40952 (Simulation time: 3 hr 46 min 50 sec) 
Heartbeat CPU 1 instructions: 780000000 cycles: 1087293099 heartbeat IPC: 0.972912 cumulative IPC: 0.582771 (Simulation time: 3 hr 47 min 46 sec) 
Heartbeat CPU 2 instructions: 1680000000 cycles: 1089481066 heartbeat IPC: 1.5186 cumulative IPC: 1.41024 (Simulation time: 3 hr 48 min 16 sec) 
Heartbeat CPU 3 instructions: 670000000 cycles: 1090595285 heartbeat IPC: 0.543771 cumulative IPC: 0.462527 (Simulation time: 3 hr 48 min 29 sec) 
Heartbeat CPU 0 instructions: 980000000 cycles: 1092378882 heartbeat IPC: 1.03524 cumulative IPC: 0.735465 (Simulation time: 3 hr 48 min 55 sec) 
Heartbeat CPU 2 instructions: 1690000000 cycles: 1097058195 heartbeat IPC: 1.31976 cumulative IPC: 1.40955 (Simulation time: 3 hr 49 min 53 sec) 
Heartbeat CPU 1 instructions: 790000002 cycles: 1097385261 heartbeat IPC: 0.990868 cumulative IPC: 0.586868 (Simulation time: 3 hr 49 min 57 sec) 
Heartbeat CPU 0 instructions: 990000000 cycles: 1102832444 heartbeat IPC: 0.956612 cumulative IPC: 0.737752 (Simulation time: 3 hr 51 min 9 sec) 
Heartbeat CPU 2 instructions: 1700000000 cycles: 1105470056 heartbeat IPC: 1.1888 cumulative IPC: 1.40772 (Simulation time: 3 hr 51 min 39 sec) 
Heartbeat CPU 1 instructions: 800000000 cycles: 1108330525 heartbeat IPC: 0.913637 cumulative IPC: 0.590387 (Simulation time: 3 hr 52 min 45 sec) 
Heartbeat CPU 3 instructions: 680000000 cycles: 1108870838 heartbeat IPC: 0.547179 cumulative IPC: 0.464048 (Simulation time: 3 hr 52 min 58 sec) 
Heartbeat CPU 2 instructions: 1710000002 cycles: 1112410779 heartbeat IPC: 1.44077 cumulative IPC: 1.40795 (Simulation time: 3 hr 54 min 28 sec) 
Heartbeat CPU 0 instructions: 1000000000 cycles: 1113738494 heartbeat IPC: 0.916922 cumulative IPC: 0.739665 (Simulation time: 3 hr 55 min 1 sec) 
Heartbeat CPU 1 instructions: 810000001 cycles: 1119793571 heartbeat IPC: 0.872369 cumulative IPC: 0.593532 (Simulation time: 3 hr 57 min 20 sec) 
Heartbeat CPU 2 instructions: 1720000000 cycles: 1120415730 heartbeat IPC: 1.24923 cumulative IPC: 1.40671 (Simulation time: 3 hr 57 min 39 sec) 
Heartbeat CPU 0 instructions: 1010000001 cycles: 1125283844 heartbeat IPC: 0.86615 cumulative IPC: 0.741078 (Simulation time: 3 hr 59 min 19 sec) 
Heartbeat CPU 3 instructions: 690000003 cycles: 1127663683 heartbeat IPC: 0.532118 cumulative IPC: 0.465283 (Simulation time: 4 hr 0 min 10 sec) 
Heartbeat CPU 2 instructions: 1730000001 cycles: 1128316114 heartbeat IPC: 1.26576 cumulative IPC: 1.40564 (Simulation time: 4 hr 0 min 23 sec) 
Heartbeat CPU 2 instructions: 1740000000 cycles: 1134642620 heartbeat IPC: 1.58065 cumulative IPC: 1.4067 (Simulation time: 4 hr 1 min 51 sec) 
Heartbeat CPU 1 instructions: 820000000 cycles: 1138215205 heartbeat IPC: 0.54284 cumulative IPC: 0.59264 (Simulation time: 4 hr 2 min 27 sec) 
Heartbeat CPU 0 instructions: 1020000000 cycles: 1139788486 heartbeat IPC: 0.689434 cumulative IPC: 0.740363 (Simulation time: 4 hr 2 min 45 sec) 
Heartbeat CPU 2 instructions: 1750000003 cycles: 1141422529 heartbeat IPC: 1.47495 cumulative IPC: 1.40714 (Simulation time: 4 hr 3 min 3 sec) 
Heartbeat CPU 2 instructions: 1760000000 cycles: 1147988439 heartbeat IPC: 1.52302 cumulative IPC: 1.40786 (Simulation time: 4 hr 4 min 12 sec) 
Heartbeat CPU 3 instructions: 700000000 cycles: 1148486932 heartbeat IPC: 0.480232 cumulative IPC: 0.465578 (Simulation time: 4 hr 4 min 18 sec) 
Heartbeat CPU 0 instructions: 1030000002 cycles: 1152973349 heartbeat IPC: 0.758446 cumulative IPC: 0.740588 (Simulation time: 4 hr 5 min 10 sec) 
Heartbeat CPU 1 instructions: 830000001 cycles: 1153546751 heartbeat IPC: 0.65225 cumulative IPC: 0.593501 (Simulation time: 4 hr 5 min 17 sec) 
Heartbeat CPU 2 instructions: 1770000003 cycles: 1155017661 heartbeat IPC: 1.42263 cumulative IPC: 1.40796 (Simulation time: 4 hr 5 min 36 sec) 
Heartbeat CPU 2 instructions: 1780000000 cycles: 1161261955 heartbeat IPC: 1.60146 cumulative IPC: 1.40909 (Simulation time: 4 hr 7 min 0 sec) 
Heartbeat CPU 1 instructions: 840000000 cycles: 1162448562 heartbeat IPC: 1.12337 cumulative IPC: 0.597907 (Simulation time: 4 hr 7 min 15 sec) 
Heartbeat CPU 0 instructions: 1040000000 cycles: 1163956580 heartbeat IPC: 0.910479 cumulative IPC: 0.742329 (Simulation time: 4 hr 7 min 37 sec) 
Heartbeat CPU 3 instructions: 710000001 cycles: 1167201028 heartbeat IPC: 0.534357 cumulative IPC: 0.466775 (Simulation time: 4 hr 8 min 21 sec) 
Heartbeat CPU 2 instructions: 1790000002 cycles: 1168127133 heartbeat IPC: 1.45663 cumulative IPC: 1.40939 (Simulation time: 4 hr 8 min 34 sec) 
Heartbeat CPU 1 instructions: 850000000 cycles: 1171882113 heartbeat IPC: 1.06005 cumulative IPC: 0.601945 (Simulation time: 4 hr 9 min 53 sec) 
Heartbeat CPU 2 instructions: 1800000000 cycles: 1174214311 heartbeat IPC: 1.6428 cumulative IPC: 1.4107 (Simulation time: 4 hr 10 min 55 sec) 
Heartbeat CPU 0 instructions: 1050000000 cycles: 1175336431 heartbeat IPC: 0.878746 cumulative IPC: 0.743762 (Simulation time: 4 hr 11 min 14 sec) 
Heartbeat CPU 2 instructions: 1810000000 cycles: 1180156046 heartbeat IPC: 1.68301 cumulative IPC: 1.41219 (Simulation time: 4 hr 12 min 24 sec) 
Heartbeat CPU 1 instructions: 860000000 cycles: 1182344407 heartbeat IPC: 0.955813 cumulative IPC: 0.60534 (Simulation time: 4 hr 12 min 52 sec) 
Heartbeat CPU 3 instructions: 720000000 cycles: 1185481659 heartbeat IPC: 0.547027 cumulative IPC: 0.468117 (Simulation time: 4 hr 13 min 33 sec) 
Heartbeat CPU 0 instructions: 1060000000 cycles: 1186409420 heartbeat IPC: 0.903099 cumulative IPC: 0.745374 (Simulation time: 4 hr 13 min 44 sec) 
Heartbeat CPU 2 instructions: 1820000000 cycles: 1188424313 heartbeat IPC: 1.20944 cumulative IPC: 1.41066 (Simulation time: 4 hr 14 min 4 sec) 
Heartbeat CPU 1 instructions: 870000000 cycles: 1193415712 heartbeat IPC: 0.903236 cumulative IPC: 0.608335 (Simulation time: 4 hr 15 min 10 sec) 
Heartbeat CPU 2 instructions: 1830000001 cycles: 1194316908 heartbeat IPC: 1.69705 cumulative IPC: 1.41219 (Simulation time: 4 hr 15 min 23 sec) 
Heartbeat CPU 0 instructions: 1070000000 cycles: 1196405469 heartbeat IPC: 1.0004 cumulative IPC: 0.747682 (Simulation time: 4 hr 15 min 53 sec) 
Heartbeat CPU 2 instructions: 1840000000 cycles: 1199794922 heartbeat IPC: 1.82548 cumulative IPC: 1.41424 (Simulation time: 4 hr 16 min 41 sec) 
Heartbeat CPU 3 instructions: 730000000 cycles: 1203794642 heartbeat IPC: 0.546061 cumulative IPC: 0.469401 (Simulation time: 4 hr 17 min 29 sec) 
Heartbeat CPU 1 instructions: 880000000 cycles: 1204510661 heartbeat IPC: 0.901311 cumulative IPC: 0.611257 (Simulation time: 4 hr 17 min 39 sec) 
Heartbeat CPU 0 instructions: 1080000000 cycles: 1205599724 heartbeat IPC: 1.08764 cumulative IPC: 0.750489 (Simulation time: 4 hr 17 min 53 sec) 
Heartbeat CPU 2 instructions: 1850000003 cycles: 1206646009 heartbeat IPC: 1.45962 cumulative IPC: 1.41451 (Simulation time: 4 hr 18 min 7 sec) 
Heartbeat CPU 2 instructions: 1860000000 cycles: 1213080700 heartbeat IPC: 1.55408 cumulative IPC: 1.41532 (Simulation time: 4 hr 19 min 28 sec) 
Heartbeat CPU 0 instructions: 1090000003 cycles: 1215007033 heartbeat IPC: 1.063 cumulative IPC: 0.753107 (Simulation time: 4 hr 19 min 52 sec) 
Heartbeat CPU 1 instructions: 890000000 cycles: 1216649738 heartbeat IPC: 0.823786 cumulative IPC: 0.613551 (Simulation time: 4 hr 20 min 13 sec) 
Heartbeat CPU 2 instructions: 1870000003 cycles: 1219790548 heartbeat IPC: 1.49035 cumulative IPC: 1.41576 (Simulation time: 4 hr 20 min 53 sec) 
Heartbeat CPU 3 instructions: 740000000 cycles: 1222030960 heartbeat IPC: 0.548356 cumulative IPC: 0.470675 (Simulation time: 4 hr 21 min 23 sec) 
Heartbeat CPU 0 instructions: 1100000000 cycles: 1223364797 heartbeat IPC: 1.19649 cumulative IPC: 0.756383 (Simulation time: 4 hr 21 min 40 sec) 
Heartbeat CPU 2 instructions: 1880000000 cycles: 1228559999 heartbeat IPC: 1.14032 cumulative IPC: 1.41364 (Simulation time: 4 hr 22 min 47 sec) 
Heartbeat CPU 1 instructions: 900000000 cycles: 1228742564 heartbeat IPC: 0.826937 cumulative IPC: 0.615821 (Simulation time: 4 hr 22 min 50 sec) 
Heartbeat CPU 0 instructions: 1110000001 cycles: 1231804388 heartbeat IPC: 1.18489 cumulative IPC: 0.759556 (Simulation time: 4 hr 23 min 29 sec) 
Heartbeat CPU 2 instructions: 1890000002 cycles: 1235947255 heartbeat IPC: 1.35368 cumulative IPC: 1.41325 (Simulation time: 4 hr 24 min 14 sec) 
Heartbeat CPU 3 instructions: 750000003 cycles: 1240496509 heartbeat IPC: 0.541549 cumulative IPC: 0.471815 (Simulation time: 4 hr 25 min 3 sec) 
Heartbeat CPU 2 instructions: 1900000000 cycles: 1242733080 heartbeat IPC: 1.47366 cumulative IPC: 1.41361 (Simulation time: 4 hr 25 min 30 sec) 
Heartbeat CPU 0 instructions: 1120000000 cycles: 1243083080 heartbeat IPC: 0.886628 cumulative IPC: 0.760801 (Simulation time: 4 hr 25 min 34 sec) 
Heartbeat CPU 1 instructions: 910000003 cycles: 1246266632 heartbeat IPC: 0.570644 cumulative IPC: 0.615135 (Simulation time: 4 hr 26 min 10 sec) 
Heartbeat CPU 2 instructions: 1910000002 cycles: 1248476677 heartbeat IPC: 1.74107 cumulative IPC: 1.41523 (Simulation time: 4 hr 26 min 38 sec) 
Heartbeat CPU 0 instructions: 1130000001 cycles: 1253600427 heartbeat IPC: 0.95081 cumulative IPC: 0.762521 (Simulation time: 4 hr 27 min 37 sec) 
Heartbeat CPU 2 instructions: 1920000000 cycles: 1255321812 heartbeat IPC: 1.46089 cumulative IPC: 1.4155 (Simulation time: 4 hr 27 min 56 sec) 
Heartbeat CPU 3 instructions: 760000000 cycles: 1259062966 heartbeat IPC: 0.538606 cumulative IPC: 0.472877 (Simulation time: 4 hr 28 min 39 sec) 
Heartbeat CPU 2 instructions: 1930000002 cycles: 1262095365 heartbeat IPC: 1.47633 cumulative IPC: 1.41585 (Simulation time: 4 hr 29 min 13 sec) 
Heartbeat CPU 1 instructions: 920000000 cycles: 1262173043 heartbeat IPC: 0.628677 cumulative IPC: 0.615319 (Simulation time: 4 hr 29 min 14 sec) 
Heartbeat CPU 0 instructions: 1140000000 cycles: 1266798654 heartbeat IPC: 0.757677 cumulative IPC: 0.762467 (Simulation time: 4 hr 30 min 11 sec) 
Heartbeat CPU 2 instructions: 1940000000 cycles: 1268488633 heartbeat IPC: 1.56414 cumulative IPC: 1.41666 (Simulation time: 4 hr 30 min 33 sec) 
Heartbeat CPU 1 instructions: 930000002 cycles: 1272767735 heartbeat IPC: 0.943869 cumulative IPC: 0.618267 (Simulation time: 4 hr 31 min 25 sec) 
Heartbeat CPU 0 instructions: 1150000002 cycles: 1277053588 heartbeat IPC: 0.975141 cumulative IPC: 0.764307 (Simulation time: 4 hr 32 min 17 sec) 
Heartbeat CPU 3 instructions: 770000003 cycles: 1277510204 heartbeat IPC: 0.542087 cumulative IPC: 0.473954 (Simulation time: 4 hr 32 min 22 sec) 
Heartbeat CPU 2 instructions: 1950000001 cycles: 1277722650 heartbeat IPC: 1.08295 cumulative IPC: 1.41406 (Simulation time: 4 hr 32 min 25 sec) 
Heartbeat CPU 1 instructions: 940000000 cycles: 1283749004 heartbeat IPC: 0.910641 cumulative IPC: 0.620961 (Simulation time: 4 hr 33 min 41 sec) 
Heartbeat CPU 2 instructions: 1960000000 cycles: 1285127723 heartbeat IPC: 1.35043 cumulative IPC: 1.41367 (Simulation time: 4 hr 33 min 59 sec) 
Heartbeat CPU 0 instructions: 1160000000 cycles: 1287858844 heartbeat IPC: 0.925475 cumulative IPC: 0.765764 (Simulation time: 4 hr 34 min 34 sec) 
Heartbeat CPU 2 instructions: 1970000003 cycles: 1292433885 heartbeat IPC: 1.36871 cumulative IPC: 1.41339 (Simulation time: 4 hr 35 min 31 sec) 
Heartbeat CPU 1 instructions: 950000002 cycles: 1294551518 heartbeat IPC: 0.925711 cumulative IPC: 0.623699 (Simulation time: 4 hr 35 min 57 sec) 
Heartbeat CPU 3 instructions: 780000000 cycles: 1295736699 heartbeat IPC: 0.548652 cumulative IPC: 0.475085 (Simulation time: 4 hr 36 min 14 sec) 
Heartbeat CPU 0 instructions: 1170000003 cycles: 1297598934 heartbeat IPC: 1.02668 cumulative IPC: 0.767872 (Simulation time: 4 hr 36 min 36 sec) 
Heartbeat CPU 2 instructions: 1980000000 cycles: 1299002653 heartbeat IPC: 1.52236 cumulative IPC: 1.41398 (Simulation time: 4 hr 36 min 57 sec) 
Heartbeat CPU 1 instructions: 960000000 cycles: 1304727504 heartbeat IPC: 0.982706 cumulative IPC: 0.626712 (Simulation time: 4 hr 38 min 13 sec) 
Heartbeat CPU 2 instructions: 1990000001 cycles: 1304762762 heartbeat IPC: 1.73608 cumulative IPC: 1.41551 (Simulation time: 4 hr 38 min 14 sec) 
Heartbeat CPU 0 instructions: 1180000000 cycles: 1307347160 heartbeat IPC: 1.02583 cumulative IPC: 0.769941 (Simulation time: 4 hr 38 min 48 sec) 
*** Reached end of trace for Core: 2 Repeating trace: /scratch/user/djimenez/champsim-traces/speccpu2006/xz//454.calculix-460B.champsimtrace.xz
Heartbeat CPU 2 instructions: 2000000000 cycles: 1311240967 heartbeat IPC: 1.54364 cumulative IPC: 1.4162 (Simulation time: 4 hr 39 min 38 sec) 
Heartbeat CPU 3 instructions: 790000003 cycles: 1314139725 heartbeat IPC: 0.543389 cumulative IPC: 0.476114 (Simulation time: 4 hr 40 min 13 sec) 
Heartbeat CPU 1 instructions: 970000000 cycles: 1314904288 heartbeat IPC: 0.982629 cumulative IPC: 0.629674 (Simulation time: 4 hr 40 min 23 sec) 
Heartbeat CPU 0 instructions: 1190000000 cycles: 1318018988 heartbeat IPC: 0.937047 cumulative IPC: 0.771396 (Simulation time: 4 hr 41 min 1 sec) 
Heartbeat CPU 2 instructions: 2010000001 cycles: 1318957462 heartbeat IPC: 1.29593 cumulative IPC: 1.41544 (Simulation time: 4 hr 41 min 11 sec) 
Heartbeat CPU 2 instructions: 2020000000 cycles: 1325704481 heartbeat IPC: 1.48214 cumulative IPC: 1.4158 (Simulation time: 4 hr 42 min 36 sec) 
Heartbeat CPU 1 instructions: 980000000 cycles: 1325929250 heartbeat IPC: 0.907033 cumulative IPC: 0.632152 (Simulation time: 4 hr 42 min 39 sec) 
Heartbeat CPU 0 instructions: 1200000000 cycles: 1327940270 heartbeat IPC: 1.00793 cumulative IPC: 0.773294 (Simulation time: 4 hr 43 min 6 sec) 
Heartbeat CPU 2 instructions: 2030000000 cycles: 1332167945 heartbeat IPC: 1.54716 cumulative IPC: 1.41649 (Simulation time: 4 hr 43 min 58 sec) 
Heartbeat CPU 3 instructions: 800000000 cycles: 1332475550 heartbeat IPC: 0.54538 cumulative IPC: 0.477138 (Simulation time: 4 hr 44 min 2 sec) 
Heartbeat CPU 1 instructions: 990000001 cycles: 1337118251 heartbeat IPC: 0.893735 cumulative IPC: 0.634503 (Simulation time: 4 hr 45 min 2 sec) 
Heartbeat CPU 0 instructions: 1210000000 cycles: 1337943105 heartbeat IPC: 0.999717 cumulative IPC: 0.775112 (Simulation time: 4 hr 45 min 11 sec) 
Heartbeat CPU 2 instructions: 2040000000 cycles: 1338365273 heartbeat IPC: 1.6136 cumulative IPC: 1.41747 (Simulation time: 4 hr 45 min 17 sec) 
Heartbeat CPU 2 instructions: 2050000001 cycles: 1344097071 heartbeat IPC: 1.74465 cumulative IPC: 1.41897 (Simulation time: 4 hr 46 min 28 sec) 
Heartbeat CPU 0 instructions: 1220000000 cycles: 1349104319 heartbeat IPC: 0.89596 cumulative IPC: 0.776185 (Simulation time: 4 hr 47 min 25 sec) 
Heartbeat CPU 2 instructions: 2060000000 cycles: 1350214454 heartbeat IPC: 1.63469 cumulative IPC: 1.42002 (Simulation time: 4 hr 47 min 38 sec) 
Heartbeat CPU 3 instructions: 810000003 cycles: 1350915213 heartbeat IPC: 0.542309 cumulative IPC: 0.478092 (Simulation time: 4 hr 47 min 46 sec) 
Heartbeat CPU 1 instructions: 1000000000 cycles: 1353575424 heartbeat IPC: 0.607638 cumulative IPC: 0.634152 (Simulation time: 4 hr 48 min 12 sec) 
Heartbeat CPU 0 instructions: 1230000002 cycles: 1357871431 heartbeat IPC: 1.14063 cumulative IPC: 0.778709 (Simulation time: 4 hr 49 min 2 sec) 
Heartbeat CPU 2 instructions: 2070000001 cycles: 1360627416 heartbeat IPC: 0.960342 cumulative IPC: 1.41624 (Simulation time: 4 hr 49 min 36 sec) 
Heartbeat CPU 0 instructions: 1240000000 cycles: 1366058227 heartbeat IPC: 1.22148 cumulative IPC: 0.781555 (Simulation time: 4 hr 50 min 42 sec) 
Heartbeat CPU 3 instructions: 820000000 cycles: 1369354421 heartbeat IPC: 0.542322 cumulative IPC: 0.479019 (Simulation time: 4 hr 51 min 23 sec) 
Finished CPU 0 instructions: 1000000002 cycles: 1277506019 cumulative IPC: 0.782775 (Simulation time: 4 hr 51 min 26 sec) 
Heartbeat CPU 1 instructions: 1010000000 cycles: 1369628625 heartbeat IPC: 0.622929 cumulative IPC: 0.634011 (Simulation time: 4 hr 51 min 27 sec) 
Heartbeat CPU 2 instructions: 2080000000 cycles: 1370018934 heartbeat IPC: 1.06479 cumulative IPC: 1.41366 (Simulation time: 4 hr 51 min 32 sec) 
Heartbeat CPU 0 instructions: 1250000000 cycles: 1374215914 heartbeat IPC: 1.22584 cumulative IPC: 0.784381 (Simulation time: 4 hr 52 min 26 sec) 
Heartbeat CPU 2 instructions: 2090000002 cycles: 1377325554 heartbeat IPC: 1.36862 cumulative IPC: 1.4134 (Simulation time: 4 hr 53 min 9 sec) 
Heartbeat CPU 1 instructions: 1020000000 cycles: 1378368871 heartbeat IPC: 1.14413 cumulative IPC: 0.637477 (Simulation time: 4 hr 53 min 22 sec) 
Heartbeat CPU 0 instructions: 1260000000 cycles: 1382460616 heartbeat IPC: 1.2129 cumulative IPC: 0.787119 (Simulation time: 4 hr 54 min 17 sec) 
Heartbeat CPU 2 instructions: 2100000000 cycles: 1383498474 heartbeat IPC: 1.61998 cumulative IPC: 1.41439 (Simulation time: 4 hr 54 min 30 sec) 
Heartbeat CPU 1 instructions: 1030000001 cycles: 1387995130 heartbeat IPC: 1.03883 cumulative IPC: 0.640459 (Simulation time: 4 hr 55 min 20 sec) 
Heartbeat CPU 3 instructions: 830000000 cycles: 1388289555 heartbeat IPC: 0.528119 cumulative IPC: 0.479737 (Simulation time: 4 hr 55 min 24 sec) 
Heartbeat CPU 2 instructions: 2110000002 cycles: 1391562913 heartbeat IPC: 1.24001 cumulative IPC: 1.41331 (Simulation time: 4 hr 56 min 3 sec) 
Heartbeat CPU 0 instructions: 1270000001 cycles: 1392534185 heartbeat IPC: 0.992697 cumulative IPC: 0.788712 (Simulation time: 4 hr 56 min 16 sec) 
Heartbeat CPU 1 instructions: 1040000000 cycles: 1398459532 heartbeat IPC: 0.955621 cumulative IPC: 0.642983 (Simulation time: 4 hr 57 min 24 sec) 
Heartbeat CPU 2 instructions: 2120000000 cycles: 1398891371 heartbeat IPC: 1.36454 cumulative IPC: 1.41304 (Simulation time: 4 hr 57 min 29 sec) 
Heartbeat CPU 0 instructions: 1280000000 cycles: 1403458056 heartbeat IPC: 0.915426 cumulative IPC: 0.789767 (Simulation time: 4 hr 58 min 21 sec) 
Heartbeat CPU 2 instructions: 2130000001 cycles: 1405784677 heartbeat IPC: 1.45068 cumulative IPC: 1.41323 (Simulation time: 4 hr 58 min 48 sec) 
Heartbeat CPU 3 instructions: 840000000 cycles: 1407520809 heartbeat IPC: 0.519987 cumulative IPC: 0.480325 (Simulation time: 4 hr 59 min 7 sec) 
Heartbeat CPU 1 instructions: 1050000003 cycles: 1409810197 heartbeat IPC: 0.881006 cumulative IPC: 0.645033 (Simulation time: 4 hr 59 min 34 sec) 
Heartbeat CPU 2 instructions: 2140000000 cycles: 1412783815 heartbeat IPC: 1.42875 cumulative IPC: 1.41331 (Simulation time: 5 hr 0 min 6 sec) 
Heartbeat CPU 0 instructions: 1290000003 cycles: 1415050394 heartbeat IPC: 0.862639 cumulative IPC: 0.790406 (Simulation time: 5 hr 0 min 33 sec) 
Heartbeat CPU 2 instructions: 2150000003 cycles: 1419162398 heartbeat IPC: 1.56775 cumulative IPC: 1.41406 (Simulation time: 5 hr 1 min 22 sec) 
Heartbeat CPU 1 instructions: 1060000000 cycles: 1421040690 heartbeat IPC: 0.890433 cumulative IPC: 0.647107 (Simulation time: 5 hr 1 min 43 sec) 
Heartbeat CPU 2 instructions: 2160000000 cycles: 1426209955 heartbeat IPC: 1.41893 cumulative IPC: 1.41408 (Simulation time: 5 hr 2 min 40 sec) 
Heartbeat CPU 3 instructions: 850000000 cycles: 1426666607 heartbeat IPC: 0.522308 cumulative IPC: 0.480927 (Simulation time: 5 hr 2 min 45 sec) 
Heartbeat CPU 0 instructions: 1300000000 cycles: 1427767369 heartbeat IPC: 0.78635 cumulative IPC: 0.790367 (Simulation time: 5 hr 2 min 58 sec) 
Heartbeat CPU 2 instructions: 2170000000 cycles: 1433165721 heartbeat IPC: 1.43766 cumulative IPC: 1.4142 (Simulation time: 5 hr 3 min 59 sec) 
Heartbeat CPU 1 instructions: 1070000003 cycles: 1433550801 heartbeat IPC: 0.799354 cumulative IPC: 0.648527 (Simulation time: 5 hr 4 min 3 sec) 
Heartbeat CPU 2 instructions: 2180000000 cycles: 1439749618 heartbeat IPC: 1.51886 cumulative IPC: 1.41472 (Simulation time: 5 hr 5 min 14 sec) 
Heartbeat CPU 0 instructions: 1310000002 cycles: 1441086622 heartbeat IPC: 0.750793 cumulative IPC: 0.789976 (Simulation time: 5 hr 5 min 31 sec) 
Heartbeat CPU 3 instructions: 860000000 cycles: 1445797886 heartbeat IPC: 0.522704 cumulative IPC: 0.481518 (Simulation time: 5 hr 6 min 24 sec) 
[...]
Heartbeat CPU 1 instructions: 1440000000 cycles: 2021625856 heartbeat IPC: 0.5048 cumulative IPC: 0.642628 (Simulation time: 6 hr 53 min 3 sec) 
Heartbeat CPU 2 instructions: 3030000001 cycles: 2022684673 heartbeat IPC: 1.6196 cumulative IPC: 1.42783 (Simulation time: 6 hr 53 min 15 sec) 
Heartbeat CPU 0 instructions: 1800000000 cycles: 2022948426 heartbeat IPC: 1.06531 cumulative IPC: 0.805691 (Simulation time: 6 hr 53 min 18 sec) 
Heartbeat CPU 2 instructions: 3040000000 cycles: 2028857741 heartbeat IPC: 1.61994 cumulative IPC: 1.42844 (Simulation time: 6 hr 54 min 28 sec) 
Heartbeat CPU 3 instructions: 1160000000 cycles: 2032416709 heartbeat IPC: 0.644126 cumulative IPC: 0.490553 (Simulation time: 6 hr 55 min 8 sec) 
Heartbeat CPU 0 instructions: 1810000001 cycles: 2033665710 heartbeat IPC: 0.933072 cumulative IPC: 0.806394 (Simulation time: 6 hr 55 min 24 sec) 
Heartbeat CPU 2 instructions: 3050000001 cycles: 2035073194 heartbeat IPC: 1.60889 cumulative IPC: 1.42902 (Simulation time: 6 hr 55 min 41 sec) 
Heartbeat CPU 2 instructions: 3060000000 cycles: 2041213344 heartbeat IPC: 1.62862 cumulative IPC: 1.42965 (Simulation time: 6 hr 56 min 47 sec) 
Heartbeat CPU 1 instructions: 1450000003 cycles: 2041222302 heartbeat IPC: 0.510297 cumulative IPC: 0.641297 (Simulation time: 6 hr 56 min 47 sec) 
Heartbeat CPU 0 instructions: 1820000000 cycles: 2046517130 heartbeat IPC: 0.778124 cumulative IPC: 0.806208 (Simulation time: 6 hr 57 min 42 sec) 
Heartbeat CPU 2 instructions: 3070000001 cycles: 2047173617 heartbeat IPC: 1.67778 cumulative IPC: 1.4304 (Simulation time: 6 hr 57 min 49 sec) 
Heartbeat CPU 3 instructions: 1170000001 cycles: 2048179926 heartbeat IPC: 0.634388 cumulative IPC: 0.491713 (Simulation time: 6 hr 57 min 59 sec) 
Heartbeat CPU 2 instructions: 3080000000 cycles: 2053678459 heartbeat IPC: 1.53732 cumulative IPC: 1.43076 (Simulation time: 6 hr 58 min 54 sec) 
Heartbeat CPU 1 instructions: 1460000000 cycles: 2059511639 heartbeat IPC: 0.546767 cumulative IPC: 0.640419 (Simulation time: 6 hr 59 min 52 sec) 
Heartbeat CPU 0 instructions: 1830000002 cycles: 2060497337 heartbeat IPC: 0.715297 cumulative IPC: 0.805562 (Simulation time: 7 hr 0 min 2 sec) 
Heartbeat CPU 2 instructions: 3090000003 cycles: 2060819273 heartbeat IPC: 1.4004 cumulative IPC: 1.43065 (Simulation time: 7 hr 0 min 4 sec) 
Heartbeat CPU 2 instructions: 3100000000 cycles: 2067807884 heartbeat IPC: 1.4309 cumulative IPC: 1.43065 (Simulation time: 7 hr 1 min 2 sec) 
Heartbeat CPU 3 instructions: 1180000000 cycles: 2067823939 heartbeat IPC: 0.509061 cumulative IPC: 0.491885 (Simulation time: 7 hr 1 min 3 sec) 
Heartbeat CPU 2 instructions: 3110000001 cycles: 2073736974 heartbeat IPC: 1.6866 cumulative IPC: 1.43141 (Simulation time: 7 hr 2 min 0 sec) 
Heartbeat CPU 1 instructions: 1470000003 cycles: 2075012130 heartbeat IPC: 0.645141 cumulative IPC: 0.640456 (Simulation time: 7 hr 2 min 12 sec) 
Heartbeat CPU 0 instructions: 1840000000 cycles: 2077070606 heartbeat IPC: 0.603381 cumulative IPC: 0.803874 (Simulation time: 7 hr 2 min 32 sec) 
Heartbeat CPU 2 instructions: 3120000000 cycles: 2079721000 heartbeat IPC: 1.67112 cumulative IPC: 1.43213 (Simulation time: 7 hr 3 min 1 sec) 
Heartbeat CPU 1 instructions: 1480000000 cycles: 2086569065 heartbeat IPC: 0.865281 cumulative IPC: 0.641758 (Simulation time: 7 hr 4 min 5 sec) 
Heartbeat CPU 0 instructions: 1850000001 cycles: 2088685128 heartbeat IPC: 0.860991 cumulative IPC: 0.804206 (Simulation time: 7 hr 4 min 27 sec) 
Heartbeat CPU 2 instructions: 3130000000 cycles: 2089135646 heartbeat IPC: 1.06217 cumulative IPC: 1.43039 (Simulation time: 7 hr 4 min 32 sec) 
Heartbeat CPU 2 instructions: 3140000000 cycles: 2098014509 heartbeat IPC: 1.12627 cumulative IPC: 1.42904 (Simulation time: 7 hr 5 min 53 sec) 
Heartbeat CPU 3 instructions: 1190000002 cycles: 2098317388 heartbeat IPC: 0.327939 cumulative IPC: 0.489393 (Simulation time: 7 hr 5 min 56 sec) 
Heartbeat CPU 0 instructions: 1860000000 cycles: 2101055726 heartbeat IPC: 0.808368 cumulative IPC: 0.804232 (Simulation time: 7 hr 6 min 20 sec) 
Heartbeat CPU 2 instructions: 3150000002 cycles: 2104056106 heartbeat IPC: 1.65519 cumulative IPC: 1.42972 (Simulation time: 7 hr 6 min 48 sec) 
Heartbeat CPU 1 instructions: 1490000000 cycles: 2105812205 heartbeat IPC: 0.519666 cumulative IPC: 0.640592 (Simulation time: 7 hr 7 min 3 sec) 
Heartbeat CPU 2 instructions: 3160000000 cycles: 2110923405 heartbeat IPC: 1.45618 cumulative IPC: 1.42981 (Simulation time: 7 hr 7 min 46 sec) 
Heartbeat CPU 0 instructions: 1870000002 cycles: 2114376507 heartbeat IPC: 0.750707 cumulative IPC: 0.80388 (Simulation time: 7 hr 8 min 16 sec) 
Heartbeat CPU 2 instructions: 3170000000 cycles: 2118030287 heartbeat IPC: 1.40709 cumulative IPC: 1.42973 (Simulation time: 7 hr 8 min 45 sec) 
Heartbeat CPU 2 instructions: 3180000000 cycles: 2124561378 heartbeat IPC: 1.53114 cumulative IPC: 1.43006 (Simulation time: 7 hr 9 min 41 sec) 
Heartbeat CPU 3 instructions: 1200000000 cycles: 2128565642 heartbeat IPC: 0.330598 cumulative IPC: 0.487035 (Simulation time: 7 hr 10 min 14 sec) 
Heartbeat CPU 0 instructions: 1880000000 cycles: 2129460054 heartbeat IPC: 0.662974 cumulative IPC: 0.802836 (Simulation time: 7 hr 10 min 21 sec) 
Heartbeat CPU 2 instructions: 3190000002 cycles: 2131613305 heartbeat IPC: 1.41805 cumulative IPC: 1.43002 (Simulation time: 7 hr 10 min 40 sec) 
Heartbeat CPU 1 instructions: 1500000000 cycles: 2134476421 heartbeat IPC: 0.348867 cumulative IPC: 0.636497 (Simulation time: 7 hr 11 min 6 sec) 
Heartbeat CPU 2 instructions: 3200000000 cycles: 2138600586 heartbeat IPC: 1.43117 cumulative IPC: 1.43002 (Simulation time: 7 hr 11 min 44 sec) 
Heartbeat CPU 0 instructions: 1890000000 cycles: 2143479243 heartbeat IPC: 0.713308 cumulative IPC: 0.802225 (Simulation time: 7 hr 12 min 32 sec) 
Finished CPU 3 instructions: 1000000001 cycles: 2052898417 cumulative IPC: 0.487116 (Simulation time: 7 hr 12 min 47 sec) 

CPU 0 Branch Prediction Accuracy: 98.0225% MPKI: 1.70538

CPU 1 Branch Prediction Accuracy: 99.3716% MPKI: 0.355153

CPU 2 Branch Prediction Accuracy: 98.9168% MPKI: 0.564639

CPU 3 Branch Prediction Accuracy: 99.7528% MPKI: 0.0344246

ChampSim completed all CPUs

Total Simulation Statistics (not including warmup)

CPU 0 cumulative IPC: 0.802442 instructions: 1647331328 cycles: 2052898416
L1D TOTAL     ACCESS:  280712066  HIT:  254402609  MISS:   26309457
L1D LOAD      ACCESS:  250178814  HIT:  225859668  MISS:   24319146
L1D RFO       ACCESS:   30533252  HIT:   28542941  MISS:    1990311
L1D PREFETCH  ACCESS:          0  HIT:          0  MISS:          0
L1D WRITEBACK ACCESS:          0  HIT:          0  MISS:          0
L1I TOTAL     ACCESS:  446761983  HIT:  446758456  MISS:       3527
L1I LOAD      ACCESS:  446761983  HIT:  446758456  MISS:       3527
L1I RFO       ACCESS:          0  HIT:          0  MISS:          0
L1I PREFETCH  ACCESS:          0  HIT:          0  MISS:          0
L1I WRITEBACK ACCESS:          0  HIT:          0  MISS:          0
L2C TOTAL     ACCESS:   28964676  HIT:    7126472  MISS:   21838204
L2C LOAD      ACCESS:   24322660  HIT:    4251946  MISS:   20070714
L2C RFO       ACCESS:    1990258  HIT:     227921  MISS:    1762337
L2C PREFETCH  ACCESS:          0  HIT:          0  MISS:          0
L2C WRITEBACK ACCESS:    2651758  HIT:    2646605  MISS:       5153
LLC TOTAL     ACCESS:   24136085  HIT:   19314691  MISS:    4821394
LLC LOAD      ACCESS:   20070697  HIT:   15532843  MISS:    4537854
LLC RFO       ACCESS:    1762337  HIT:    1478851  MISS:     283486
LLC PREFETCH  ACCESS:          0  HIT:          0  MISS:          0
LLC WRITEBACK ACCESS:    2303051  HIT:    2302997  MISS:         54

CPU 1 cumulative IPC: 0.63509 instructions: 1303775894 cycles: 2052898416
L1D TOTAL     ACCESS:  307231548  HIT:  295489496  MISS:   11742052
L1D LOAD      ACCESS:  232852418  HIT:  223170460  MISS:    9681958
L1D RFO       ACCESS:   74379130  HIT:   72319036  MISS:    2060094
L1D PREFETCH  ACCESS:          0  HIT:          0  MISS:          0
L1D WRITEBACK ACCESS:          0  HIT:          0  MISS:          0
L1I TOTAL     ACCESS:  336022216  HIT:  336019670  MISS:       2546
L1I LOAD      ACCESS:  336022216  HIT:  336019670  MISS:       2546
L1I RFO       ACCESS:          0  HIT:          0  MISS:          0
L1I PREFETCH  ACCESS:          0  HIT:          0  MISS:          0
L1I WRITEBACK ACCESS:          0  HIT:          0  MISS:          0
L2C TOTAL     ACCESS:   15801101  HIT:    7730392  MISS:    8070709
L2C LOAD      ACCESS:    9684494  HIT:    2923391  MISS:    6761103
L2C RFO       ACCESS:    2060094  HIT:     753322  MISS:    1306772
L2C PREFETCH  ACCESS:          0  HIT:          0  MISS:          0
L2C WRITEBACK ACCESS:    4056513  HIT:    4053679  MISS:       2834
LLC TOTAL     ACCESS:   11089189  HIT:    3541156  MISS:    7548033
LLC LOAD      ACCESS:    6761101  HIT:     335494  MISS:    6425607
LLC RFO       ACCESS:    1306772  HIT:     204290  MISS:    1102482
LLC PREFETCH  ACCESS:          0  HIT:          0  MISS:          0
LLC WRITEBACK ACCESS:    3021316  HIT:    3001372  MISS:      19944

CPU 2 cumulative IPC: 1.43036 instructions: 2936385829 cycles: 2052898417
L1D TOTAL     ACCESS:  519706123  HIT:  482731241  MISS:   36974882
L1D LOAD      ACCESS:  435719223  HIT:  399390311  MISS:   36328912
L1D RFO       ACCESS:   83986900  HIT:   83340930  MISS:     645970
L1D PREFETCH  ACCESS:          0  HIT:          0  MISS:          0
L1D WRITEBACK ACCESS:          0  HIT:          0  MISS:          0
L1I TOTAL     ACCESS:  612733780  HIT:  612721251  MISS:      12529
L1I LOAD      ACCESS:  612733780  HIT:  612721251  MISS:      12529
L1I RFO       ACCESS:          0  HIT:          0  MISS:          0
L1I PREFETCH  ACCESS:          0  HIT:          0  MISS:          0
L1I WRITEBACK ACCESS:          0  HIT:          0  MISS:          0
L2C TOTAL     ACCESS:   45323210  HIT:   19271069  MISS:   26052141
L2C LOAD      ACCESS:   36341399  HIT:   10939583  MISS:   25401816
L2C RFO       ACCESS:     645967  HIT:      76776  MISS:     569191
L2C PREFETCH  ACCESS:          0  HIT:          0  MISS:          0
L2C WRITEBACK ACCESS:    8335844  HIT:    8254710  MISS:      81134
LLC TOTAL     ACCESS:   31625433  HIT:   28593071  MISS:    3032362
LLC LOAD      ACCESS:   25401807  HIT:   22647985  MISS:    2753822
LLC RFO       ACCESS:     569191  HIT:     301855  MISS:     267336
LLC PREFETCH  ACCESS:          0  HIT:          0  MISS:          0
LLC WRITEBACK ACCESS:    5654435  HIT:    5643231  MISS:      11204

CPU 3 cumulative IPC: 0.487116 instructions: 1000000001 cycles: 2052898417
L1D TOTAL     ACCESS:  529408157  HIT:  515367273  MISS:   14040884
L1D LOAD      ACCESS:  465342847  HIT:  451478036  MISS:   13864811
L1D RFO       ACCESS:   64065310  HIT:   63889237  MISS:     176073
L1D PREFETCH  ACCESS:          0  HIT:          0  MISS:          0
L1D WRITEBACK ACCESS:          0  HIT:          0  MISS:          0
L1I TOTAL     ACCESS:  274134661  HIT:  274133638  MISS:       1023
L1I LOAD      ACCESS:  274134661  HIT:  274133638  MISS:       1023
L1I RFO       ACCESS:          0  HIT:          0  MISS:          0
L1I PREFETCH  ACCESS:          0  HIT:          0  MISS:          0
L1I WRITEBACK ACCESS:          0  HIT:          0  MISS:          0
L2C TOTAL     ACCESS:   19283449  HIT:    9283330  MISS:   10000119
L2C LOAD      ACCESS:   13865024  HIT:    4035372  MISS:    9829652
L2C RFO       ACCESS:     175983  HIT:       6026  MISS:     169957
L2C PREFETCH  ACCESS:          0  HIT:          0  MISS:          0
L2C WRITEBACK ACCESS:    5242442  HIT:    5241932  MISS:        510
LLC TOTAL     ACCESS:   14579227  HIT:    6217675  MISS:    8361552
LLC LOAD      ACCESS:    9829638  HIT:    1497784  MISS:    8331854
LLC RFO       ACCESS:     169957  HIT:     143854  MISS:      26103
LLC PREFETCH  ACCESS:          0  HIT:          0  MISS:          0
LLC WRITEBACK ACCESS:    4579632  HIT:    4576037  MISS:       3595

Region of Interest Statistics

CPU 0 cumulative IPC: 0.782775 instructions: 1000000002 cycles: 1277506019
L1D TOTAL     ACCESS:  169137697  HIT:  153566599  MISS:   15571098
L1D LOAD      ACCESS:  151514581  HIT:  137162371  MISS:   14352210
L1D RFO       ACCESS:   17623116  HIT:   16404228  MISS:    1218888
L1D PREFETCH  ACCESS:          0  HIT:          0  MISS:          0
L1D WRITEBACK ACCESS:          0  HIT:          0  MISS:          0
L1D PREFETCH  REQUESTED:          0  ISSUED:          0  USEFUL:          0  USELESS:          0
L1I TOTAL     ACCESS:  272229885  HIT:  272227837  MISS:       2048
L1I LOAD      ACCESS:  272229885  HIT:  272227837  MISS:       2048
L1I RFO       ACCESS:          0  HIT:          0  MISS:          0
L1I PREFETCH  ACCESS:          0  HIT:          0  MISS:          0
L1I WRITEBACK ACCESS:          0  HIT:          0  MISS:          0
L1I PREFETCH  REQUESTED:          0  ISSUED:          0  USEFUL:          0  USELESS:          0
L2C TOTAL     ACCESS:   17135539  HIT:    4050959  MISS:   13084580
L2C LOAD      ACCESS:   14354252  HIT:    2362068  MISS:   11992184
L2C RFO       ACCESS:    1218861  HIT:     129516  MISS:    1089345
L2C PREFETCH  ACCESS:          0  HIT:          0  MISS:          0
L2C WRITEBACK ACCESS:    1562426  HIT:    1559375  MISS:       3051
L2C PREFETCH  REQUESTED:          0  ISSUED:          0  USEFUL:          0  USELESS:          0
LLC TOTAL     ACCESS:   14453012  HIT:   11060898  MISS:    3392114
LLC LOAD      ACCESS:   11992178  HIT:    8803807  MISS:    3188371
LLC RFO       ACCESS:    1089345  HIT:     885644  MISS:     203701
LLC PREFETCH  ACCESS:          0  HIT:          0  MISS:          0
LLC WRITEBACK ACCESS:    1371489  HIT:    1371447  MISS:         42
LLC PREFETCH  REQUESTED:          0  ISSUED:          0  USEFUL:          0  USELESS:          0
Major fault: 0 Minor fault: 3982

CPU 1 cumulative IPC: 0.663613 instructions: 1000000000 cycles: 1506903387
L1D TOTAL     ACCESS:  244302312  HIT:  234029663  MISS:   10272649
L1D LOAD      ACCESS:  190399824  HIT:  181812217  MISS:    8587607
L1D RFO       ACCESS:   53902488  HIT:   52217446  MISS:    1685042
L1D PREFETCH  ACCESS:          0  HIT:          0  MISS:          0
L1D WRITEBACK ACCESS:          0  HIT:          0  MISS:          0
L1D PREFETCH  REQUESTED:          0  ISSUED:          0  USEFUL:          0  USELESS:          0
L1I TOTAL     ACCESS:  229356112  HIT:  229354012  MISS:       2100
L1I LOAD      ACCESS:  229356112  HIT:  229354012  MISS:       2100
L1I RFO       ACCESS:          0  HIT:          0  MISS:          0
L1I PREFETCH  ACCESS:          0  HIT:          0  MISS:          0
L1I WRITEBACK ACCESS:          0  HIT:          0  MISS:          0
L1I PREFETCH  REQUESTED:          0  ISSUED:          0  USEFUL:          0  USELESS:          0
L2C TOTAL     ACCESS:   13807012  HIT:    6866047  MISS:    6940965
L2C LOAD      ACCESS:    8589703  HIT:    2669181  MISS:    5920522
L2C RFO       ACCESS:    1685042  HIT:     667348  MISS:    1017694
L2C PREFETCH  ACCESS:          0  HIT:          0  MISS:          0
L2C WRITEBACK ACCESS:    3532267  HIT:    3529518  MISS:       2749
L2C PREFETCH  REQUESTED:          0  ISSUED:          0  USEFUL:          0  USELESS:          0
LLC TOTAL     ACCESS:    9541200  HIT:    3093072  MISS:    6448128
LLC LOAD      ACCESS:    5920520  HIT:     317681  MISS:    5602839
LLC RFO       ACCESS:    1017694  HIT:     182723  MISS:     834971
LLC PREFETCH  ACCESS:          0  HIT:          0  MISS:          0
LLC WRITEBACK ACCESS:    2602986  HIT:    2592668  MISS:      10318
LLC PREFETCH  REQUESTED:          0  ISSUED:          0  USEFUL:          0  USELESS:          0
Major fault: 0 Minor fault: 31331

CPU 2 cumulative IPC: 1.39994 instructions: 1000000002 cycles: 714317202
L1D TOTAL     ACCESS:  172874904  HIT:  160362011  MISS:   12512893
L1D LOAD      ACCESS:  149177068  HIT:  136817617  MISS:   12359451
L1D RFO       ACCESS:   23697836  HIT:   23544394  MISS:     153442
L1D PREFETCH  ACCESS:          0  HIT:          0  MISS:          0
L1D WRITEBACK ACCESS:          0  HIT:          0  MISS:          0
L1D PREFETCH  REQUESTED:          0  ISSUED:          0  USEFUL:          0  USELESS:          0
L1I TOTAL     ACCESS:  205351234  HIT:  205350166  MISS:       1068
L1I LOAD      ACCESS:  205351234  HIT:  205350166  MISS:       1068
L1I RFO       ACCESS:          0  HIT:          0  MISS:          0
L1I PREFETCH  ACCESS:          0  HIT:          0  MISS:          0
L1I WRITEBACK ACCESS:          0  HIT:          0  MISS:          0
L1I PREFETCH  REQUESTED:          0  ISSUED:          0  USEFUL:          0  USELESS:          0
L2C TOTAL     ACCESS:   14770225  HIT:    4868888  MISS:    9901337
L2C LOAD      ACCESS:   12360516  HIT:    2631902  MISS:    9728614
L2C RFO       ACCESS:     153442  HIT:       8068  MISS:     145374
L2C PREFETCH  ACCESS:          0  HIT:          0  MISS:          0
L2C WRITEBACK ACCESS:    2256267  HIT:    2228918  MISS:      27349
L2C PREFETCH  REQUESTED:          0  ISSUED:          0  USEFUL:          0  USELESS:          0
LLC TOTAL     ACCESS:   11695365  HIT:   10594534  MISS:    1100831
LLC LOAD      ACCESS:    9728611  HIT:    8679409  MISS:    1049202
LLC RFO       ACCESS:     145374  HIT:      96889  MISS:      48485
LLC PREFETCH  ACCESS:          0  HIT:          0  MISS:          0
LLC WRITEBACK ACCESS:    1821380  HIT:    1818236  MISS:       3144
LLC PREFETCH  REQUESTED:          0  ISSUED:          0  USEFUL:          0  USELESS:          0
Major fault: 0 Minor fault: 6829

CPU 3 cumulative IPC: 0.487116 instructions: 1000000001 cycles: 2052898417
L1D TOTAL     ACCESS:  529408157  HIT:  515367273  MISS:   14040884
L1D LOAD      ACCESS:  465342847  HIT:  451478036  MISS:   13864811
L1D RFO       ACCESS:   64065310  HIT:   63889237  MISS:     176073
L1D PREFETCH  ACCESS:          0  HIT:          0  MISS:          0
L1D WRITEBACK ACCESS:          0  HIT:          0  MISS:          0
L1D PREFETCH  REQUESTED:          0  ISSUED:          0  USEFUL:          0  USELESS:          0
L1I TOTAL     ACCESS:  274134661  HIT:  274133638  MISS:       1023
L1I LOAD      ACCESS:  274134661  HIT:  274133638  MISS:       1023
L1I RFO       ACCESS:          0  HIT:          0  MISS:          0
L1I PREFETCH  ACCESS:          0  HIT:          0  MISS:          0
L1I WRITEBACK ACCESS:          0  HIT:          0  MISS:          0
L1I PREFETCH  REQUESTED:          0  ISSUED:          0  USEFUL:          0  USELESS:          0
L2C TOTAL     ACCESS:   19283449  HIT:    9283330  MISS:   10000119
L2C LOAD      ACCESS:   13865024  HIT:    4035372  MISS:    9829652
L2C RFO       ACCESS:     175983  HIT:       6026  MISS:     169957
L2C PREFETCH  ACCESS:          0  HIT:          0  MISS:          0
L2C WRITEBACK ACCESS:    5242442  HIT:    5241932  MISS:        510
L2C PREFETCH  REQUESTED:          0  ISSUED:          0  USEFUL:          0  USELESS:          0
LLC TOTAL     ACCESS:   14579227  HIT:    6217675  MISS:    8361552
LLC LOAD      ACCESS:    9829638  HIT:    1497784  MISS:    8331854
LLC RFO       ACCESS:     169957  HIT:     143854  MISS:      26103
LLC PREFETCH  ACCESS:          0  HIT:          0  MISS:          0
LLC WRITEBACK ACCESS:    4579632  HIT:    4576037  MISS:       3595
LLC PREFETCH  REQUESTED:          0  ISSUED:          0  USEFUL:          0  USELESS:          0
Major fault: 0 Minor fault: 177190

DRAM Statistics
 CHANNEL 0
 RQ ROW_BUFFER_HIT:    5551465  ROW_BUFFER_MISS:    6312751
 DBUS_CONGESTED:   11159110
 WQ ROW_BUFFER_HIT:     524312  ROW_BUFFER_MISS:    3680795  FULL:          0

 CHANNEL 1
 RQ ROW_BUFFER_HIT:    5548586  ROW_BUFFER_MISS:    6311556
 DBUS_CONGESTED:   11159110
 WQ ROW_BUFFER_HIT:     523619  ROW_BUFFER_MISS:    3681607  FULL:          0

 AVG_CONGESTED_CYCLE: 13
