
*** ChampSim Multicore Out-of-Order Simulator ***

Warmup Instructions: 200000000
Simulation Instructions: 1000000000
Number of CPUs: 4
LLC sets: 8192
LLC ways: 16
Off-chip DRAM Size: 8192 MB Channels: 2 Width: 64-bit Data Rate: 1600 MT/s

CPU 0 runs /scratch/user/djimenez/champsim-traces/speccpu2006/xz//483.xalancbmk-127B.champsimtrace.xz
CPU 1 runs /scratch/user/djimenez/champsim-traces/speccpu2006/xz//429.mcf-22B.champsimtrace.xz
CPU 2 runs /scratch/user/djimenez/champsim-traces/speccpu2006/xz//450.soplex-92B.champsimtrace.xz
CPU 3 runs /scratch/user/djimenez/champsim-traces/speccpu2006/xz//459.GemsFDTD-1169B.champsimtrace.xz
Heartbeat CPU 3 instructions: 10000000 cycles: 4463221 heartbeat IPC: 2.24053 cumulative IPC: 2.24053 (Simulation time: 0 hr 1 min 33 sec) 
Heartbeat CPU 0 instructions: 10000002 cycles: 4553454 heartbeat IPC: 2.19614 cumulative IPC: 2.19614 (Simulation time: 0 hr 1 min 35 sec) 
Heartbeat CPU 2 instructions: 10000000 cycles: 5055778 heartbeat IPC: 1.97793 cumulative IPC: 1.97793 (Simulation time: 0 hr 1 min 46 sec) 
Heartbeat CPU 1 instructions: 10000001 cycles: 5825322 heartbeat IPC: 1.71664 cumulative IPC: 1.71664 (Simulation time: 0 hr 2 min 3 sec) 
Heartbeat CPU 0 instructions: 20000000 cycles: 9108896 heartbeat IPC: 2.19518 cumulative IPC: 2.19566 (Simulation time: 0 hr 3 min 9 sec) 
Heartbeat CPU 2 instructions: 20000000 cycles: 10236873 heartbeat IPC: 1.93009 cumulative IPC: 1.95372 (Simulation time: 0 hr 3 min 34 sec) 
Heartbeat CPU 3 instructions: 20000000 cycles: 10290698 heartbeat IPC: 1.71601 cumulative IPC: 1.9435 (Simulation time: 0 hr 3 min 35 sec) 
Heartbeat CPU 1 instructions: 20000000 cycles: 11881479 heartbeat IPC: 1.65121 cumulative IPC: 1.68329 (Simulation time: 0 hr 4 min 9 sec) 
Heartbeat CPU 0 instructions: 30000002 cycles: 13701660 heartbeat IPC: 2.17734 cumulative IPC: 2.18952 (Simulation time: 0 hr 4 min 44 sec) 
Heartbeat CPU 2 instructions: 30000002 cycles: 15342530 heartbeat IPC: 1.95861 cumulative IPC: 1.95535 (Simulation time: 0 hr 5 min 17 sec) 
Heartbeat CPU 3 instructions: 30000003 cycles: 16873522 heartbeat IPC: 1.51911 cumulative IPC: 1.77793 (Simulation time: 0 hr 5 min 47 sec) 
Heartbeat CPU 1 instructions: 30000002 cycles: 17653172 heartbeat IPC: 1.73259 cumulative IPC: 1.69941 (Simulation time: 0 hr 6 min 1 sec) 
Heartbeat CPU 0 instructions: 40000000 cycles: 18267635 heartbeat IPC: 2.19011 cumulative IPC: 2.18966 (Simulation time: 0 hr 6 min 13 sec) 
Heartbeat CPU 2 instructions: 40000000 cycles: 20416456 heartbeat IPC: 1.97086 cumulative IPC: 1.9592 (Simulation time: 0 hr 6 min 57 sec) 
Heartbeat CPU 0 instructions: 50000000 cycles: 22830050 heartbeat IPC: 2.19182 cumulative IPC: 2.1901 (Simulation time: 0 hr 7 min 44 sec) 
Heartbeat CPU 1 instructions: 40000000 cycles: 23427226 heartbeat IPC: 1.73189 cumulative IPC: 1.70742 (Simulation time: 0 hr 7 min 56 sec) 
Heartbeat CPU 3 instructions: 40000000 cycles: 23454489 heartbeat IPC: 1.51953 cumulative IPC: 1.70543 (Simulation time: 0 hr 7 min 56 sec) 
Heartbeat CPU 2 instructions: 50000002 cycles: 25449264 heartbeat IPC: 1.98696 cumulative IPC: 1.96469 (Simulation time: 0 hr 8 min 35 sec) 
Heartbeat CPU 0 instructions: 60000000 cycles: 27386849 heartbeat IPC: 2.19452 cumulative IPC: 2.19083 (Simulation time: 0 hr 9 min 13 sec) 
Heartbeat CPU 1 instructions: 50000002 cycles: 29215928 heartbeat IPC: 1.7275 cumulative IPC: 1.7114 (Simulation time: 0 hr 9 min 50 sec) 
Heartbeat CPU 3 instructions: 50000001 cycles: 30120480 heartbeat IPC: 1.50015 cumulative IPC: 1.66 (Simulation time: 0 hr 10 min 9 sec) 
Heartbeat CPU 2 instructions: 60000000 cycles: 30628931 heartbeat IPC: 1.93063 cumulative IPC: 1.95893 (Simulation time: 0 hr 10 min 20 sec) 
Heartbeat CPU 0 instructions: 70000002 cycles: 32024632 heartbeat IPC: 2.1562 cumulative IPC: 2.18582 (Simulation time: 0 hr 10 min 47 sec) 
Heartbeat CPU 1 instructions: 60000000 cycles: 35203243 heartbeat IPC: 1.6702 cumulative IPC: 1.70439 (Simulation time: 0 hr 11 min 57 sec) 
Heartbeat CPU 0 instructions: 80000000 cycles: 36575581 heartbeat IPC: 2.19734 cumulative IPC: 2.18725 (Simulation time: 0 hr 12 min 27 sec) 
Heartbeat CPU 2 instructions: 70000000 cycles: 36656700 heartbeat IPC: 1.65899 cumulative IPC: 1.90961 (Simulation time: 0 hr 12 min 29 sec) 
Heartbeat CPU 3 instructions: 60000000 cycles: 36816896 heartbeat IPC: 1.49334 cumulative IPC: 1.62969 (Simulation time: 0 hr 12 min 32 sec) 
Heartbeat CPU 1 instructions: 70000000 cycles: 41052146 heartbeat IPC: 1.70972 cumulative IPC: 1.70515 (Simulation time: 0 hr 14 min 1 sec) 
Heartbeat CPU 0 instructions: 90000003 cycles: 41234613 heartbeat IPC: 2.14637 cumulative IPC: 2.18263 (Simulation time: 0 hr 14 min 5 sec) 
Heartbeat CPU 2 instructions: 80000000 cycles: 42875523 heartbeat IPC: 1.60802 cumulative IPC: 1.86587 (Simulation time: 0 hr 14 min 44 sec) 
Heartbeat CPU 3 instructions: 70000002 cycles: 43561305 heartbeat IPC: 1.48271 cumulative IPC: 1.60693 (Simulation time: 0 hr 14 min 59 sec) 
Heartbeat CPU 0 instructions: 100000000 cycles: 45889471 heartbeat IPC: 2.14829 cumulative IPC: 2.17915 (Simulation time: 0 hr 15 min 55 sec) 
Heartbeat CPU 1 instructions: 80000000 cycles: 47036386 heartbeat IPC: 1.67106 cumulative IPC: 1.70081 (Simulation time: 0 hr 16 min 22 sec) 
Heartbeat CPU 2 instructions: 90000000 cycles: 48014462 heartbeat IPC: 1.94593 cumulative IPC: 1.87444 (Simulation time: 0 hr 16 min 43 sec) 
Heartbeat CPU 3 instructions: 80000000 cycles: 50311724 heartbeat IPC: 1.48139 cumulative IPC: 1.59009 (Simulation time: 0 hr 17 min 40 sec) 
Heartbeat CPU 0 instructions: 110000003 cycles: 50517483 heartbeat IPC: 2.16076 cumulative IPC: 2.17746 (Simulation time: 0 hr 17 min 44 sec) 
Heartbeat CPU 1 instructions: 90000003 cycles: 52996859 heartbeat IPC: 1.67772 cumulative IPC: 1.69821 (Simulation time: 0 hr 18 min 41 sec) 
Heartbeat CPU 2 instructions: 100000000 cycles: 53130780 heartbeat IPC: 1.95453 cumulative IPC: 1.88215 (Simulation time: 0 hr 18 min 44 sec) 
Heartbeat CPU 0 instructions: 120000000 cycles: 55141286 heartbeat IPC: 2.16272 cumulative IPC: 2.17623 (Simulation time: 0 hr 19 min 26 sec) 
Heartbeat CPU 3 instructions: 90000002 cycles: 57043798 heartbeat IPC: 1.48543 cumulative IPC: 1.57774 (Simulation time: 0 hr 20 min 6 sec) 
Heartbeat CPU 2 instructions: 110000001 cycles: 58221370 heartbeat IPC: 1.96441 cumulative IPC: 1.88934 (Simulation time: 0 hr 20 min 31 sec) 
Heartbeat CPU 1 instructions: 100000000 cycles: 58927519 heartbeat IPC: 1.68615 cumulative IPC: 1.697 (Simulation time: 0 hr 20 min 46 sec) 
Heartbeat CPU 0 instructions: 130000000 cycles: 59710565 heartbeat IPC: 2.18853 cumulative IPC: 2.17717 (Simulation time: 0 hr 21 min 3 sec) 
Heartbeat CPU 2 instructions: 120000000 cycles: 63275434 heartbeat IPC: 1.97861 cumulative IPC: 1.89647 (Simulation time: 0 hr 22 min 18 sec) 
Heartbeat CPU 3 instructions: 100000000 cycles: 63685765 heartbeat IPC: 1.50558 cumulative IPC: 1.57021 (Simulation time: 0 hr 22 min 26 sec) 
Heartbeat CPU 0 instructions: 140000000 cycles: 64240023 heartbeat IPC: 2.20777 cumulative IPC: 2.17933 (Simulation time: 0 hr 22 min 40 sec) 
Heartbeat CPU 1 instructions: 110000002 cycles: 64982449 heartbeat IPC: 1.65155 cumulative IPC: 1.69276 (Simulation time: 0 hr 22 min 58 sec) 
Heartbeat CPU 2 instructions: 130000002 cycles: 68424428 heartbeat IPC: 1.94213 cumulative IPC: 1.89991 (Simulation time: 0 hr 24 min 16 sec) 
Heartbeat CPU 0 instructions: 150000000 cycles: 68825453 heartbeat IPC: 2.18082 cumulative IPC: 2.17943 (Simulation time: 0 hr 24 min 24 sec) 
Heartbeat CPU 3 instructions: 110000003 cycles: 70270124 heartbeat IPC: 1.51875 cumulative IPC: 1.56539 (Simulation time: 0 hr 24 min 55 sec) 
Heartbeat CPU 1 instructions: 120000000 cycles: 70911577 heartbeat IPC: 1.68659 cumulative IPC: 1.69225 (Simulation time: 0 hr 25 min 9 sec) 
Heartbeat CPU 0 instructions: 160000000 cycles: 73382455 heartbeat IPC: 2.19443 cumulative IPC: 2.18036 (Simulation time: 0 hr 26 min 9 sec) 
Heartbeat CPU 2 instructions: 140000000 cycles: 73611065 heartbeat IPC: 1.92803 cumulative IPC: 1.90189 (Simulation time: 0 hr 26 min 14 sec) 
Heartbeat CPU 3 instructions: 120000000 cycles: 76863525 heartbeat IPC: 1.51667 cumulative IPC: 1.56121 (Simulation time: 0 hr 27 min 36 sec) 
Heartbeat CPU 1 instructions: 130000001 cycles: 77017530 heartbeat IPC: 1.63775 cumulative IPC: 1.68793 (Simulation time: 0 hr 27 min 39 sec) 
Heartbeat CPU 0 instructions: 170000002 cycles: 77951438 heartbeat IPC: 2.18867 cumulative IPC: 2.18085 (Simulation time: 0 hr 27 min 59 sec) 
Heartbeat CPU 2 instructions: 150000001 cycles: 78805220 heartbeat IPC: 1.92524 cumulative IPC: 1.90343 (Simulation time: 0 hr 28 min 17 sec) 
Heartbeat CPU 0 instructions: 180000000 cycles: 82502390 heartbeat IPC: 2.19734 cumulative IPC: 2.18176 (Simulation time: 0 hr 29 min 50 sec) 
Heartbeat CPU 1 instructions: 140000000 cycles: 82813550 heartbeat IPC: 1.72532 cumulative IPC: 1.69054 (Simulation time: 0 hr 29 min 56 sec) 
Heartbeat CPU 3 instructions: 130000003 cycles: 83528775 heartbeat IPC: 1.50032 cumulative IPC: 1.55635 (Simulation time: 0 hr 30 min 11 sec) 
Heartbeat CPU 2 instructions: 160000000 cycles: 83927872 heartbeat IPC: 1.95211 cumulative IPC: 1.9064 (Simulation time: 0 hr 30 min 20 sec) 
Heartbeat CPU 0 instructions: 190000000 cycles: 87262710 heartbeat IPC: 2.1007 cumulative IPC: 2.17733 (Simulation time: 0 hr 31 min 30 sec) 
Heartbeat CPU 1 instructions: 150000000 cycles: 88763977 heartbeat IPC: 1.68055 cumulative IPC: 1.68987 (Simulation time: 0 hr 32 min 2 sec) 
Heartbeat CPU 2 instructions: 170000000 cycles: 89202518 heartbeat IPC: 1.89586 cumulative IPC: 1.90578 (Simulation time: 0 hr 32 min 11 sec) 
Heartbeat CPU 3 instructions: 140000000 cycles: 90215850 heartbeat IPC: 1.49542 cumulative IPC: 1.55183 (Simulation time: 0 hr 32 min 40 sec) 
Heartbeat CPU 0 instructions: 200000000 cycles: 91884807 heartbeat IPC: 2.16352 cumulative IPC: 2.17664 (Simulation time: 0 hr 33 min 22 sec) 
Heartbeat CPU 1 instructions: 160000000 cycles: 94785315 heartbeat IPC: 1.66076 cumulative IPC: 1.68803 (Simulation time: 0 hr 34 min 21 sec) 
Heartbeat CPU 2 instructions: 180000000 cycles: 95521996 heartbeat IPC: 1.58241 cumulative IPC: 1.88438 (Simulation time: 0 hr 34 min 37 sec) 
Heartbeat CPU 0 instructions: 210000002 cycles: 96478841 heartbeat IPC: 2.17674 cumulative IPC: 0.10365 (Simulation time: 0 hr 34 min 59 sec) 
Heartbeat CPU 3 instructions: 150000001 cycles: 96964000 heartbeat IPC: 1.48189 cumulative IPC: 1.54697 (Simulation time: 0 hr 35 min 9 sec) 
Heartbeat CPU 1 instructions: 170000003 cycles: 100563765 heartbeat IPC: 1.73057 cumulative IPC: 1.69047 (Simulation time: 0 hr 36 min 26 sec) 
Heartbeat CPU 2 instructions: 190000001 cycles: 101015948 heartbeat IPC: 1.82018 cumulative IPC: 1.88089 (Simulation time: 0 hr 36 min 36 sec) 
Heartbeat CPU 0 instructions: 220000000 cycles: 101058380 heartbeat IPC: 2.18363 cumulative IPC: 0.197905 (Simulation time: 0 hr 36 min 36 sec) 
Heartbeat CPU 3 instructions: 160000000 cycles: 103712063 heartbeat IPC: 1.48191 cumulative IPC: 1.54273 (Simulation time: 0 hr 37 min 32 sec) 
Heartbeat CPU 0 instructions: 230000000 cycles: 105716591 heartbeat IPC: 2.14675 cumulative IPC: 0.283778 (Simulation time: 0 hr 38 min 20 sec) 
Heartbeat CPU 2 instructions: 200000000 cycles: 106124381 heartbeat IPC: 1.95755 cumulative IPC: 1.88458 (Simulation time: 0 hr 38 min 29 sec) 
Heartbeat CPU 1 instructions: 180000000 cycles: 106369078 heartbeat IPC: 1.72256 cumulative IPC: 1.69222 (Simulation time: 0 hr 38 min 34 sec) 
Heartbeat CPU 0 instructions: 240000000 cycles: 110339103 heartbeat IPC: 2.16333 cumulative IPC: 0.362519 (Simulation time: 0 hr 39 min 55 sec) 
Heartbeat CPU 3 instructions: 170000000 cycles: 110443681 heartbeat IPC: 1.48553 cumulative IPC: 1.53925 (Simulation time: 0 hr 39 min 57 sec) 
Heartbeat CPU 2 instructions: 210000001 cycles: 111269486 heartbeat IPC: 1.9436 cumulative IPC: 0.0898719 (Simulation time: 0 hr 40 min 14 sec) 
Heartbeat CPU 1 instructions: 190000000 cycles: 112326564 heartbeat IPC: 1.67856 cumulative IPC: 1.6915 (Simulation time: 0 hr 40 min 36 sec) 
Heartbeat CPU 0 instructions: 250000002 cycles: 114894859 heartbeat IPC: 2.19503 cumulative IPC: 0.43518 (Simulation time: 0 hr 41 min 30 sec) 
Heartbeat CPU 2 instructions: 220000000 cycles: 116460732 heartbeat IPC: 1.92632 cumulative IPC: 0.171732 (Simulation time: 0 hr 42 min 2 sec) 
Heartbeat CPU 3 instructions: 180000000 cycles: 117074499 heartbeat IPC: 1.50811 cumulative IPC: 1.53748 (Simulation time: 0 hr 42 min 15 sec) 
Heartbeat CPU 1 instructions: 200000000 cycles: 118101490 heartbeat IPC: 1.73162 cumulative IPC: 1.69346 (Simulation time: 0 hr 42 min 38 sec) 
Heartbeat CPU 0 instructions: 260000000 cycles: 119402504 heartbeat IPC: 2.21845 cumulative IPC: 0.502502 (Simulation time: 0 hr 43 min 4 sec) 
Heartbeat CPU 2 instructions: 230000003 cycles: 121612205 heartbeat IPC: 1.94119 cumulative IPC: 0.246686 (Simulation time: 0 hr 43 min 49 sec) 
Heartbeat CPU 3 instructions: 190000003 cycles: 123654745 heartbeat IPC: 1.5197 cumulative IPC: 1.53654 (Simulation time: 0 hr 44 min 33 sec) 
Heartbeat CPU 0 instructions: 270000001 cycles: 123910735 heartbeat IPC: 2.21817 cumulative IPC: 0.564923 (Simulation time: 0 hr 44 min 38 sec) 
Heartbeat CPU 1 instructions: 210000001 cycles: 123991466 heartbeat IPC: 1.6978 cumulative IPC: 0.0806507 (Simulation time: 0 hr 44 min 40 sec) 
Heartbeat CPU 2 instructions: 240000000 cycles: 126740496 heartbeat IPC: 1.94997 cumulative IPC: 0.315606 (Simulation time: 0 hr 45 min 37 sec) 
Heartbeat CPU 0 instructions: 280000000 cycles: 128568541 heartbeat IPC: 2.14693 cumulative IPC: 0.622236 (Simulation time: 0 hr 46 min 16 sec) 
Heartbeat CPU 1 instructions: 220000000 cycles: 129871927 heartbeat IPC: 1.70055 cumulative IPC: 0.153998 (Simulation time: 0 hr 46 min 43 sec) 
Heartbeat CPU 3 instructions: 200000000 cycles: 130255900 heartbeat IPC: 1.51489 cumulative IPC: 1.53544 (Simulation time: 0 hr 46 min 50 sec) 

Warmup complete CPU 0 instructions: 283692137 cycles: 130255916 (Simulation time: 0 hr 46 min 50 sec) 
Warmup complete CPU 1 instructions: 220664914 cycles: 130255916 (Simulation time: 0 hr 46 min 50 sec) 
Warmup complete CPU 2 instructions: 246832834 cycles: 130255916 (Simulation time: 0 hr 46 min 50 sec) 
Warmup complete CPU 3 instructions: 200000002 cycles: 130255916 (Simulation time: 0 hr 46 min 50 sec) 

Heartbeat CPU 2 instructions: 250000003 cycles: 142558697 heartbeat IPC: 0.632183 cumulative IPC: 0.257435 (Simulation time: 0 hr 47 min 58 sec) 
Heartbeat CPU 3 instructions: 210000003 cycles: 147718647 heartbeat IPC: 0.572648 cumulative IPC: 0.572648 (Simulation time: 0 hr 48 min 26 sec) 
Heartbeat CPU 0 instructions: 290000001 cycles: 158293641 heartbeat IPC: 0.336416 cumulative IPC: 0.224978 (Simulation time: 0 hr 49 min 31 sec) 
Heartbeat CPU 3 instructions: 220000000 cycles: 164570960 heartbeat IPC: 0.59339 cumulative IPC: 0.582835 (Simulation time: 0 hr 50 min 9 sec) 
Heartbeat CPU 1 instructions: 230000002 cycles: 171640946 heartbeat IPC: 0.239412 cumulative IPC: 0.225567 (Simulation time: 0 hr 50 min 54 sec) 
Heartbeat CPU 2 instructions: 260000000 cycles: 172983926 heartbeat IPC: 0.328674 cumulative IPC: 0.308162 (Simulation time: 0 hr 51 min 3 sec) 
Heartbeat CPU 3 instructions: 230000002 cycles: 181090832 heartbeat IPC: 0.605332 cumulative IPC: 0.590146 (Simulation time: 0 hr 51 min 54 sec) 
Heartbeat CPU 3 instructions: 240000000 cycles: 197230117 heartbeat IPC: 0.619606 cumulative IPC: 0.597245 (Simulation time: 0 hr 53 min 52 sec) 
Heartbeat CPU 0 instructions: 300000000 cycles: 203797403 heartbeat IPC: 0.219762 cumulative IPC: 0.221751 (Simulation time: 0 hr 54 min 40 sec) 
Heartbeat CPU 2 instructions: 270000001 cycles: 204196794 heartbeat IPC: 0.320381 cumulative IPC: 0.31332 (Simulation time: 0 hr 54 min 42 sec) 
Heartbeat CPU 1 instructions: 240000000 cycles: 211095413 heartbeat IPC: 0.253457 cumulative IPC: 0.239179 (Simulation time: 0 hr 55 min 39 sec) 
Heartbeat CPU 3 instructions: 250000000 cycles: 213348344 heartbeat IPC: 0.620416 cumulative IPC: 0.60174 (Simulation time: 0 hr 55 min 59 sec) 
Heartbeat CPU 3 instructions: 260000000 cycles: 242630571 heartbeat IPC: 0.341504 cumulative IPC: 0.533928 (Simulation time: 0 hr 58 min 23 sec) 
Heartbeat CPU 2 instructions: 280000000 cycles: 242833055 heartbeat IPC: 0.258824 cumulative IPC: 0.294617 (Simulation time: 0 hr 58 min 25 sec) 
Heartbeat CPU 0 instructions: 310000000 cycles: 251520669 heartbeat IPC: 0.209541 cumulative IPC: 0.216946 (Simulation time: 0 hr 59 min 22 sec) 
Heartbeat CPU 1 instructions: 250000001 cycles: 255213736 heartbeat IPC: 0.226663 cumulative IPC: 0.23476 (Simulation time: 0 hr 59 min 44 sec) 
Heartbeat CPU 3 instructions: 270000003 cycles: 274265042 heartbeat IPC: 0.316111 cumulative IPC: 0.48608 (Simulation time: 1 hr 1 min 37 sec) 
Heartbeat CPU 2 instructions: 290000000 cycles: 274272124 heartbeat IPC: 0.318076 cumulative IPC: 0.299738 (Simulation time: 1 hr 1 min 37 sec) 
Heartbeat CPU 1 instructions: 260000000 cycles: 288141830 heartbeat IPC: 0.303692 cumulative IPC: 0.249136 (Simulation time: 1 hr 2 min 59 sec) 
Heartbeat CPU 3 instructions: 280000000 cycles: 300001770 heartbeat IPC: 0.38855 cumulative IPC: 0.471293 (Simulation time: 1 hr 4 min 17 sec) 
Heartbeat CPU 0 instructions: 320000000 cycles: 303795642 heartbeat IPC: 0.191296 cumulative IPC: 0.209219 (Simulation time: 1 hr 4 min 42 sec) 
Heartbeat CPU 2 instructions: 300000000 cycles: 306480305 heartbeat IPC: 0.31048 cumulative IPC: 0.301702 (Simulation time: 1 hr 4 min 59 sec) 
Heartbeat CPU 1 instructions: 270000001 cycles: 315752503 heartbeat IPC: 0.362179 cumulative IPC: 0.265962 (Simulation time: 1 hr 6 min 2 sec) 
Heartbeat CPU 3 instructions: 290000000 cycles: 319581164 heartbeat IPC: 0.510741 cumulative IPC: 0.475372 (Simulation time: 1 hr 6 min 30 sec) 
Heartbeat CPU 3 instructions: 300000000 cycles: 338825846 heartbeat IPC: 0.519624 cumulative IPC: 0.479456 (Simulation time: 1 hr 8 min 37 sec) 
Heartbeat CPU 2 instructions: 310000001 cycles: 340409491 heartbeat IPC: 0.294732 cumulative IPC: 0.300576 (Simulation time: 1 hr 8 min 46 sec) 
Heartbeat CPU 1 instructions: 280000000 cycles: 346863733 heartbeat IPC: 0.321427 cumulative IPC: 0.273929 (Simulation time: 1 hr 9 min 26 sec) 
Heartbeat CPU 0 instructions: 330000000 cycles: 348327444 heartbeat IPC: 0.224559 cumulative IPC: 0.212352 (Simulation time: 1 hr 9 min 36 sec) 
Heartbeat CPU 3 instructions: 310000001 cycles: 355116054 heartbeat IPC: 0.613866 cumulative IPC: 0.489193 (Simulation time: 1 hr 10 min 18 sec) 
Heartbeat CPU 3 instructions: 320000000 cycles: 371626187 heartbeat IPC: 0.605689 cumulative IPC: 0.497161 (Simulation time: 1 hr 11 min 57 sec) 
Heartbeat CPU 2 instructions: 320000000 cycles: 372979036 heartbeat IPC: 0.307035 cumulative IPC: 0.301443 (Simulation time: 1 hr 12 min 5 sec) 
Heartbeat CPU 1 instructions: 290000002 cycles: 382633031 heartbeat IPC: 0.279569 cumulative IPC: 0.274728 (Simulation time: 1 hr 12 min 57 sec) 
Heartbeat CPU 3 instructions: 330000002 cycles: 387659536 heartbeat IPC: 0.6237 cumulative IPC: 0.505043 (Simulation time: 1 hr 13 min 28 sec) 
Heartbeat CPU 0 instructions: 340000000 cycles: 400093756 heartbeat IPC: 0.193176 cumulative IPC: 0.208673 (Simulation time: 1 hr 14 min 31 sec) 
Heartbeat CPU 2 instructions: 330000001 cycles: 405434521 heartbeat IPC: 0.308114 cumulative IPC: 0.30223 (Simulation time: 1 hr 14 min 56 sec) 
Heartbeat CPU 3 instructions: 340000000 cycles: 415801757 heartbeat IPC: 0.355338 cumulative IPC: 0.490289 (Simulation time: 1 hr 15 min 42 sec) 
Heartbeat CPU 1 instructions: 300000000 cycles: 425252034 heartbeat IPC: 0.234637 cumulative IPC: 0.268936 (Simulation time: 1 hr 16 min 23 sec) 
Heartbeat CPU 2 instructions: 340000000 cycles: 441152349 heartbeat IPC: 0.279972 cumulative IPC: 0.299673 (Simulation time: 1 hr 17 min 43 sec) 
Heartbeat CPU 3 instructions: 350000001 cycles: 442867578 heartbeat IPC: 0.36947 cumulative IPC: 0.479829 (Simulation time: 1 hr 17 min 51 sec) 
Heartbeat CPU 0 instructions: 350000000 cycles: 443296566 heartbeat IPC: 0.231466 cumulative IPC: 0.211819 (Simulation time: 1 hr 17 min 53 sec) 
Heartbeat CPU 1 instructions: 310000000 cycles: 469161080 heartbeat IPC: 0.227744 cumulative IPC: 0.263599 (Simulation time: 1 hr 19 min 57 sec) 
Heartbeat CPU 3 instructions: 360000000 cycles: 469940305 heartbeat IPC: 0.369375 cumulative IPC: 0.471025 (Simulation time: 1 hr 20 min 1 sec) 
Heartbeat CPU 2 instructions: 350000003 cycles: 478645053 heartbeat IPC: 0.266719 cumulative IPC: 0.296126 (Simulation time: 1 hr 20 min 48 sec) 
Heartbeat CPU 0 instructions: 360000000 cycles: 496170047 heartbeat IPC: 0.189131 cumulative IPC: 0.20854 (Simulation time: 1 hr 22 min 4 sec) 
Heartbeat CPU 3 instructions: 370000003 cycles: 497699044 heartbeat IPC: 0.360247 cumulative IPC: 0.462657 (Simulation time: 1 hr 22 min 10 sec) 
Heartbeat CPU 2 instructions: 360000000 cycles: 513401920 heartbeat IPC: 0.287713 cumulative IPC: 0.295363 (Simulation time: 1 hr 23 min 19 sec) 
Heartbeat CPU 1 instructions: 320000000 cycles: 521945128 heartbeat IPC: 0.189451 cumulative IPC: 0.253607 (Simulation time: 1 hr 24 min 0 sec) 
Heartbeat CPU 3 instructions: 380000000 cycles: 525042666 heartbeat IPC: 0.365716 cumulative IPC: 0.455942 (Simulation time: 1 hr 24 min 18 sec) 
Heartbeat CPU 0 instructions: 370000001 cycles: 546132735 heartbeat IPC: 0.200149 cumulative IPC: 0.207532 (Simulation time: 1 hr 26 min 7 sec) 
Heartbeat CPU 2 instructions: 370000001 cycles: 549689044 heartbeat IPC: 0.27558 cumulative IPC: 0.293651 (Simulation time: 1 hr 26 min 25 sec) 
Heartbeat CPU 1 instructions: 330000003 cycles: 550575664 heartbeat IPC: 0.349278 cumulative IPC: 0.260124 (Simulation time: 1 hr 26 min 30 sec) 
Heartbeat CPU 3 instructions: 390000002 cycles: 553154786 heartbeat IPC: 0.355719 cumulative IPC: 0.44928 (Simulation time: 1 hr 26 min 45 sec) 
Heartbeat CPU 3 instructions: 400000000 cycles: 581144933 heartbeat IPC: 0.357269 cumulative IPC: 0.443568 (Simulation time: 1 hr 28 min 53 sec) 
Heartbeat CPU 2 instructions: 380000000 cycles: 585333264 heartbeat IPC: 0.28055 cumulative IPC: 0.292625 (Simulation time: 1 hr 29 min 14 sec) 
Heartbeat CPU 1 instructions: 340000000 cycles: 592940123 heartbeat IPC: 0.236047 cumulative IPC: 0.257919 (Simulation time: 1 hr 29 min 51 sec) 
Heartbeat CPU 0 instructions: 380000000 cycles: 595328612 heartbeat IPC: 0.203269 cumulative IPC: 0.207081 (Simulation time: 1 hr 30 min 1 sec) 
Heartbeat CPU 3 instructions: 410000000 cycles: 607866537 heartbeat IPC: 0.374229 cumulative IPC: 0.439689 (Simulation time: 1 hr 30 min 49 sec) 
Heartbeat CPU 2 instructions: 390000000 cycles: 627311977 heartbeat IPC: 0.238216 cumulative IPC: 0.28803 (Simulation time: 1 hr 32 min 16 sec) 
Heartbeat CPU 3 instructions: 420000000 cycles: 636308457 heartbeat IPC: 0.351594 cumulative IPC: 0.434737 (Simulation time: 1 hr 33 min 1 sec) 
Heartbeat CPU 1 instructions: 350000003 cycles: 644357204 heartbeat IPC: 0.194488 cumulative IPC: 0.251575 (Simulation time: 1 hr 33 min 40 sec) 
Heartbeat CPU 0 instructions: 390000001 cycles: 645428362 heartbeat IPC: 0.199602 cumulative IPC: 0.206354 (Simulation time: 1 hr 33 min 45 sec) 
Heartbeat CPU 2 instructions: 400000000 cycles: 661901191 heartbeat IPC: 0.289107 cumulative IPC: 0.2881 (Simulation time: 1 hr 35 min 6 sec) 
Heartbeat CPU 3 instructions: 430000003 cycles: 663339624 heartbeat IPC: 0.369943 cumulative IPC: 0.431452 (Simulation time: 1 hr 35 min 12 sec) 
Heartbeat CPU 1 instructions: 360000000 cycles: 682797620 heartbeat IPC: 0.260143 cumulative IPC: 0.252171 (Simulation time: 1 hr 36 min 46 sec) 
Heartbeat CPU 3 instructions: 440000000 cycles: 690841392 heartbeat IPC: 0.363613 cumulative IPC: 0.428124 (Simulation time: 1 hr 37 min 25 sec) 
Heartbeat CPU 0 instructions: 400000000 cycles: 695689376 heartbeat IPC: 0.198961 cumulative IPC: 0.205697 (Simulation time: 1 hr 37 min 48 sec) 
Heartbeat CPU 2 instructions: 410000000 cycles: 697906074 heartbeat IPC: 0.27774 cumulative IPC: 0.287443 (Simulation time: 1 hr 37 min 59 sec) 
Heartbeat CPU 3 instructions: 450000001 cycles: 719023058 heartbeat IPC: 0.354841 cumulative IPC: 0.424616 (Simulation time: 1 hr 39 min 27 sec) 
Heartbeat CPU 2 instructions: 420000000 cycles: 735249017 heartbeat IPC: 0.267788 cumulative IPC: 0.28623 (Simulation time: 1 hr 40 min 30 sec) 
Heartbeat CPU 1 instructions: 370000000 cycles: 741462477 heartbeat IPC: 0.17046 cumulative IPC: 0.244328 (Simulation time: 1 hr 41 min 0 sec) 
Heartbeat CPU 0 instructions: 410000002 cycles: 745395761 heartbeat IPC: 0.201181 cumulative IPC: 0.205332 (Simulation time: 1 hr 41 min 20 sec) 
Heartbeat CPU 3 instructions: 460000000 cycles: 746098150 heartbeat IPC: 0.369343 cumulative IPC: 0.422186 (Simulation time: 1 hr 41 min 23 sec) 
Heartbeat CPU 2 instructions: 430000003 cycles: 772242987 heartbeat IPC: 0.270314 cumulative IPC: 0.285313 (Simulation time: 1 hr 43 min 29 sec) 
Heartbeat CPU 1 instructions: 380000000 cycles: 772298005 heartbeat IPC: 0.324301 cumulative IPC: 0.248169 (Simulation time: 1 hr 43 min 29 sec) 
Heartbeat CPU 3 instructions: 470000002 cycles: 774215457 heartbeat IPC: 0.355653 cumulative IPC: 0.419281 (Simulation time: 1 hr 43 min 38 sec) 
Heartbeat CPU 0 instructions: 420000000 cycles: 796795487 heartbeat IPC: 0.194554 cumulative IPC: 0.204501 (Simulation time: 1 hr 45 min 17 sec) 
Heartbeat CPU 3 instructions: 480000000 cycles: 802151411 heartbeat IPC: 0.357962 cumulative IPC: 0.416731 (Simulation time: 1 hr 45 min 41 sec) 
Heartbeat CPU 2 instructions: 440000000 cycles: 806507315 heartbeat IPC: 0.291849 cumulative IPC: 0.285644 (Simulation time: 1 hr 46 min 0 sec) 
Heartbeat CPU 1 instructions: 390000000 cycles: 825557548 heartbeat IPC: 0.18776 cumulative IPC: 0.243542 (Simulation time: 1 hr 47 min 23 sec) 
Heartbeat CPU 3 instructions: 490000000 cycles: 830262064 heartbeat IPC: 0.355737 cumulative IPC: 0.414282 (Simulation time: 1 hr 47 min 41 sec) 
Heartbeat CPU 2 instructions: 450000000 cycles: 840881256 heartbeat IPC: 0.290918 cumulative IPC: 0.285899 (Simulation time: 1 hr 48 min 23 sec) 
Heartbeat CPU 0 instructions: 430000000 cycles: 848397664 heartbeat IPC: 0.19379 cumulative IPC: 0.203731 (Simulation time: 1 hr 48 min 57 sec) 
Heartbeat CPU 3 instructions: 500000000 cycles: 858223548 heartbeat IPC: 0.357635 cumulative IPC: 0.412106 (Simulation time: 1 hr 49 min 44 sec) 
Heartbeat CPU 1 instructions: 400000000 cycles: 874537798 heartbeat IPC: 0.204164 cumulative IPC: 0.24095 (Simulation time: 1 hr 51 min 1 sec) 
Heartbeat CPU 2 instructions: 460000000 cycles: 876961245 heartbeat IPC: 0.277162 cumulative IPC: 0.285477 (Simulation time: 1 hr 51 min 14 sec) 
Heartbeat CPU 3 instructions: 510000003 cycles: 885730561 heartbeat IPC: 0.363544 cumulative IPC: 0.410338 (Simulation time: 1 hr 51 min 56 sec) 
Heartbeat CPU 0 instructions: 440000000 cycles: 897322945 heartbeat IPC: 0.204393 cumulative IPC: 0.203773 (Simulation time: 1 hr 52 min 47 sec) 
Heartbeat CPU 1 instructions: 410000001 cycles: 908798199 heartbeat IPC: 0.291882 cumulative IPC: 0.243192 (Simulation time: 1 hr 53 min 45 sec) 
Heartbeat CPU 2 instructions: 470000000 cycles: 912019024 heartbeat IPC: 0.285243 cumulative IPC: 0.285466 (Simulation time: 1 hr 54 min 1 sec) 
Heartbeat CPU 3 instructions: 520000000 cycles: 913700253 heartbeat IPC: 0.35753 cumulative IPC: 0.408453 (Simulation time: 1 hr 54 min 9 sec) 
Heartbeat CPU 3 instructions: 530000001 cycles: 940738925 heartbeat IPC: 0.369841 cumulative IPC: 0.407165 (Simulation time: 1 hr 56 min 12 sec) 
Heartbeat CPU 2 instructions: 480000000 cycles: 945839536 heartbeat IPC: 0.295679 cumulative IPC: 0.28589 (Simulation time: 1 hr 56 min 37 sec) 
Heartbeat CPU 0 instructions: 450000002 cycles: 946893598 heartbeat IPC: 0.201732 cumulative IPC: 0.20365 (Simulation time: 1 hr 56 min 42 sec) 
Heartbeat CPU 1 instructions: 420000000 cycles: 947812873 heartbeat IPC: 0.256314 cumulative IPC: 0.243818 (Simulation time: 1 hr 56 min 47 sec) 
Heartbeat CPU 3 instructions: 540000000 cycles: 968903983 heartbeat IPC: 0.35505 cumulative IPC: 0.405414 (Simulation time: 1 hr 58 min 28 sec) 
Heartbeat CPU 2 instructions: 490000001 cycles: 980232807 heartbeat IPC: 0.290755 cumulative IPC: 0.286087 (Simulation time: 1 hr 59 min 22 sec) 
Heartbeat CPU 1 instructions: 430000002 cycles: 981904090 heartbeat IPC: 0.293331 cumulative IPC: 0.2458 (Simulation time: 1 hr 59 min 30 sec) 
Heartbeat CPU 0 instructions: 460000000 cycles: 995237996 heartbeat IPC: 0.206849 cumulative IPC: 0.203828 (Simulation time: 2 hr 0 min 39 sec) 
Heartbeat CPU 3 instructions: 550000003 cycles: 996894276 heartbeat IPC: 0.357267 cumulative IPC: 0.403859 (Simulation time: 2 hr 0 min 48 sec) 
Heartbeat CPU 1 instructions: 440000000 cycles: 1010477596 heartbeat IPC: 0.349974 cumulative IPC: 0.249182 (Simulation time: 2 hr 1 min 53 sec) 
Heartbeat CPU 2 instructions: 500000000 cycles: 1021457436 heartbeat IPC: 0.242573 cumulative IPC: 0.284074 (Simulation time: 2 hr 2 min 52 sec) 
Heartbeat CPU 3 instructions: 560000000 cycles: 1025787106 heartbeat IPC: 0.346107 cumulative IPC: 0.401996 (Simulation time: 2 hr 3 min 13 sec) 
Heartbeat CPU 1 instructions: 450000002 cycles: 1042365993 heartbeat IPC: 0.313594 cumulative IPC: 0.251434 (Simulation time: 2 hr 4 min 36 sec) 
Heartbeat CPU 0 instructions: 470000003 cycles: 1049378560 heartbeat IPC: 0.184704 cumulative IPC: 0.202702 (Simulation time: 2 hr 5 min 15 sec) 
Heartbeat CPU 3 instructions: 570000000 cycles: 1052682649 heartbeat IPC: 0.371809 cumulative IPC: 0.401116 (Simulation time: 2 hr 5 min 40 sec) 
Heartbeat CPU 2 instructions: 510000002 cycles: 1057524844 heartbeat IPC: 0.277259 cumulative IPC: 0.283809 (Simulation time: 2 hr 6 min 12 sec) 
Heartbeat CPU 3 instructions: 580000000 cycles: 1080563642 heartbeat IPC: 0.358667 cumulative IPC: 0.39987 (Simulation time: 2 hr 7 min 58 sec) 
Heartbeat CPU 1 instructions: 460000000 cycles: 1091243082 heartbeat IPC: 0.204595 cumulative IPC: 0.249051 (Simulation time: 2 hr 8 min 51 sec) 
Heartbeat CPU 2 instructions: 520000000 cycles: 1092301416 heartbeat IPC: 0.28755 cumulative IPC: 0.283944 (Simulation time: 2 hr 8 min 57 sec) 
Heartbeat CPU 0 instructions: 480000000 cycles: 1098797073 heartbeat IPC: 0.202353 cumulative IPC: 0.202684 (Simulation time: 2 hr 9 min 27 sec) 
Heartbeat CPU 3 instructions: 590000000 cycles: 1107110545 heartbeat IPC: 0.376692 cumulative IPC: 0.399241 (Simulation time: 2 hr 10 min 17 sec) 
Heartbeat CPU 1 instructions: 470000000 cycles: 1127693290 heartbeat IPC: 0.274347 cumulative IPC: 0.249976 (Simulation time: 2 hr 12 min 6 sec) 
Heartbeat CPU 2 instructions: 530000003 cycles: 1129109611 heartbeat IPC: 0.271679 cumulative IPC: 0.283492 (Simulation time: 2 hr 12 min 13 sec) 
Heartbeat CPU 3 instructions: 600000000 cycles: 1135716075 heartbeat IPC: 0.349583 cumulative IPC: 0.397828 (Simulation time: 2 hr 12 min 45 sec) 
Heartbeat CPU 0 instructions: 490000002 cycles: 1154818511 heartbeat IPC: 0.178503 cumulative IPC: 0.201362 (Simulation time: 2 hr 14 min 19 sec) 
Heartbeat CPU 2 instructions: 540000000 cycles: 1164895325 heartbeat IPC: 0.279441 cumulative IPC: 0.283352 (Simulation time: 2 hr 15 min 13 sec) 
Heartbeat CPU 3 instructions: 610000001 cycles: 1165083116 heartbeat IPC: 0.340518 cumulative IPC: 0.396201 (Simulation time: 2 hr 15 min 14 sec) 
Heartbeat CPU 1 instructions: 480000000 cycles: 1169633018 heartbeat IPC: 0.238437 cumulative IPC: 0.24951 (Simulation time: 2 hr 15 min 40 sec) 
Heartbeat CPU 3 instructions: 620000000 cycles: 1193335205 heartbeat IPC: 0.353956 cumulative IPC: 0.395079 (Simulation time: 2 hr 17 min 42 sec) 
Heartbeat CPU 2 instructions: 550000001 cycles: 1199615589 heartbeat IPC: 0.288016 cumulative IPC: 0.283503 (Simulation time: 2 hr 18 min 25 sec) 
Heartbeat CPU 1 instructions: 490000002 cycles: 1202208390 heartbeat IPC: 0.30698 cumulative IPC: 0.251257 (Simulation time: 2 hr 18 min 42 sec) 
Heartbeat CPU 0 instructions: 500000000 cycles: 1208727752 heartbeat IPC: 0.185497 cumulative IPC: 0.200569 (Simulation time: 2 hr 19 min 22 sec) 
Heartbeat CPU 3 instructions: 630000001 cycles: 1221140130 heartbeat IPC: 0.359649 cumulative IPC: 0.394176 (Simulation time: 2 hr 20 min 27 sec) 
Heartbeat CPU 2 instructions: 560000000 cycles: 1233765060 heartbeat IPC: 0.29283 cumulative IPC: 0.283792 (Simulation time: 2 hr 21 min 25 sec) 
Heartbeat CPU 3 instructions: 640000000 cycles: 1247091384 heartbeat IPC: 0.385338 cumulative IPC: 0.39397 (Simulation time: 2 hr 22 min 27 sec) 
Heartbeat CPU 0 instructions: 510000000 cycles: 1257608244 heartbeat IPC: 0.204581 cumulative IPC: 0.200743 (Simulation time: 2 hr 23 min 29 sec) 
Heartbeat CPU 1 instructions: 500000000 cycles: 1258050850 heartbeat IPC: 0.179075 cumulative IPC: 0.247683 (Simulation time: 2 hr 23 min 32 sec) 
Heartbeat CPU 2 instructions: 570000001 cycles: 1267305021 heartbeat IPC: 0.298152 cumulative IPC: 0.284216 (Simulation time: 2 hr 24 min 25 sec) 
Heartbeat CPU 3 instructions: 650000002 cycles: 1274892979 heartbeat IPC: 0.359692 cumulative IPC: 0.393138 (Simulation time: 2 hr 25 min 5 sec) 
Heartbeat CPU 1 instructions: 510000003 cycles: 1301086589 heartbeat IPC: 0.232365 cumulative IPC: 0.24712 (Simulation time: 2 hr 27 min 19 sec) 
Heartbeat CPU 2 instructions: 580000000 cycles: 1301786626 heartbeat IPC: 0.29001 cumulative IPC: 0.284386 (Simulation time: 2 hr 27 min 24 sec) 
Heartbeat CPU 3 instructions: 660000000 cycles: 1302510930 heartbeat IPC: 0.362083 cumulative IPC: 0.392406 (Simulation time: 2 hr 27 min 28 sec) 
Heartbeat CPU 0 instructions: 520000000 cycles: 1308381187 heartbeat IPC: 0.196955 cumulative IPC: 0.20058 (Simulation time: 2 hr 27 min 59 sec) 
Heartbeat CPU 3 instructions: 670000002 cycles: 1331084035 heartbeat IPC: 0.34998 cumulative IPC: 0.391397 (Simulation time: 2 hr 29 min 45 sec) 
Heartbeat CPU 2 instructions: 590000000 cycles: 1337899407 heartbeat IPC: 0.27691 cumulative IPC: 0.284163 (Simulation time: 2 hr 30 min 17 sec) 
Heartbeat CPU 1 instructions: 520000000 cycles: 1339672633 heartbeat IPC: 0.259161 cumulative IPC: 0.247504 (Simulation time: 2 hr 30 min 28 sec) 
Heartbeat CPU 3 instructions: 680000000 cycles: 1357881909 heartbeat IPC: 0.373164 cumulative IPC: 0.390999 (Simulation time: 2 hr 31 min 57 sec) 
Heartbeat CPU 0 instructions: 530000000 cycles: 1363501603 heartbeat IPC: 0.181421 cumulative IPC: 0.199723 (Simulation time: 2 hr 32 min 21 sec) 
Heartbeat CPU 2 instructions: 600000000 cycles: 1373317450 heartbeat IPC: 0.282342 cumulative IPC: 0.284111 (Simulation time: 2 hr 33 min 14 sec) 
Heartbeat CPU 3 instructions: 690000003 cycles: 1385200882 heartbeat IPC: 0.366046 cumulative IPC: 0.390455 (Simulation time: 2 hr 34 min 22 sec) 
Heartbeat CPU 1 instructions: 530000001 cycles: 1387971739 heartbeat IPC: 0.207043 cumulative IPC: 0.24595 (Simulation time: 2 hr 34 min 36 sec) 
Heartbeat CPU 2 instructions: 610000001 cycles: 1408479380 heartbeat IPC: 0.284399 cumulative IPC: 0.284119 (Simulation time: 2 hr 36 min 14 sec) 
Heartbeat CPU 3 instructions: 700000000 cycles: 1413283383 heartbeat IPC: 0.356094 cumulative IPC: 0.389703 (Simulation time: 2 hr 36 min 41 sec) 
Heartbeat CPU 0 instructions: 540000000 cycles: 1416907435 heartbeat IPC: 0.187245 cumulative IPC: 0.199205 (Simulation time: 2 hr 36 min 58 sec) 
Heartbeat CPU 1 instructions: 540000000 cycles: 1428143378 heartbeat IPC: 0.248932 cumulative IPC: 0.246042 (Simulation time: 2 hr 37 min 47 sec) 
Heartbeat CPU 3 instructions: 710000001 cycles: 1441218693 heartbeat IPC: 0.35797 cumulative IPC: 0.389027 (Simulation time: 2 hr 38 min 43 sec) 
Heartbeat CPU 2 instructions: 620000000 cycles: 1452688338 heartbeat IPC: 0.226198 cumulative IPC: 0.282182 (Simulation time: 2 hr 39 min 41 sec) 
Heartbeat CPU 0 instructions: 550000003 cycles: 1468652335 heartbeat IPC: 0.193256 cumulative IPC: 0.198975 (Simulation time: 2 hr 41 min 12 sec) 
Heartbeat CPU 3 instructions: 720000000 cycles: 1469055205 heartbeat IPC: 0.35924 cumulative IPC: 0.388408 (Simulation time: 2 hr 41 min 16 sec) 
Heartbeat CPU 1 instructions: 550000001 cycles: 1480054799 heartbeat IPC: 0.192636 cumulative IPC: 0.243988 (Simulation time: 2 hr 42 min 9 sec) 
Heartbeat CPU 2 instructions: 630000003 cycles: 1486266777 heartbeat IPC: 0.29781 cumulative IPC: 0.282569 (Simulation time: 2 hr 42 min 34 sec) 
Heartbeat CPU 3 instructions: 730000003 cycles: 1496082029 heartbeat IPC: 0.370003 cumulative IPC: 0.388044 (Simulation time: 2 hr 43 min 15 sec) 
Heartbeat CPU 2 instructions: 640000000 cycles: 1520806116 heartbeat IPC: 0.289525 cumulative IPC: 0.282742 (Simulation time: 2 hr 45 min 8 sec) 
Heartbeat CPU 3 instructions: 740000000 cycles: 1522253625 heartbeat IPC: 0.382094 cumulative IPC: 0.387932 (Simulation time: 2 hr 45 min 16 sec) 
Heartbeat CPU 0 instructions: 560000000 cycles: 1523578094 heartbeat IPC: 0.182064 cumulative IPC: 0.198309 (Simulation time: 2 hr 45 min 23 sec) 
Heartbeat CPU 1 instructions: 560000000 cycles: 1537070728 heartbeat IPC: 0.17539 cumulative IPC: 0.241208 (Simulation time: 2 hr 46 min 42 sec) 
Heartbeat CPU 3 instructions: 750000003 cycles: 1545095345 heartbeat IPC: 0.437796 cumulative IPC: 0.388737 (Simulation time: 2 hr 47 min 33 sec) 
Heartbeat CPU 2 instructions: 650000003 cycles: 1553956469 heartbeat IPC: 0.301656 cumulative IPC: 0.283183 (Simulation time: 2 hr 48 min 17 sec) 
Heartbeat CPU 3 instructions: 760000000 cycles: 1567990037 heartbeat IPC: 0.436782 cumulative IPC: 0.389502 (Simulation time: 2 hr 49 min 33 sec) 
Heartbeat CPU 0 instructions: 570000003 cycles: 1570182846 heartbeat IPC: 0.21457 cumulative IPC: 0.198835 (Simulation time: 2 hr 49 min 46 sec) 
Heartbeat CPU 1 instructions: 570000003 cycles: 1580387971 heartbeat IPC: 0.230855 cumulative IPC: 0.240899 (Simulation time: 2 hr 50 min 48 sec) 
Heartbeat CPU 2 instructions: 660000000 cycles: 1586081693 heartbeat IPC: 0.311282 cumulative IPC: 0.283803 (Simulation time: 2 hr 51 min 25 sec) 
Heartbeat CPU 3 instructions: 770000002 cycles: 1591648547 heartbeat IPC: 0.422681 cumulative IPC: 0.390039 (Simulation time: 2 hr 51 min 57 sec) 
Heartbeat CPU 3 instructions: 780000000 cycles: 1615127743 heartbeat IPC: 0.425909 cumulative IPC: 0.390606 (Simulation time: 2 hr 54 min 31 sec) 
Heartbeat CPU 1 instructions: 580000000 cycles: 1616465636 heartbeat IPC: 0.27718 cumulative IPC: 0.24178 (Simulation time: 2 hr 54 min 40 sec) 
Heartbeat CPU 2 instructions: 670000000 cycles: 1617881419 heartbeat IPC: 0.314468 cumulative IPC: 0.284458 (Simulation time: 2 hr 54 min 50 sec) 
Heartbeat CPU 0 instructions: 580000000 cycles: 1617925753 heartbeat IPC: 0.209455 cumulative IPC: 0.199176 (Simulation time: 2 hr 54 min 50 sec) 
Heartbeat CPU 3 instructions: 790000002 cycles: 1638770794 heartbeat IPC: 0.422957 cumulative IPC: 0.391113 (Simulation time: 2 hr 56 min 58 sec) 
Heartbeat CPU 2 instructions: 680000000 cycles: 1650339707 heartbeat IPC: 0.308088 cumulative IPC: 0.284963 (Simulation time: 2 hr 57 min 53 sec) 
Heartbeat CPU 1 instructions: 590000001 cycles: 1659019634 heartbeat IPC: 0.234996 cumulative IPC: 0.241591 (Simulation time: 2 hr 58 min 43 sec) 
Heartbeat CPU 3 instructions: 800000000 cycles: 1662324136 heartbeat IPC: 0.424568 cumulative IPC: 0.391627 (Simulation time: 2 hr 59 min 2 sec) 
Heartbeat CPU 0 instructions: 590000002 cycles: 1665964129 heartbeat IPC: 0.208167 cumulative IPC: 0.199457 (Simulation time: 2 hr 59 min 24 sec) 
Heartbeat CPU 2 instructions: 690000000 cycles: 1683088142 heartbeat IPC: 0.305358 cumulative IPC: 0.285393 (Simulation time: 3 hr 1 min 11 sec) 
Heartbeat CPU 3 instructions: 810000000 cycles: 1686218137 heartbeat IPC: 0.418515 cumulative IPC: 0.39204 (Simulation time: 3 hr 1 min 29 sec) 
Heartbeat CPU 1 instructions: 600000000 cycles: 1688165446 heartbeat IPC: 0.343102 cumulative IPC: 0.24349 (Simulation time: 3 hr 1 min 40 sec) 
Heartbeat CPU 3 instructions: 820000000 cycles: 1709882445 heartbeat IPC: 0.422577 cumulative IPC: 0.392498 (Simulation time: 3 hr 3 min 46 sec) 
Heartbeat CPU 0 instructions: 600000000 cycles: 1710825126 heartbeat IPC: 0.222911 cumulative IPC: 0.200123 (Simulation time: 3 hr 3 min 51 sec) 
Heartbeat CPU 2 instructions: 700000000 cycles: 1714922610 heartbeat IPC: 0.314125 cumulative IPC: 0.28597 (Simulation time: 3 hr 4 min 14 sec) 
Heartbeat CPU 1 instructions: 610000003 cycles: 1720902335 heartbeat IPC: 0.305466 cumulative IPC: 0.244765 (Simulation time: 3 hr 4 min 51 sec) 
Heartbeat CPU 3 instructions: 830000001 cycles: 1733564655 heartbeat IPC: 0.422258 cumulative IPC: 0.392937 (Simulation time: 3 hr 6 min 6 sec) 
Heartbeat CPU 2 instructions: 710000003 cycles: 1746416805 heartbeat IPC: 0.317519 cumulative IPC: 0.286585 (Simulation time: 3 hr 7 min 17 sec) 
Heartbeat CPU 1 instructions: 620000000 cycles: 1755364430 heartbeat IPC: 0.290174 cumulative IPC: 0.245728 (Simulation time: 3 hr 8 min 7 sec) 
Heartbeat CPU 0 instructions: 610000001 cycles: 1756731204 heartbeat IPC: 0.217836 cumulative IPC: 0.200623 (Simulation time: 3 hr 8 min 15 sec) 
Heartbeat CPU 3 instructions: 840000000 cycles: 1757100147 heartbeat IPC: 0.42489 cumulative IPC: 0.3934 (Simulation time: 3 hr 8 min 17 sec) 
Heartbeat CPU 2 instructions: 720000000 cycles: 1778359664 heartbeat IPC: 0.313059 cumulative IPC: 0.287098 (Simulation time: 3 hr 10 min 3 sec) 
Heartbeat CPU 3 instructions: 850000000 cycles: 1780654361 heartbeat IPC: 0.424552 cumulative IPC: 0.393844 (Simulation time: 3 hr 10 min 16 sec) 
Heartbeat CPU 0 instructions: 620000000 cycles: 1802255452 heartbeat IPC: 0.219663 cumulative IPC: 0.201141 (Simulation time: 3 hr 12 min 9 sec) 
Heartbeat CPU 3 instructions: 860000000 cycles: 1804541358 heartbeat IPC: 0.418638 cumulative IPC: 0.394198 (Simulation time: 3 hr 12 min 21 sec) 
Heartbeat CPU 1 instructions: 630000000 cycles: 1811447818 heartbeat IPC: 0.178306 cumulative IPC: 0.243479 (Simulation time: 3 hr 13 min 2 sec) 
Heartbeat CPU 2 instructions: 730000002 cycles: 1818578551 heartbeat IPC: 0.248639 cumulative IPC: 0.286182 (Simulation time: 3 hr 13 min 42 sec) 
Heartbeat CPU 3 instructions: 870000001 cycles: 1828587546 heartbeat IPC: 0.415866 cumulative IPC: 0.394505 (Simulation time: 3 hr 14 min 39 sec) 
Heartbeat CPU 1 instructions: 640000000 cycles: 1846987270 heartbeat IPC: 0.281377 cumulative IPC: 0.244264 (Simulation time: 3 hr 16 min 28 sec) 
Heartbeat CPU 2 instructions: 740000000 cycles: 1851414517 heartbeat IPC: 0.304544 cumulative IPC: 0.286532 (Simulation time: 3 hr 16 min 55 sec) 
Heartbeat CPU 3 instructions: 880000000 cycles: 1851500078 heartbeat IPC: 0.436442 cumulative IPC: 0.395063 (Simulation time: 3 hr 16 min 55 sec) 
Heartbeat CPU 0 instructions: 630000000 cycles: 1854308942 heartbeat IPC: 0.19211 cumulative IPC: 0.200868 (Simulation time: 3 hr 17 min 12 sec) 
Heartbeat CPU 3 instructions: 890000001 cycles: 1885002060 heartbeat IPC: 0.29849 cumulative IPC: 0.393219 (Simulation time: 3 hr 19 min 22 sec) 
Heartbeat CPU 2 instructions: 750000000 cycles: 1886482101 heartbeat IPC: 0.285164 cumulative IPC: 0.286505 (Simulation time: 3 hr 19 min 30 sec) 
Heartbeat CPU 0 instructions: 640000000 cycles: 1904026242 heartbeat IPC: 0.201137 cumulative IPC: 0.200876 (Simulation time: 3 hr 21 min 14 sec) 
Heartbeat CPU 1 instructions: 650000000 cycles: 1906454843 heartbeat IPC: 0.168159 cumulative IPC: 0.241716 (Simulation time: 3 hr 21 min 32 sec) 
Heartbeat CPU 3 instructions: 900000000 cycles: 1907189232 heartbeat IPC: 0.450711 cumulative IPC: 0.393937 (Simulation time: 3 hr 21 min 37 sec) 
Heartbeat CPU 2 instructions: 760000000 cycles: 1918053366 heartbeat IPC: 0.316744 cumulative IPC: 0.287039 (Simulation time: 3 hr 22 min 49 sec) 
Heartbeat CPU 3 instructions: 910000001 cycles: 1930401552 heartbeat IPC: 0.430806 cumulative IPC: 0.394413 (Simulation time: 3 hr 24 min 2 sec) 
Heartbeat CPU 1 instructions: 660000000 cycles: 1943642685 heartbeat IPC: 0.268905 cumulative IPC: 0.242273 (Simulation time: 3 hr 25 min 11 sec) 
Heartbeat CPU 2 instructions: 770000000 cycles: 1949866356 heartbeat IPC: 0.314337 cumulative IPC: 0.287516 (Simulation time: 3 hr 25 min 48 sec) 
Heartbeat CPU 0 instructions: 650000002 cycles: 1951611134 heartbeat IPC: 0.210151 cumulative IPC: 0.201118 (Simulation time: 3 hr 25 min 59 sec) 
Heartbeat CPU 3 instructions: 920000000 cycles: 1953449486 heartbeat IPC: 0.433878 cumulative IPC: 0.394911 (Simulation time: 3 hr 26 min 8 sec) 
Heartbeat CPU 3 instructions: 930000000 cycles: 1976795523 heartbeat IPC: 0.428338 cumulative IPC: 0.395334 (Simulation time: 3 hr 28 min 18 sec) 
Heartbeat CPU 1 instructions: 670000000 cycles: 1978231809 heartbeat IPC: 0.289108 cumulative IPC: 0.24315 (Simulation time: 3 hr 28 min 26 sec) 
Heartbeat CPU 2 instructions: 780000000 cycles: 1981566280 heartbeat IPC: 0.315458 cumulative IPC: 0.287994 (Simulation time: 3 hr 28 min 47 sec) 
Heartbeat CPU 0 instructions: 660000000 cycles: 1999058992 heartbeat IPC: 0.210758 cumulative IPC: 0.201363 (Simulation time: 3 hr 30 min 20 sec) 
Heartbeat CPU 3 instructions: 940000000 cycles: 2000362369 heartbeat IPC: 0.424325 cumulative IPC: 0.395699 (Simulation time: 3 hr 30 min 28 sec) 
Heartbeat CPU 2 instructions: 790000003 cycles: 2013993241 heartbeat IPC: 0.308385 cumulative IPC: 0.288345 (Simulation time: 3 hr 31 min 47 sec) 
Heartbeat CPU 1 instructions: 680000000 cycles: 2016848204 heartbeat IPC: 0.258957 cumulative IPC: 0.243473 (Simulation time: 3 hr 32 min 3 sec) 
Heartbeat CPU 3 instructions: 950000000 cycles: 2023914939 heartbeat IPC: 0.424582 cumulative IPC: 0.396059 (Simulation time: 3 hr 32 min 37 sec) 
Heartbeat CPU 0 instructions: 670000002 cycles: 2044733487 heartbeat IPC: 0.218941 cumulative IPC: 0.201782 (Simulation time: 3 hr 34 min 30 sec) 
Heartbeat CPU 2 instructions: 800000000 cycles: 2046036417 heartbeat IPC: 0.312079 cumulative IPC: 0.288742 (Simulation time: 3 hr 34 min 37 sec) 
Heartbeat CPU 3 instructions: 960000000 cycles: 2047013218 heartbeat IPC: 0.432933 cumulative IPC: 0.396503 (Simulation time: 3 hr 34 min 42 sec) 
Heartbeat CPU 1 instructions: 690000000 cycles: 2060914869 heartbeat IPC: 0.226929 cumulative IPC: 0.243096 (Simulation time: 3 hr 36 min 0 sec) 
Heartbeat CPU 3 instructions: 970000002 cycles: 2070505453 heartbeat IPC: 0.425673 cumulative IPC: 0.396856 (Simulation time: 3 hr 36 min 55 sec) 
Heartbeat CPU 2 instructions: 810000003 cycles: 2078472491 heartbeat IPC: 0.308299 cumulative IPC: 0.289068 (Simulation time: 3 hr 37 min 43 sec) 
Heartbeat CPU 3 instructions: 980000000 cycles: 2094149739 heartbeat IPC: 0.422935 cumulative IPC: 0.39717 (Simulation time: 3 hr 39 min 7 sec) 
Heartbeat CPU 0 instructions: 680000000 cycles: 2095875584 heartbeat IPC: 0.195534 cumulative IPC: 0.20162 (Simulation time: 3 hr 39 min 16 sec) 
Heartbeat CPU 1 instructions: 700000000 cycles: 2099251524 heartbeat IPC: 0.260847 cumulative IPC: 0.243441 (Simulation time: 3 hr 39 min 31 sec) 
Heartbeat CPU 2 instructions: 820000000 cycles: 2111169274 heartbeat IPC: 0.30584 cumulative IPC: 0.289345 (Simulation time: 3 hr 40 min 38 sec) 
Heartbeat CPU 3 instructions: 990000001 cycles: 2117573547 heartbeat IPC: 0.426916 cumulative IPC: 0.397521 (Simulation time: 3 hr 41 min 14 sec) 
Heartbeat CPU 1 instructions: 710000000 cycles: 2133230802 heartbeat IPC: 0.294297 cumulative IPC: 0.244304 (Simulation time: 3 hr 42 min 46 sec) 
Heartbeat CPU 3 instructions: 1000000000 cycles: 2141297587 heartbeat IPC: 0.421513 cumulative IPC: 0.397804 (Simulation time: 3 hr 43 min 28 sec) 
Heartbeat CPU 2 instructions: 830000001 cycles: 2144136819 heartbeat IPC: 0.303329 cumulative IPC: 0.289574 (Simulation time: 3 hr 43 min 42 sec) 
Heartbeat CPU 0 instructions: 690000001 cycles: 2146616381 heartbeat IPC: 0.19708 cumulative IPC: 0.201506 (Simulation time: 3 hr 43 min 54 sec) 
Heartbeat CPU 3 instructions: 1010000000 cycles: 2165119325 heartbeat IPC: 0.419785 cumulative IPC: 0.398061 (Simulation time: 3 hr 45 min 35 sec) 
Heartbeat CPU 1 instructions: 720000000 cycles: 2179490555 heartbeat IPC: 0.216171 cumulative IPC: 0.243669 (Simulation time: 3 hr 46 min 52 sec) 
Heartbeat CPU 2 instructions: 840000000 cycles: 2180479456 heartbeat IPC: 0.275159 cumulative IPC: 0.289318 (Simulation time: 3 hr 46 min 57 sec) 
Heartbeat CPU 3 instructions: 1020000000 cycles: 2188192502 heartbeat IPC: 0.433404 cumulative IPC: 0.398457 (Simulation time: 3 hr 47 min 46 sec) 
Heartbeat CPU 0 instructions: 700000000 cycles: 2194615093 heartbeat IPC: 0.208339 cumulative IPC: 0.201664 (Simulation time: 3 hr 48 min 24 sec) 
Heartbeat CPU 3 instructions: 1030000000 cycles: 2210663426 heartbeat IPC: 0.44502 cumulative IPC: 0.39896 (Simulation time: 3 hr 49 min 47 sec) 
Heartbeat CPU 1 instructions: 730000001 cycles: 2216037658 heartbeat IPC: 0.27362 cumulative IPC: 0.244194 (Simulation time: 3 hr 50 min 19 sec) 
Heartbeat CPU 2 instructions: 850000000 cycles: 2218731543 heartbeat IPC: 0.261424 cumulative IPC: 0.288807 (Simulation time: 3 hr 50 min 36 sec) 
Heartbeat CPU 3 instructions: 1040000000 cycles: 2231395523 heartbeat IPC: 0.482344 cumulative IPC: 0.399783 (Simulation time: 3 hr 51 min 50 sec) 
Heartbeat CPU 0 instructions: 710000002 cycles: 2242778415 heartbeat IPC: 0.207627 cumulative IPC: 0.2018 (Simulation time: 3 hr 52 min 57 sec) 
Heartbeat CPU 1 instructions: 740000000 cycles: 2248900861 heartbeat IPC: 0.304292 cumulative IPC: 0.245126 (Simulation time: 3 hr 53 min 34 sec) 
Heartbeat CPU 2 instructions: 860000000 cycles: 2249284277 heartbeat IPC: 0.327303 cumulative IPC: 0.289362 (Simulation time: 3 hr 53 min 36 sec) 
Heartbeat CPU 3 instructions: 1050000000 cycles: 2251924561 heartbeat IPC: 0.487115 cumulative IPC: 0.400628 (Simulation time: 3 hr 53 min 51 sec) 
Heartbeat CPU 3 instructions: 1060000000 cycles: 2272497627 heartbeat IPC: 0.486072 cumulative IPC: 0.401449 (Simulation time: 3 hr 55 min 50 sec) 
Heartbeat CPU 1 instructions: 750000001 cycles: 2277605195 heartbeat IPC: 0.348379 cumulative IPC: 0.246506 (Simulation time: 3 hr 56 min 20 sec) 
Heartbeat CPU 2 instructions: 870000000 cycles: 2282307931 heartbeat IPC: 0.302813 cumulative IPC: 0.289569 (Simulation time: 3 hr 56 min 50 sec) 
Heartbeat CPU 3 instructions: 1070000000 cycles: 2292887918 heartbeat IPC: 0.490429 cumulative IPC: 0.402288 (Simulation time: 3 hr 57 min 47 sec) 
Heartbeat CPU 0 instructions: 720000000 cycles: 2293845878 heartbeat IPC: 0.195819 cumulative IPC: 0.201659 (Simulation time: 3 hr 57 min 52 sec) 
Heartbeat CPU 3 instructions: 1080000000 cycles: 2313151756 heartbeat IPC: 0.49349 cumulative IPC: 0.403134 (Simulation time: 3 hr 59 min 39 sec) 
Heartbeat CPU 2 instructions: 880000000 cycles: 2315464049 heartbeat IPC: 0.301603 cumulative IPC: 0.289751 (Simulation time: 3 hr 59 min 53 sec) 
Heartbeat CPU 1 instructions: 760000000 cycles: 2316648902 heartbeat IPC: 0.256123 cumulative IPC: 0.246678 (Simulation time: 4 hr 0 min 0 sec) 
Heartbeat CPU 3 instructions: 1090000000 cycles: 2333219377 heartbeat IPC: 0.498315 cumulative IPC: 0.404001 (Simulation time: 4 hr 1 min 38 sec) 
Heartbeat CPU 0 instructions: 730000003 cycles: 2347125068 heartbeat IPC: 0.187691 cumulative IPC: 0.201324 (Simulation time: 4 hr 2 min 53 sec) 
Heartbeat CPU 2 instructions: 890000001 cycles: 2349479077 heartbeat IPC: 0.293988 cumulative IPC: 0.289816 (Simulation time: 4 hr 3 min 5 sec) 
Heartbeat CPU 3 instructions: 1100000000 cycles: 2353622301 heartbeat IPC: 0.490126 cumulative IPC: 0.404792 (Simulation time: 4 hr 3 min 26 sec) 
Heartbeat CPU 1 instructions: 770000000 cycles: 2363992859 heartbeat IPC: 0.21122 cumulative IPC: 0.245926 (Simulation time: 4 hr 4 min 24 sec) 
Heartbeat CPU 3 instructions: 1110000000 cycles: 2373879805 heartbeat IPC: 0.493644 cumulative IPC: 0.405594 (Simulation time: 4 hr 5 min 21 sec) 
Heartbeat CPU 2 instructions: 900000000 cycles: 2384264207 heartbeat IPC: 0.287479 cumulative IPC: 0.28978 (Simulation time: 4 hr 6 min 21 sec) 
Heartbeat CPU 3 instructions: 1120000000 cycles: 2394102015 heartbeat IPC: 0.494506 cumulative IPC: 0.406388 (Simulation time: 4 hr 7 min 18 sec) 
Heartbeat CPU 0 instructions: 740000000 cycles: 2395381746 heartbeat IPC: 0.207225 cumulative IPC: 0.201449 (Simulation time: 4 hr 7 min 26 sec) 
Heartbeat CPU 1 instructions: 780000000 cycles: 2401102414 heartbeat IPC: 0.269472 cumulative IPC: 0.246311 (Simulation time: 4 hr 7 min 59 sec) 
Heartbeat CPU 3 instructions: 1130000000 cycles: 2414902405 heartbeat IPC: 0.48076 cumulative IPC: 0.407065 (Simulation time: 4 hr 9 min 22 sec) 
Heartbeat CPU 2 instructions: 910000000 cycles: 2419662447 heartbeat IPC: 0.2825 cumulative IPC: 0.289668 (Simulation time: 4 hr 9 min 48 sec) 
Heartbeat CPU 3 instructions: 1140000000 cycles: 2435110996 heartbeat IPC: 0.494839 cumulative IPC: 0.407835 (Simulation time: 4 hr 11 min 11 sec) 
Heartbeat CPU 1 instructions: 790000000 cycles: 2443492245 heartbeat IPC: 0.235906 cumulative IPC: 0.246121 (Simulation time: 4 hr 12 min 0 sec) 
Heartbeat CPU 0 instructions: 750000002 cycles: 2450694176 heartbeat IPC: 0.180791 cumulative IPC: 0.200957 (Simulation time: 4 hr 12 min 42 sec) 
Heartbeat CPU 2 instructions: 920000000 cycles: 2454201467 heartbeat IPC: 0.289528 cumulative IPC: 0.289666 (Simulation time: 4 hr 13 min 2 sec) 
Heartbeat CPU 3 instructions: 1150000000 cycles: 2455850380 heartbeat IPC: 0.482174 cumulative IPC: 0.408498 (Simulation time: 4 hr 13 min 12 sec) 
Heartbeat CPU 3 instructions: 1160000000 cycles: 2476022805 heartbeat IPC: 0.495726 cumulative IPC: 0.409248 (Simulation time: 4 hr 14 min 59 sec) 
Heartbeat CPU 1 instructions: 800000000 cycles: 2487465354 heartbeat IPC: 0.227412 cumulative IPC: 0.245772 (Simulation time: 4 hr 16 min 8 sec) 
Heartbeat CPU 2 instructions: 930000000 cycles: 2487783350 heartbeat IPC: 0.29778 cumulative IPC: 0.289781 (Simulation time: 4 hr 16 min 10 sec) 
Heartbeat CPU 3 instructions: 1170000001 cycles: 2496151277 heartbeat IPC: 0.496809 cumulative IPC: 0.409993 (Simulation time: 4 hr 16 min 53 sec) 
Heartbeat CPU 0 instructions: 760000000 cycles: 2501704022 heartbeat IPC: 0.196041 cumulative IPC: 0.200851 (Simulation time: 4 hr 17 min 24 sec) 
Heartbeat CPU 3 instructions: 1180000000 cycles: 2516316859 heartbeat IPC: 0.495894 cumulative IPC: 0.410719 (Simulation time: 4 hr 18 min 52 sec) 
Heartbeat CPU 2 instructions: 940000000 cycles: 2519614111 heartbeat IPC: 0.314162 cumulative IPC: 0.290106 (Simulation time: 4 hr 19 min 9 sec) 
Heartbeat CPU 1 instructions: 810000003 cycles: 2533528058 heartbeat IPC: 0.217095 cumulative IPC: 0.245222 (Simulation time: 4 hr 20 min 32 sec) 
Heartbeat CPU 3 instructions: 1190000001 cycles: 2536250380 heartbeat IPC: 0.501668 cumulative IPC: 0.411472 (Simulation time: 4 hr 20 min 47 sec) 
Heartbeat CPU 0 instructions: 770000001 cycles: 2545422127 heartbeat IPC: 0.228738 cumulative IPC: 0.201356 (Simulation time: 4 hr 21 min 40 sec) 
Heartbeat CPU 2 instructions: 950000000 cycles: 2552528244 heartbeat IPC: 0.303821 cumulative IPC: 0.290292 (Simulation time: 4 hr 22 min 23 sec) 
Heartbeat CPU 3 instructions: 1200000000 cycles: 2556162741 heartbeat IPC: 0.502201 cumulative IPC: 0.412217 (Simulation time: 4 hr 22 min 45 sec) 
Finished CPU 3 instructions: 1000000000 cycles: 2425906854 cumulative IPC: 0.412217 (Simulation time: 4 hr 22 min 45 sec) 
Heartbeat CPU 1 instructions: 820000000 cycles: 2563709165 heartbeat IPC: 0.331333 cumulative IPC: 0.24629 (Simulation time: 4 hr 23 min 32 sec) 
Heartbeat CPU 3 instructions: 1210000001 cycles: 2576610030 heartbeat IPC: 0.489062 cumulative IPC: 0.412859 (Simulation time: 4 hr 24 min 54 sec) 
Heartbeat CPU 1 instructions: 830000002 cycles: 2591711140 heartbeat IPC: 0.357118 cumulative IPC: 0.247551 (Simulation time: 4 hr 26 min 28 sec) 
Heartbeat CPU 0 instructions: 780000000 cycles: 2594612631 heartbeat IPC: 0.203291 cumulative IPC: 0.201394 (Simulation time: 4 hr 26 min 47 sec) 
Heartbeat CPU 2 instructions: 960000000 cycles: 2594790300 heartbeat IPC: 0.236619 cumulative IPC: 0.289372 (Simulation time: 4 hr 26 min 48 sec) 
Heartbeat CPU 3 instructions: 1220000000 cycles: 2596907790 heartbeat IPC: 0.492665 cumulative IPC: 0.413516 (Simulation time: 4 hr 27 min 5 sec) 
Heartbeat CPU 3 instructions: 1230000001 cycles: 2617100318 heartbeat IPC: 0.495233 cumulative IPC: 0.41418 (Simulation time: 4 hr 29 min 24 sec) 
Heartbeat CPU 2 instructions: 970000002 cycles: 2624460180 heartbeat IPC: 0.337042 cumulative IPC: 0.289939 (Simulation time: 4 hr 30 min 11 sec) 
Heartbeat CPU 1 instructions: 840000000 cycles: 2632150709 heartbeat IPC: 0.247283 cumulative IPC: 0.247546 (Simulation time: 4 hr 31 min 0 sec) 
Heartbeat CPU 3 instructions: 1240000000 cycles: 2637197296 heartbeat IPC: 0.497587 cumulative IPC: 0.414848 (Simulation time: 4 hr 31 min 34 sec) 
Heartbeat CPU 0 instructions: 790000001 cycles: 2640316543 heartbeat IPC: 0.2188 cumulative IPC: 0.201711 (Simulation time: 4 hr 31 min 53 sec) 
Heartbeat CPU 3 instructions: 1250000003 cycles: 2657429620 heartbeat IPC: 0.494259 cumulative IPC: 0.415484 (Simulation time: 4 hr 33 min 28 sec) 
Heartbeat CPU 2 instructions: 980000000 cycles: 2658159111 heartbeat IPC: 0.296745 cumulative IPC: 0.29003 (Simulation time: 4 hr 33 min 33 sec) 
Heartbeat CPU 1 instructions: 850000001 cycles: 2666672575 heartbeat IPC: 0.289672 cumulative IPC: 0.24812 (Simulation time: 4 hr 34 min 23 sec) 
Heartbeat CPU 3 instructions: 1260000000 cycles: 2677736609 heartbeat IPC: 0.492441 cumulative IPC: 0.416097 (Simulation time: 4 hr 35 min 33 sec) 
Heartbeat CPU 2 instructions: 990000001 cycles: 2690702067 heartbeat IPC: 0.307286 cumulative IPC: 0.290249 (Simulation time: 4 hr 36 min 40 sec) 
Heartbeat CPU 0 instructions: 800000000 cycles: 2691947409 heartbeat IPC: 0.193683 cumulative IPC: 0.20155 (Simulation time: 4 hr 36 min 46 sec) 
Heartbeat CPU 3 instructions: 1270000001 cycles: 2697847521 heartbeat IPC: 0.497243 cumulative IPC: 0.416733 (Simulation time: 4 hr 37 min 22 sec) 
Heartbeat CPU 1 instructions: 860000000 cycles: 2710032987 heartbeat IPC: 0.230625 cumulative IPC: 0.247826 (Simulation time: 4 hr 38 min 28 sec) 
Heartbeat CPU 3 instructions: 1280000000 cycles: 2718573023 heartbeat IPC: 0.482497 cumulative IPC: 0.41726 (Simulation time: 4 hr 39 min 18 sec) 
Heartbeat CPU 2 instructions: 1000000000 cycles: 2722978079 heartbeat IPC: 0.309828 cumulative IPC: 0.290493 (Simulation time: 4 hr 39 min 45 sec) 
Heartbeat CPU 3 instructions: 1290000002 cycles: 2741560483 heartbeat IPC: 0.43502 cumulative IPC: 0.417416 (Simulation time: 4 hr 41 min 49 sec) 
Heartbeat CPU 0 instructions: 810000001 cycles: 2743492179 heartbeat IPC: 0.194006 cumulative IPC: 0.201401 (Simulation time: 4 hr 42 min 0 sec) 
Heartbeat CPU 1 instructions: 870000002 cycles: 2744443210 heartbeat IPC: 0.290611 cumulative IPC: 0.248389 (Simulation time: 4 hr 42 min 5 sec) 
Heartbeat CPU 2 instructions: 1010000001 cycles: 2757030173 heartbeat IPC: 0.293668 cumulative IPC: 0.290534 (Simulation time: 4 hr 43 min 14 sec) 
Heartbeat CPU 3 instructions: 1300000000 cycles: 2764360944 heartbeat IPC: 0.438588 cumulative IPC: 0.417599 (Simulation time: 4 hr 43 min 57 sec) 
Heartbeat CPU 3 instructions: 1310000002 cycles: 2787331196 heartbeat IPC: 0.435346 cumulative IPC: 0.417753 (Simulation time: 4 hr 46 min 6 sec) 
Heartbeat CPU 2 instructions: 1020000000 cycles: 2788627845 heartbeat IPC: 0.316479 cumulative IPC: 0.290842 (Simulation time: 4 hr 46 min 13 sec) 
Heartbeat CPU 1 instructions: 880000000 cycles: 2788910342 heartbeat IPC: 0.224885 cumulative IPC: 0.247996 (Simulation time: 4 hr 46 min 15 sec) 
Heartbeat CPU 0 instructions: 820000000 cycles: 2791374147 heartbeat IPC: 0.208847 cumulative IPC: 0.201535 (Simulation time: 4 hr 46 min 28 sec) 
Heartbeat CPU 3 instructions: 1320000000 cycles: 2810680742 heartbeat IPC: 0.428274 cumulative IPC: 0.417844 (Simulation time: 4 hr 48 min 23 sec) 
Heartbeat CPU 2 instructions: 1030000002 cycles: 2821976277 heartbeat IPC: 0.299864 cumulative IPC: 0.290954 (Simulation time: 4 hr 49 min 20 sec) 
Heartbeat CPU 1 instructions: 890000000 cycles: 2828397390 heartbeat IPC: 0.253248 cumulative IPC: 0.248073 (Simulation time: 4 hr 49 min 57 sec) 
Heartbeat CPU 3 instructions: 1330000001 cycles: 2833092696 heartbeat IPC: 0.446191 cumulative IPC: 0.418079 (Simulation time: 4 hr 50 min 25 sec) 
Heartbeat CPU 0 instructions: 830000001 cycles: 2840567653 heartbeat IPC: 0.203279 cumulative IPC: 0.201566 (Simulation time: 4 hr 51 min 6 sec) 
Heartbeat CPU 2 instructions: 1040000000 cycles: 2854990479 heartbeat IPC: 0.3029 cumulative IPC: 0.291099 (Simulation time: 4 hr 52 min 31 sec) 
Heartbeat CPU 3 instructions: 1340000000 cycles: 2855919943 heartbeat IPC: 0.438073 cumulative IPC: 0.418247 (Simulation time: 4 hr 52 min 36 sec) 
Heartbeat CPU 1 instructions: 900000000 cycles: 2864440821 heartbeat IPC: 0.277443 cumulative IPC: 0.24846 (Simulation time: 4 hr 53 min 25 sec) 
Heartbeat CPU 3 instructions: 1350000001 cycles: 2878826256 heartbeat IPC: 0.436561 cumulative IPC: 0.418399 (Simulation time: 4 hr 54 min 51 sec) 
Heartbeat CPU 2 instructions: 1050000003 cycles: 2887977150 heartbeat IPC: 0.303153 cumulative IPC: 0.291243 (Simulation time: 4 hr 55 min 44 sec) 
Heartbeat CPU 0 instructions: 840000000 cycles: 2889147809 heartbeat IPC: 0.205845 cumulative IPC: 0.201642 (Simulation time: 4 hr 55 min 51 sec) 
Heartbeat CPU 1 instructions: 910000002 cycles: 2893704240 heartbeat IPC: 0.341724 cumulative IPC: 0.249447 (Simulation time: 4 hr 56 min 18 sec) 
Heartbeat CPU 3 instructions: 1360000000 cycles: 2901743003 heartbeat IPC: 0.436362 cumulative IPC: 0.418548 (Simulation time: 4 hr 57 min 10 sec) 
Heartbeat CPU 2 instructions: 1060000000 cycles: 2920611074 heartbeat IPC: 0.30643 cumulative IPC: 0.291421 (Simulation time: 4 hr 58 min 53 sec) 
Heartbeat CPU 3 instructions: 1370000000 cycles: 2924059460 heartbeat IPC: 0.4481 cumulative IPC: 0.418784 (Simulation time: 4 hr 59 min 11 sec) 
Heartbeat CPU 1 instructions: 920000000 cycles: 2927020798 heartbeat IPC: 0.300151 cumulative IPC: 0.250051 (Simulation time: 4 hr 59 min 29 sec) 
Heartbeat CPU 0 instructions: 850000000 cycles: 2940030853 heartbeat IPC: 0.196529 cumulative IPC: 0.201549 (Simulation time: 5 hr 0 min 45 sec) 
Heartbeat CPU 3 instructions: 1380000000 cycles: 2946698472 heartbeat IPC: 0.441715 cumulative IPC: 0.418968 (Simulation time: 5 hr 1 min 25 sec) 
Heartbeat CPU 2 instructions: 1070000001 cycles: 2952195469 heartbeat IPC: 0.316612 cumulative IPC: 0.291703 (Simulation time: 5 hr 1 min 55 sec) 
Heartbeat CPU 1 instructions: 930000003 cycles: 2963738882 heartbeat IPC: 0.272345 cumulative IPC: 0.25034 (Simulation time: 5 hr 2 min 54 sec) 
Heartbeat CPU 3 instructions: 1390000001 cycles: 2968701014 heartbeat IPC: 0.454493 cumulative IPC: 0.419244 (Simulation time: 5 hr 3 min 23 sec) 
Heartbeat CPU 0 instructions: 860000000 cycles: 2991231744 heartbeat IPC: 0.195309 cumulative IPC: 0.201438 (Simulation time: 5 hr 5 min 32 sec) 
Heartbeat CPU 3 instructions: 1400000000 cycles: 2991471773 heartbeat IPC: 0.43916 cumulative IPC: 0.419402 (Simulation time: 5 hr 5 min 33 sec) 
Heartbeat CPU 2 instructions: 1080000000 cycles: 2992842180 heartbeat IPC: 0.246022 cumulative IPC: 0.291054 (Simulation time: 5 hr 5 min 42 sec) 
Heartbeat CPU 1 instructions: 940000000 cycles: 2997615911 heartbeat IPC: 0.295185 cumulative IPC: 0.25087 (Simulation time: 5 hr 6 min 11 sec) 
Heartbeat CPU 3 instructions: 1410000001 cycles: 3014283310 heartbeat IPC: 0.438375 cumulative IPC: 0.419552 (Simulation time: 5 hr 7 min 50 sec) 
Heartbeat CPU 2 instructions: 1090000000 cycles: 3023498477 heartbeat IPC: 0.326197 cumulative IPC: 0.291426 (Simulation time: 5 hr 8 min 42 sec) 
Heartbeat CPU 3 instructions: 1420000000 cycles: 3037402711 heartbeat IPC: 0.432537 cumulative IPC: 0.419655 (Simulation time: 5 hr 10 min 1 sec) 
Heartbeat CPU 1 instructions: 950000001 cycles: 3038382210 heartbeat IPC: 0.245301 cumulative IPC: 0.250792 (Simulation time: 5 hr 10 min 7 sec) 
Heartbeat CPU 0 instructions: 870000000 cycles: 3044543640 heartbeat IPC: 0.187575 cumulative IPC: 0.201184 (Simulation time: 5 hr 10 min 41 sec) 
Heartbeat CPU 2 instructions: 1100000000 cycles: 3057943370 heartbeat IPC: 0.290319 cumulative IPC: 0.291413 (Simulation time: 5 hr 11 min 59 sec) 
Heartbeat CPU 3 instructions: 1430000003 cycles: 3060256103 heartbeat IPC: 0.437572 cumulative IPC: 0.419795 (Simulation time: 5 hr 12 min 13 sec) 
Heartbeat CPU 1 instructions: 960000000 cycles: 3068911514 heartbeat IPC: 0.327554 cumulative IPC: 0.25159 (Simulation time: 5 hr 13 min 7 sec) 
Heartbeat CPU 3 instructions: 1440000000 cycles: 3083083559 heartbeat IPC: 0.438069 cumulative IPC: 0.419936 (Simulation time: 5 hr 14 min 31 sec) 
Heartbeat CPU 0 instructions: 880000000 cycles: 3089282543 heartbeat IPC: 0.223519 cumulative IPC: 0.201522 (Simulation time: 5 hr 15 min 1 sec) 
Heartbeat CPU 2 instructions: 1110000000 cycles: 3090933853 heartbeat IPC: 0.303118 cumulative IPC: 0.291544 (Simulation time: 5 hr 15 min 9 sec) 
Heartbeat CPU 3 instructions: 1450000000 cycles: 3105067696 heartbeat IPC: 0.454873 cumulative IPC: 0.420195 (Simulation time: 5 hr 16 min 34 sec) 
Heartbeat CPU 1 instructions: 970000001 cycles: 3105668536 heartbeat IPC: 0.272057 cumulative IPC: 0.251842 (Simulation time: 5 hr 16 min 37 sec) 
Heartbeat CPU 2 instructions: 1120000000 cycles: 3122005036 heartbeat IPC: 0.321842 cumulative IPC: 0.291858 (Simulation time: 5 hr 18 min 10 sec) 
Heartbeat CPU 3 instructions: 1460000000 cycles: 3127409170 heartbeat IPC: 0.447598 cumulative IPC: 0.420399 (Simulation time: 5 hr 18 min 43 sec) 
Heartbeat CPU 0 instructions: 890000001 cycles: 3134505838 heartbeat IPC: 0.221125 cumulative IPC: 0.201817 (Simulation time: 5 hr 19 min 22 sec) 
Heartbeat CPU 1 instructions: 980000000 cycles: 3136192978 heartbeat IPC: 0.327606 cumulative IPC: 0.252612 (Simulation time: 5 hr 19 min 32 sec) 
Heartbeat CPU 3 instructions: 1470000003 cycles: 3150299434 heartbeat IPC: 0.436867 cumulative IPC: 0.420524 (Simulation time: 5 hr 20 min 49 sec) 
Heartbeat CPU 2 instructions: 1130000000 cycles: 3155372898 heartbeat IPC: 0.29969 cumulative IPC: 0.291945 (Simulation time: 5 hr 21 min 18 sec) 
Heartbeat CPU 1 instructions: 990000003 cycles: 3165174590 heartbeat IPC: 0.345046 cumulative IPC: 0.253494 (Simulation time: 5 hr 22 min 16 sec) 
Heartbeat CPU 3 instructions: 1480000000 cycles: 3172956193 heartbeat IPC: 0.441369 cumulative IPC: 0.420679 (Simulation time: 5 hr 23 min 3 sec) 
Heartbeat CPU 0 instructions: 900000000 cycles: 3184632099 heartbeat IPC: 0.199496 cumulative IPC: 0.201779 (Simulation time: 5 hr 24 min 0 sec) 
Heartbeat CPU 2 instructions: 1140000000 cycles: 3187983697 heartbeat IPC: 0.306647 cumulative IPC: 0.292102 (Simulation time: 5 hr 24 min 16 sec) 
Heartbeat CPU 3 instructions: 1490000003 cycles: 3195057412 heartbeat IPC: 0.452464 cumulative IPC: 0.420908 (Simulation time: 5 hr 24 min 55 sec) 
Heartbeat CPU 1 instructions: 1000000000 cycles: 3204578423 heartbeat IPC: 0.253782 cumulative IPC: 0.253498 (Simulation time: 5 hr 25 min 49 sec) 
Heartbeat CPU 3 instructions: 1500000000 cycles: 3216215060 heartbeat IPC: 0.472642 cumulative IPC: 0.421263 (Simulation time: 5 hr 26 min 53 sec) 
Heartbeat CPU 2 instructions: 1150000002 cycles: 3219711974 heartbeat IPC: 0.315176 cumulative IPC: 0.292339 (Simulation time: 5 hr 27 min 11 sec) 
Heartbeat CPU 3 instructions: 1510000002 cycles: 3234731258 heartbeat IPC: 0.540068 cumulative IPC: 0.421971 (Simulation time: 5 hr 28 min 25 sec) 
Heartbeat CPU 0 instructions: 910000002 cycles: 3234996699 heartbeat IPC: 0.198552 cumulative IPC: 0.201726 (Simulation time: 5 hr 28 min 26 sec) 
Heartbeat CPU 1 instructions: 1010000003 cycles: 3239644324 heartbeat IPC: 0.285177 cumulative IPC: 0.253855 (Simulation time: 5 hr 28 min 48 sec) 
Heartbeat CPU 2 instructions: 1160000000 cycles: 3253469496 heartbeat IPC: 0.29623 cumulative IPC: 0.292381 (Simulation time: 5 hr 30 min 4 sec) 
Heartbeat CPU 3 instructions: 1520000000 cycles: 3255080027 heartbeat IPC: 0.49143 cumulative IPC: 0.422424 (Simulation time: 5 hr 30 min 12 sec) 
Heartbeat CPU 3 instructions: 1530000000 cycles: 3271583535 heartbeat IPC: 0.605932 cumulative IPC: 0.423388 (Simulation time: 5 hr 31 min 37 sec) 
Heartbeat CPU 1 instructions: 1020000000 cycles: 3276394015 heartbeat IPC: 0.272111 cumulative IPC: 0.254069 (Simulation time: 5 hr 32 min 2 sec) 
Heartbeat CPU 0 instructions: 920000000 cycles: 3282346369 heartbeat IPC: 0.211195 cumulative IPC: 0.201869 (Simulation time: 5 hr 32 min 34 sec) 
Heartbeat CPU 2 instructions: 1170000002 cycles: 3286260470 heartbeat IPC: 0.304962 cumulative IPC: 0.292511 (Simulation time: 5 hr 32 min 51 sec) 
Heartbeat CPU 3 instructions: 1540000000 cycles: 3289043258 heartbeat IPC: 0.572747 cumulative IPC: 0.424213 (Simulation time: 5 hr 33 min 4 sec) 
Heartbeat CPU 3 instructions: 1550000001 cycles: 3306293745 heartbeat IPC: 0.579694 cumulative IPC: 0.425058 (Simulation time: 5 hr 34 min 36 sec) 
Heartbeat CPU 2 instructions: 1180000000 cycles: 3317993725 heartbeat IPC: 0.315127 cumulative IPC: 0.292737 (Simulation time: 5 hr 35 min 30 sec) 
Heartbeat CPU 1 instructions: 1030000000 cycles: 3328797579 heartbeat IPC: 0.190827 cumulative IPC: 0.253033 (Simulation time: 5 hr 36 min 8 sec) 
Heartbeat CPU 0 instructions: 930000000 cycles: 3329913521 heartbeat IPC: 0.210229 cumulative IPC: 0.201993 (Simulation time: 5 hr 36 min 12 sec) 
Heartbeat CPU 3 instructions: 1560000000 cycles: 3336940256 heartbeat IPC: 0.326301 cumulative IPC: 0.424114 (Simulation time: 5 hr 36 min 43 sec) 
Heartbeat CPU 2 instructions: 1190000002 cycles: 3353791317 heartbeat IPC: 0.279348 cumulative IPC: 0.292588 (Simulation time: 5 hr 37 min 56 sec) 
Heartbeat CPU 3 instructions: 1570000001 cycles: 3368094347 heartbeat IPC: 0.320985 cumulative IPC: 0.423122 (Simulation time: 5 hr 39 min 0 sec) 
Heartbeat CPU 1 instructions: 1040000000 cycles: 3370223381 heartbeat IPC: 0.241395 cumulative IPC: 0.252884 (Simulation time: 5 hr 39 min 13 sec) 
Heartbeat CPU 0 instructions: 940000000 cycles: 3381721773 heartbeat IPC: 0.193019 cumulative IPC: 0.20185 (Simulation time: 5 hr 40 min 6 sec) 
Heartbeat CPU 2 instructions: 1200000000 cycles: 3399053575 heartbeat IPC: 0.220935 cumulative IPC: 0.291596 (Simulation time: 5 hr 41 min 28 sec) 
Heartbeat CPU 3 instructions: 1580000000 cycles: 3399759489 heartbeat IPC: 0.315805 cumulative IPC: 0.422082 (Simulation time: 5 hr 41 min 31 sec) 
Heartbeat CPU 1 instructions: 1050000003 cycles: 3407889332 heartbeat IPC: 0.265492 cumulative IPC: 0.253029 (Simulation time: 5 hr 42 min 11 sec) 
Heartbeat CPU 2 instructions: 1210000000 cycles: 3430244744 heartbeat IPC: 0.320604 cumulative IPC: 0.29187 (Simulation time: 5 hr 43 min 58 sec) 
Heartbeat CPU 3 instructions: 1590000002 cycles: 3431271424 heartbeat IPC: 0.31734 cumulative IPC: 0.421083 (Simulation time: 5 hr 44 min 2 sec) 
Heartbeat CPU 0 instructions: 950000001 cycles: 3433749124 heartbeat IPC: 0.192207 cumulative IPC: 0.201698 (Simulation time: 5 hr 44 min 12 sec) 
Heartbeat CPU 1 instructions: 1060000000 cycles: 3444731197 heartbeat IPC: 0.27143 cumulative IPC: 0.253233 (Simulation time: 5 hr 45 min 3 sec) 
Heartbeat CPU 3 instructions: 1600000000 cycles: 3462585047 heartbeat IPC: 0.31935 cumulative IPC: 0.420127 (Simulation time: 5 hr 46 min 30 sec) 
Heartbeat CPU 2 instructions: 1220000000 cycles: 3464560213 heartbeat IPC: 0.291414 cumulative IPC: 0.291865 (Simulation time: 5 hr 46 min 40 sec) 
Heartbeat CPU 1 instructions: 1070000000 cycles: 3473737352 heartbeat IPC: 0.344754 cumulative IPC: 0.254027 (Simulation time: 5 hr 47 min 25 sec) 
Heartbeat CPU 0 instructions: 960000000 cycles: 3489431013 heartbeat IPC: 0.179592 cumulative IPC: 0.201332 (Simulation time: 5 hr 48 min 31 sec) 
Heartbeat CPU 3 instructions: 1610000001 cycles: 3493742215 heartbeat IPC: 0.320953 cumulative IPC: 0.419208 (Simulation time: 5 hr 48 min 49 sec) 
Heartbeat CPU 2 instructions: 1230000002 cycles: 3499061067 heartbeat IPC: 0.289848 cumulative IPC: 0.291844 (Simulation time: 5 hr 49 min 15 sec) 
Heartbeat CPU 1 instructions: 1080000000 cycles: 3514767028 heartbeat IPC: 0.243726 cumulative IPC: 0.253902 (Simulation time: 5 hr 50 min 25 sec) 
Heartbeat CPU 3 instructions: 1620000000 cycles: 3525345314 heartbeat IPC: 0.316425 cumulative IPC: 0.418251 (Simulation time: 5 hr 51 min 8 sec) 
Heartbeat CPU 2 instructions: 1240000000 cycles: 3532737509 heartbeat IPC: 0.296943 cumulative IPC: 0.291895 (Simulation time: 5 hr 51 min 36 sec) 
Heartbeat CPU 0 instructions: 970000000 cycles: 3539219665 heartbeat IPC: 0.200849 cumulative IPC: 0.201324 (Simulation time: 5 hr 52 min 6 sec) 
Heartbeat CPU 3 instructions: 1630000001 cycles: 3555907920 heartbeat IPC: 0.327197 cumulative IPC: 0.417439 (Simulation time: 5 hr 53 min 22 sec) 
Finished CPU 2 instructions: 1000000000 cycles: 3425739201 cumulative IPC: 0.291908 (Simulation time: 5 hr 53 min 23 sec) 
Heartbeat CPU 1 instructions: 1090000001 cycles: 3565246675 heartbeat IPC: 0.1981 cumulative IPC: 0.253082 (Simulation time: 5 hr 54 min 4 sec) 
Heartbeat CPU 2 instructions: 1250000000 cycles: 3567938548 heartbeat IPC: 0.284083 cumulative IPC: 0.291815 (Simulation time: 5 hr 54 min 16 sec) 
Heartbeat CPU 3 instructions: 1640000000 cycles: 3586362321 heartbeat IPC: 0.32836 cumulative IPC: 0.416654 (Simulation time: 5 hr 55 min 36 sec) 
Heartbeat CPU 0 instructions: 980000000 cycles: 3588991004 heartbeat IPC: 0.200919 cumulative IPC: 0.201319 (Simulation time: 5 hr 55 min 49 sec) 
Heartbeat CPU 2 instructions: 1260000000 cycles: 3603357766 heartbeat IPC: 0.282333 cumulative IPC: 0.291718 (Simulation time: 5 hr 56 min 52 sec) 
Heartbeat CPU 1 instructions: 1100000000 cycles: 3616228357 heartbeat IPC: 0.196149 cumulative IPC: 0.25225 (Simulation time: 5 hr 57 min 42 sec) 
Heartbeat CPU 3 instructions: 1650000003 cycles: 3617060355 heartbeat IPC: 0.325754 cumulative IPC: 0.415854 (Simulation time: 5 hr 57 min 45 sec) 
Heartbeat CPU 2 instructions: 1270000001 cycles: 3636246112 heartbeat IPC: 0.304059 cumulative IPC: 0.291834 (Simulation time: 5 hr 58 min 57 sec) 
Heartbeat CPU 0 instructions: 990000000 cycles: 3640666854 heartbeat IPC: 0.193514 cumulative IPC: 0.201204 (Simulation time: 5 hr 59 min 16 sec) 
Heartbeat CPU 3 instructions: 1660000000 cycles: 3646259490 heartbeat IPC: 0.342476 cumulative IPC: 0.415244 (Simulation time: 5 hr 59 min 41 sec) 
Heartbeat CPU 1 instructions: 1110000001 cycles: 3665564935 heartbeat IPC: 0.202689 cumulative IPC: 0.251558 (Simulation time: 6 hr 1 min 13 sec) 
Heartbeat CPU 2 instructions: 1280000000 cycles: 3669504950 heartbeat IPC: 0.300672 cumulative IPC: 0.291917 (Simulation time: 6 hr 1 min 33 sec) 
Heartbeat CPU 3 instructions: 1670000003 cycles: 3677401608 heartbeat IPC: 0.321109 cumulative IPC: 0.414418 (Simulation time: 6 hr 2 min 9 sec) 
Heartbeat CPU 0 instructions: 1000000000 cycles: 3690859557 heartbeat IPC: 0.199232 cumulative IPC: 0.201176 (Simulation time: 6 hr 3 min 5 sec) 
Heartbeat CPU 2 instructions: 1290000001 cycles: 3704234363 heartbeat IPC: 0.28794 cumulative IPC: 0.291878 (Simulation time: 6 hr 4 min 3 sec) 
Heartbeat CPU 3 instructions: 1680000000 cycles: 3709142435 heartbeat IPC: 0.315052 cumulative IPC: 0.413536 (Simulation time: 6 hr 4 min 21 sec) 
Heartbeat CPU 1 instructions: 1120000000 cycles: 3721412645 heartbeat IPC: 0.179058 cumulative IPC: 0.25043 (Simulation time: 6 hr 5 min 11 sec) 
Heartbeat CPU 2 instructions: 1300000000 cycles: 3737880989 heartbeat IPC: 0.297207 cumulative IPC: 0.291928 (Simulation time: 6 hr 6 min 23 sec) 
Heartbeat CPU 3 instructions: 1690000002 cycles: 3740034096 heartbeat IPC: 0.323712 cumulative IPC: 0.412768 (Simulation time: 6 hr 6 min 34 sec) 
Heartbeat CPU 0 instructions: 1010000002 cycles: 3743401771 heartbeat IPC: 0.190323 cumulative IPC: 0.201018 (Simulation time: 6 hr 6 min 49 sec) 
Heartbeat CPU 1 instructions: 1130000001 cycles: 3756582430 heartbeat IPC: 0.284335 cumulative IPC: 0.250759 (Simulation time: 6 hr 7 min 51 sec) 
Heartbeat CPU 3 instructions: 1700000000 cycles: 3771009589 heartbeat IPC: 0.322836 cumulative IPC: 0.412003 (Simulation time: 6 hr 9 min 3 sec) 
Heartbeat CPU 2 instructions: 1310000000 cycles: 3771468415 heartbeat IPC: 0.29773 cumulative IPC: 0.291982 (Simulation time: 6 hr 9 min 7 sec) 
Heartbeat CPU 1 instructions: 1140000000 cycles: 3787905846 heartbeat IPC: 0.31925 cumulative IPC: 0.251346 (Simulation time: 6 hr 10 min 15 sec) 
Heartbeat CPU 0 instructions: 1020000000 cycles: 3796838626 heartbeat IPC: 0.187137 cumulative IPC: 0.200816 (Simulation time: 6 hr 10 min 54 sec) 
Heartbeat CPU 3 instructions: 1710000000 cycles: 3802381974 heartbeat IPC: 0.318752 cumulative IPC: 0.411206 (Simulation time: 6 hr 11 min 16 sec) 
Heartbeat CPU 2 instructions: 1320000000 cycles: 3815821789 heartbeat IPC: 0.225462 cumulative IPC: 0.291181 (Simulation time: 6 hr 12 min 23 sec) 
Heartbeat CPU 1 instructions: 1150000002 cycles: 3830062749 heartbeat IPC: 0.237209 cumulative IPC: 0.251185 (Simulation time: 6 hr 13 min 28 sec) 
Heartbeat CPU 3 instructions: 1720000000 cycles: 3832357753 heartbeat IPC: 0.333603 cumulative IPC: 0.410578 (Simulation time: 6 hr 13 min 40 sec) 
Heartbeat CPU 0 instructions: 1030000001 cycles: 3844542610 heartbeat IPC: 0.209626 cumulative IPC: 0.200929 (Simulation time: 6 hr 14 min 40 sec) 
Heartbeat CPU 2 instructions: 1330000001 cycles: 3848123064 heartbeat IPC: 0.309585 cumulative IPC: 0.291341 (Simulation time: 6 hr 14 min 57 sec) 
Heartbeat CPU 3 instructions: 1730000001 cycles: 3863959964 heartbeat IPC: 0.316434 cumulative IPC: 0.409781 (Simulation time: 6 hr 15 min 59 sec) 
Heartbeat CPU 1 instructions: 1160000000 cycles: 3869842823 heartbeat IPC: 0.251382 cumulative IPC: 0.251187 (Simulation time: 6 hr 16 min 25 sec) 
Heartbeat CPU 2 instructions: 1340000000 cycles: 3882464079 heartbeat IPC: 0.291197 cumulative IPC: 0.29134 (Simulation time: 6 hr 17 min 28 sec) 
Heartbeat CPU 1 instructions: 1170000003 cycles: 3893830352 heartbeat IPC: 0.416883 cumulative IPC: 0.252243 (Simulation time: 6 hr 18 min 24 sec) 
Heartbeat CPU 3 instructions: 1740000000 cycles: 3894203256 heartbeat IPC: 0.330652 cumulative IPC: 0.409145 (Simulation time: 6 hr 18 min 26 sec) 
Heartbeat CPU 0 instructions: 1040000000 cycles: 3896469416 heartbeat IPC: 0.192579 cumulative IPC: 0.200814 (Simulation time: 6 hr 18 min 37 sec) 
Heartbeat CPU 2 instructions: 1350000000 cycles: 3916737349 heartbeat IPC: 0.291773 cumulative IPC: 0.291344 (Simulation time: 6 hr 20 min 13 sec) 
Heartbeat CPU 3 instructions: 1750000000 cycles: 3925843881 heartbeat IPC: 0.316049 cumulative IPC: 0.408369 (Simulation time: 6 hr 20 min 46 sec) 
Heartbeat CPU 1 instructions: 1180000000 cycles: 3939013957 heartbeat IPC: 0.221319 cumulative IPC: 0.251876 (Simulation time: 6 hr 21 min 38 sec) 
Heartbeat CPU 0 instructions: 1050000003 cycles: 3948834817 heartbeat IPC: 0.190966 cumulative IPC: 0.200679 (Simulation time: 6 hr 22 min 21 sec) 
Heartbeat CPU 2 instructions: 1360000000 cycles: 3950339117 heartbeat IPC: 0.297603 cumulative IPC: 0.291399 (Simulation time: 6 hr 22 min 28 sec) 
Heartbeat CPU 3 instructions: 1760000000 cycles: 3956809645 heartbeat IPC: 0.322937 cumulative IPC: 0.407678 (Simulation time: 6 hr 22 min 56 sec) 
Heartbeat CPU 1 instructions: 1190000000 cycles: 3970350249 heartbeat IPC: 0.319119 cumulative IPC: 0.252425 (Simulation time: 6 hr 24 min 2 sec) 
Heartbeat CPU 2 instructions: 1370000000 cycles: 3985774314 heartbeat IPC: 0.282205 cumulative IPC: 0.291314 (Simulation time: 6 hr 25 min 9 sec) 
Heartbeat CPU 3 instructions: 1770000001 cycles: 3987828311 heartbeat IPC: 0.322387 cumulative IPC: 0.406992 (Simulation time: 6 hr 25 min 16 sec) 
Heartbeat CPU 0 instructions: 1060000000 cycles: 4002115487 heartbeat IPC: 0.187685 cumulative IPC: 0.2005 (Simulation time: 6 hr 26 min 22 sec) 
[...]
Heartbeat CPU 2 instructions: 1600000000 cycles: 4779089245 heartbeat IPC: 0.335996 cumulative IPC: 0.291077 (Simulation time: 7 hr 24 min 53 sec) 
Heartbeat CPU 1 instructions: 1380000000 cycles: 4789991363 heartbeat IPC: 0.261764 cumulative IPC: 0.248798 (Simulation time: 7 hr 25 min 49 sec) 
Heartbeat CPU 3 instructions: 2060000000 cycles: 4798295863 heartbeat IPC: 0.463223 cumulative IPC: 0.398454 (Simulation time: 7 hr 26 min 30 sec) 
Heartbeat CPU 0 instructions: 1220000000 cycles: 4799809117 heartbeat IPC: 0.213059 cumulative IPC: 0.200513 (Simulation time: 7 hr 26 min 38 sec) 
Heartbeat CPU 2 instructions: 1610000000 cycles: 4809857740 heartbeat IPC: 0.325008 cumulative IPC: 0.2913 (Simulation time: 7 hr 27 min 31 sec) 
Heartbeat CPU 3 instructions: 2070000001 cycles: 4815973965 heartbeat IPC: 0.565672 cumulative IPC: 0.399085 (Simulation time: 7 hr 28 min 1 sec) 
Heartbeat CPU 3 instructions: 2080000000 cycles: 4832549428 heartbeat IPC: 0.603301 cumulative IPC: 0.399805 (Simulation time: 7 hr 29 min 31 sec) 
Heartbeat CPU 1 instructions: 1390000002 cycles: 4832811162 heartbeat IPC: 0.233537 cumulative IPC: 0.24866 (Simulation time: 7 hr 29 min 32 sec) 
Heartbeat CPU 0 instructions: 1230000003 cycles: 4847705358 heartbeat IPC: 0.208785 cumulative IPC: 0.200597 (Simulation time: 7 hr 30 min 48 sec) 
Heartbeat CPU 3 instructions: 2090000002 cycles: 4848560982 heartbeat IPC: 0.624549 cumulative IPC: 0.400568 (Simulation time: 7 hr 30 min 53 sec) 
Heartbeat CPU 2 instructions: 1620000000 cycles: 4851335907 heartbeat IPC: 0.241091 cumulative IPC: 0.290859 (Simulation time: 7 hr 31 min 10 sec) 
Heartbeat CPU 1 instructions: 1400000000 cycles: 4876795977 heartbeat IPC: 0.227351 cumulative IPC: 0.248462 (Simulation time: 7 hr 33 min 16 sec) 
Heartbeat CPU 3 instructions: 2100000000 cycles: 4876854674 heartbeat IPC: 0.353436 cumulative IPC: 0.400287 (Simulation time: 7 hr 33 min 17 sec) 
Heartbeat CPU 2 instructions: 1630000000 cycles: 4881347446 heartbeat IPC: 0.333205 cumulative IPC: 0.291126 (Simulation time: 7 hr 33 min 38 sec) 
Heartbeat CPU 0 instructions: 1240000000 cycles: 4894537249 heartbeat IPC: 0.21353 cumulative IPC: 0.200724 (Simulation time: 7 hr 34 min 39 sec) 
Heartbeat CPU 3 instructions: 2110000000 cycles: 4908404561 heartbeat IPC: 0.316958 cumulative IPC: 0.399736 (Simulation time: 7 hr 35 min 34 sec) 
Heartbeat CPU 2 instructions: 1640000000 cycles: 4911163253 heartbeat IPC: 0.335393 cumulative IPC: 0.291402 (Simulation time: 7 hr 35 min 45 sec) 
Heartbeat CPU 1 instructions: 1410000002 cycles: 4924400195 heartbeat IPC: 0.210065 cumulative IPC: 0.248081 (Simulation time: 7 hr 36 min 46 sec) 
Heartbeat CPU 3 instructions: 2120000000 cycles: 4935780777 heartbeat IPC: 0.365281 cumulative IPC: 0.39954 (Simulation time: 7 hr 37 min 40 sec) 
Heartbeat CPU 0 instructions: 1250000003 cycles: 4937569179 heartbeat IPC: 0.232386 cumulative IPC: 0.201008 (Simulation time: 7 hr 37 min 49 sec) 
Heartbeat CPU 2 instructions: 1650000001 cycles: 4943346890 heartbeat IPC: 0.310717 cumulative IPC: 0.291531 (Simulation time: 7 hr 38 min 21 sec) 
Heartbeat CPU 3 instructions: 2130000003 cycles: 4955070385 heartbeat IPC: 0.518414 cumulative IPC: 0.400015 (Simulation time: 7 hr 39 min 26 sec) 
Heartbeat CPU 1 instructions: 1420000000 cycles: 4960159878 heartbeat IPC: 0.279644 cumulative IPC: 0.248314 (Simulation time: 7 hr 39 min 53 sec) 
Heartbeat CPU 2 instructions: 1660000000 cycles: 4972418127 heartbeat IPC: 0.343983 cumulative IPC: 0.291846 (Simulation time: 7 hr 41 min 4 sec) 
Heartbeat CPU 3 instructions: 2140000000 cycles: 4974140285 heartbeat IPC: 0.524386 cumulative IPC: 0.400505 (Simulation time: 7 hr 41 min 12 sec) 
Heartbeat CPU 0 instructions: 1260000000 cycles: 4983365745 heartbeat IPC: 0.218357 cumulative IPC: 0.201172 (Simulation time: 7 hr 42 min 4 sec) 
Heartbeat CPU 1 instructions: 1430000001 cycles: 4988343196 heartbeat IPC: 0.35482 cumulative IPC: 0.248932 (Simulation time: 7 hr 42 min 34 sec) 
Heartbeat CPU 3 instructions: 2150000000 cycles: 4990961556 heartbeat IPC: 0.594485 cumulative IPC: 0.401176 (Simulation time: 7 hr 42 min 49 sec) 
Heartbeat CPU 2 instructions: 1670000000 cycles: 5004235348 heartbeat IPC: 0.314295 cumulative IPC: 0.291993 (Simulation time: 7 hr 44 min 7 sec) 
Heartbeat CPU 3 instructions: 2160000000 cycles: 5007528233 heartbeat IPC: 0.603621 cumulative IPC: 0.401864 (Simulation time: 7 hr 44 min 27 sec) 
Heartbeat CPU 1 instructions: 1440000000 cycles: 5012624776 heartbeat IPC: 0.411835 cumulative IPC: 0.249743 (Simulation time: 7 hr 45 min 0 sec) 
Heartbeat CPU 3 instructions: 2170000000 cycles: 5023837337 heartbeat IPC: 0.613154 cumulative IPC: 0.402568 (Simulation time: 7 hr 46 min 7 sec) 
Heartbeat CPU 0 instructions: 1270000002 cycles: 5029935835 heartbeat IPC: 0.21473 cumulative IPC: 0.2013 (Simulation time: 7 hr 46 min 39 sec) 
Heartbeat CPU 2 instructions: 1680000000 cycles: 5035446689 heartbeat IPC: 0.320396 cumulative IPC: 0.292174 (Simulation time: 7 hr 47 min 4 sec) 
Heartbeat CPU 1 instructions: 1450000002 cycles: 5043361098 heartbeat IPC: 0.325348 cumulative IPC: 0.250216 (Simulation time: 7 hr 47 min 41 sec) 
Heartbeat CPU 3 instructions: 2180000000 cycles: 5052645581 heartbeat IPC: 0.347123 cumulative IPC: 0.402244 (Simulation time: 7 hr 48 min 24 sec) 
Heartbeat CPU 2 instructions: 1690000000 cycles: 5066209451 heartbeat IPC: 0.325068 cumulative IPC: 0.292379 (Simulation time: 7 hr 49 min 26 sec) 
Heartbeat CPU 1 instructions: 1460000000 cycles: 5077830893 heartbeat IPC: 0.290109 cumulative IPC: 0.250493 (Simulation time: 7 hr 50 min 23 sec) 
Heartbeat CPU 0 instructions: 1280000000 cycles: 5080745735 heartbeat IPC: 0.196812 cumulative IPC: 0.201254 (Simulation time: 7 hr 50 min 35 sec) 
Heartbeat CPU 3 instructions: 2190000000 cycles: 5083836081 heartbeat IPC: 0.32061 cumulative IPC: 0.40173 (Simulation time: 7 hr 50 min 47 sec) 
Finished CPU 0 instructions: 1000000002 cycles: 4969619586 cumulative IPC: 0.201223 (Simulation time: 7 hr 51 min 50 sec) 

CPU 0 Branch Prediction Accuracy: 99.1477% MPKI: 2.03266

CPU 1 Branch Prediction Accuracy: 97.2943% MPKI: 2.36922

CPU 2 Branch Prediction Accuracy: 94.1374% MPKI: 10.8606

CPU 3 Branch Prediction Accuracy: 99.63% MPKI: 0.0587669

ChampSim completed all CPUs

Total Simulation Statistics (not including warmup)

CPU 0 cumulative IPC: 0.201223 instructions: 1000000002 cycles: 4969619586
L1D TOTAL     ACCESS:  204335151  HIT:  176272512  MISS:   28062639
L1D LOAD      ACCESS:  170544677  HIT:  142672838  MISS:   27871839
L1D RFO       ACCESS:   33790474  HIT:   33599674  MISS:     190800
L1D PREFETCH  ACCESS:          0  HIT:          0  MISS:          0
L1D WRITEBACK ACCESS:          0  HIT:          0  MISS:          0
L1I TOTAL     ACCESS:  330184173  HIT:  328856848  MISS:    1327325
L1I LOAD      ACCESS:  330184173  HIT:  328856848  MISS:    1327325
L1I RFO       ACCESS:          0  HIT:          0  MISS:          0
L1I PREFETCH  ACCESS:          0  HIT:          0  MISS:          0
L1I WRITEBACK ACCESS:          0  HIT:          0  MISS:          0
L2C TOTAL     ACCESS:   29846514  HIT:    1859906  MISS:   27986608
L2C LOAD      ACCESS:   29199133  HIT:    1325362  MISS:   27873771
L2C RFO       ACCESS:     190790  HIT:      83618  MISS:     107172
L2C PREFETCH  ACCESS:          0  HIT:          0  MISS:          0
L2C WRITEBACK ACCESS:     456591  HIT:     450926  MISS:       5665
LLC TOTAL     ACCESS:   28187826  HIT:    1387217  MISS:   26800609
LLC LOAD      ACCESS:   27873770  HIT:    1171566  MISS:   26702204
LLC RFO       ACCESS:     107172  HIT:      11614  MISS:      95558
LLC PREFETCH  ACCESS:          0  HIT:          0  MISS:          0
LLC WRITEBACK ACCESS:     206884  HIT:     204037  MISS:       2847

CPU 1 cumulative IPC: 0.249765 instructions: 1241236886 cycles: 4969619586
L1D TOTAL     ACCESS:  463107976  HIT:  424707028  MISS:   38400948
L1D LOAD      ACCESS:  165099526  HIT:  126706713  MISS:   38392813
L1D RFO       ACCESS:  298008450  HIT:  298000315  MISS:       8135
L1D PREFETCH  ACCESS:          0  HIT:          0  MISS:          0
L1D WRITEBACK ACCESS:          0  HIT:          0  MISS:          0
L1I TOTAL     ACCESS:  313989741  HIT:  313989741  MISS:          0
L1I LOAD      ACCESS:  313989741  HIT:  313989741  MISS:          0
L1I RFO       ACCESS:          0  HIT:          0  MISS:          0
L1I PREFETCH  ACCESS:          0  HIT:          0  MISS:          0
L1I WRITEBACK ACCESS:          0  HIT:          0  MISS:          0
L2C TOTAL     ACCESS:   54763564  HIT:   17343012  MISS:   37420552
L2C LOAD      ACCESS:   38388906  HIT:    1010864  MISS:   37378042
L2C RFO       ACCESS:       8135  HIT:       6926  MISS:       1209
L2C PREFETCH  ACCESS:          0  HIT:          0  MISS:          0
L2C WRITEBACK ACCESS:   16366523  HIT:   16325222  MISS:      41301
LLC TOTAL     ACCESS:   52982941  HIT:   17940132  MISS:   35042809
LLC LOAD      ACCESS:   37378001  HIT:    2342762  MISS:   35035239
LLC RFO       ACCESS:       1209  HIT:        839  MISS:        370
LLC PREFETCH  ACCESS:          0  HIT:          0  MISS:          0
LLC WRITEBACK ACCESS:   15603731  HIT:   15596531  MISS:       7200

CPU 2 cumulative IPC: 0.292384 instructions: 1453036606 cycles: 4969619586
L1D TOTAL     ACCESS:  298929153  HIT:  243543907  MISS:   55385246
L1D LOAD      ACCESS:  215214221  HIT:  169061768  MISS:   46152453
L1D RFO       ACCESS:   83714932  HIT:   74482139  MISS:    9232793
L1D PREFETCH  ACCESS:          0  HIT:          0  MISS:          0
L1D WRITEBACK ACCESS:          0  HIT:          0  MISS:          0
L1I TOTAL     ACCESS:  335248100  HIT:  335238281  MISS:       9819
L1I LOAD      ACCESS:  335248100  HIT:  335238281  MISS:       9819
L1I RFO       ACCESS:          0  HIT:          0  MISS:          0
L1I PREFETCH  ACCESS:          0  HIT:          0  MISS:          0
L1I WRITEBACK ACCESS:          0  HIT:          0  MISS:          0
L2C TOTAL     ACCESS:   78340012  HIT:   31988693  MISS:   46351319
L2C LOAD      ACCESS:   46158138  HIT:    8036369  MISS:   38121769
L2C RFO       ACCESS:    9232363  HIT:    1017125  MISS:    8215238
L2C PREFETCH  ACCESS:          0  HIT:          0  MISS:          0
L2C WRITEBACK ACCESS:   22949511  HIT:   22935199  MISS:      14312
LLC TOTAL     ACCESS:   64172034  HIT:   33131657  MISS:   31040377
LLC LOAD      ACCESS:   38121594  HIT:   12818154  MISS:   25303440
LLC RFO       ACCESS:    8215152  HIT:    2486405  MISS:    5728747
LLC PREFETCH  ACCESS:          0  HIT:          0  MISS:          0
LLC WRITEBACK ACCESS:   17835288  HIT:   17827098  MISS:       8190

CPU 3 cumulative IPC: 0.401508 instructions: 1995341926 cycles: 4969619586
L1D TOTAL     ACCESS:  884980882  HIT:  846692705  MISS:   38288177
L1D LOAD      ACCESS:  757908632  HIT:  719826335  MISS:   38082297
L1D RFO       ACCESS:  127072250  HIT:  126866370  MISS:     205880
L1D PREFETCH  ACCESS:          0  HIT:          0  MISS:          0
L1D WRITEBACK ACCESS:          0  HIT:          0  MISS:          0
L1I TOTAL     ACCESS:  500688848  HIT:  500687837  MISS:       1011
L1I LOAD      ACCESS:  500688848  HIT:  500687837  MISS:       1011
L1I RFO       ACCESS:          0  HIT:          0  MISS:          0
L1I PREFETCH  ACCESS:          0  HIT:          0  MISS:          0
L1I WRITEBACK ACCESS:          0  HIT:          0  MISS:          0
L2C TOTAL     ACCESS:   50913078  HIT:   22119043  MISS:   28794035
L2C LOAD      ACCESS:   38082483  HIT:    9490560  MISS:   28591923
L2C RFO       ACCESS:     205777  HIT:       5906  MISS:     199871
L2C PREFETCH  ACCESS:          0  HIT:          0  MISS:          0
L2C WRITEBACK ACCESS:   12624818  HIT:   12622577  MISS:       2241
LLC TOTAL     ACCESS:   39904505  HIT:   13939174  MISS:   25965331
LLC LOAD      ACCESS:   28591878  HIT:    2720256  MISS:   25871622
LLC RFO       ACCESS:     199871  HIT:     128959  MISS:      70912
LLC PREFETCH  ACCESS:          0  HIT:          0  MISS:          0
LLC WRITEBACK ACCESS:   11112756  HIT:   11089959  MISS:      22797

Region of Interest Statistics

CPU 0 cumulative IPC: 0.201223 instructions: 1000000002 cycles: 4969619586
L1D TOTAL     ACCESS:  204335151  HIT:  176272512  MISS:   28062639
L1D LOAD      ACCESS:  170544677  HIT:  142672838  MISS:   27871839
L1D RFO       ACCESS:   33790474  HIT:   33599674  MISS:     190800
L1D PREFETCH  ACCESS:          0  HIT:          0  MISS:          0
L1D WRITEBACK ACCESS:          0  HIT:          0  MISS:          0
L1D PREFETCH  REQUESTED:          0  ISSUED:          0  USEFUL:          0  USELESS:          0
L1I TOTAL     ACCESS:  330184173  HIT:  328856848  MISS:    1327325
L1I LOAD      ACCESS:  330184173  HIT:  328856848  MISS:    1327325
L1I RFO       ACCESS:          0  HIT:          0  MISS:          0
L1I PREFETCH  ACCESS:          0  HIT:          0  MISS:          0
L1I WRITEBACK ACCESS:          0  HIT:          0  MISS:          0
L1I PREFETCH  REQUESTED:          0  ISSUED:          0  USEFUL:          0  USELESS:          0
L2C TOTAL     ACCESS:   29846514  HIT:    1859906  MISS:   27986608
L2C LOAD      ACCESS:   29199133  HIT:    1325362  MISS:   27873771
L2C RFO       ACCESS:     190790  HIT:      83618  MISS:     107172
L2C PREFETCH  ACCESS:          0  HIT:          0  MISS:          0
L2C WRITEBACK ACCESS:     456591  HIT:     450926  MISS:       5665
L2C PREFETCH  REQUESTED:          0  ISSUED:          0  USEFUL:          0  USELESS:          0
LLC TOTAL     ACCESS:   28187826  HIT:    1387217  MISS:   26800609
LLC LOAD      ACCESS:   27873770  HIT:    1171566  MISS:   26702204
LLC RFO       ACCESS:     107172  HIT:      11614  MISS:      95558
LLC PREFETCH  ACCESS:          0  HIT:          0  MISS:          0
LLC WRITEBACK ACCESS:     206884  HIT:     204037  MISS:       2847
LLC PREFETCH  REQUESTED:          0  ISSUED:          0  USEFUL:          0  USELESS:          0
Major fault: 0 Minor fault: 28135

CPU 1 cumulative IPC: 0.252121 instructions: 1000000000 cycles: 3966354040
L1D TOTAL     ACCESS:  372930651  HIT:  342425195  MISS:   30505456
L1D LOAD      ACCESS:  132289713  HIT:  101790571  MISS:   30499142
L1D RFO       ACCESS:  240640938  HIT:  240634624  MISS:       6314
L1D PREFETCH  ACCESS:          0  HIT:          0  MISS:          0
L1D WRITEBACK ACCESS:          0  HIT:          0  MISS:          0
L1D PREFETCH  REQUESTED:          0  ISSUED:          0  USEFUL:          0  USELESS:          0
L1I TOTAL     ACCESS:  253147761  HIT:  253147761  MISS:          0
L1I LOAD      ACCESS:  253147761  HIT:  253147761  MISS:          0
L1I RFO       ACCESS:          0  HIT:          0  MISS:          0
L1I PREFETCH  ACCESS:          0  HIT:          0  MISS:          0
L1I WRITEBACK ACCESS:          0  HIT:          0  MISS:          0
L1I PREFETCH  REQUESTED:          0  ISSUED:          0  USEFUL:          0  USELESS:          0
L2C TOTAL     ACCESS:   43771255  HIT:   14048952  MISS:   29722303
L2C LOAD      ACCESS:   30495952  HIT:     807865  MISS:   29688087
L2C RFO       ACCESS:       6314  HIT:       5371  MISS:        943
L2C PREFETCH  ACCESS:          0  HIT:          0  MISS:          0
L2C WRITEBACK ACCESS:   13268989  HIT:   13235716  MISS:      33273
L2C PREFETCH  REQUESTED:          0  ISSUED:          0  USEFUL:          0  USELESS:          0
LLC TOTAL     ACCESS:   42348257  HIT:   14459135  MISS:   27889122
LLC LOAD      ACCESS:   29688055  HIT:    1805011  MISS:   27883044
LLC RFO       ACCESS:        943  HIT:        655  MISS:        288
LLC PREFETCH  ACCESS:          0  HIT:          0  MISS:          0
LLC WRITEBACK ACCESS:   12659259  HIT:   12653469  MISS:       5790
LLC PREFETCH  REQUESTED:          0  ISSUED:          0  USEFUL:          0  USELESS:          0
Major fault: 0 Minor fault: 399739

CPU 2 cumulative IPC: 0.291908 instructions: 1000000000 cycles: 3425739201
L1D TOTAL     ACCESS:  208325548  HIT:  169668636  MISS:   38656912
L1D LOAD      ACCESS:  149361957  HIT:  116979458  MISS:   32382499
L1D RFO       ACCESS:   58963591  HIT:   52689178  MISS:    6274413
L1D PREFETCH  ACCESS:          0  HIT:          0  MISS:          0
L1D WRITEBACK ACCESS:          0  HIT:          0  MISS:          0
L1D PREFETCH  REQUESTED:          0  ISSUED:          0  USEFUL:          0  USELESS:          0
L1I TOTAL     ACCESS:  229318758  HIT:  229312186  MISS:       6572
L1I LOAD      ACCESS:  229318758  HIT:  229312186  MISS:       6572
L1I RFO       ACCESS:          0  HIT:          0  MISS:          0
L1I PREFETCH  ACCESS:          0  HIT:          0  MISS:          0
L1I WRITEBACK ACCESS:          0  HIT:          0  MISS:          0
L1I PREFETCH  REQUESTED:          0  ISSUED:          0  USEFUL:          0  USELESS:          0
L2C TOTAL     ACCESS:   54681565  HIT:   22253754  MISS:   32427811
L2C LOAD      ACCESS:   32386147  HIT:    5555058  MISS:   26831089
L2C RFO       ACCESS:    6274122  HIT:     686969  MISS:    5587153
L2C PREFETCH  ACCESS:          0  HIT:          0  MISS:          0
L2C WRITEBACK ACCESS:   16021296  HIT:   16011727  MISS:       9569
L2C PREFETCH  REQUESTED:          0  ISSUED:          0  USEFUL:          0  USELESS:          0
LLC TOTAL     ACCESS:   44883991  HIT:   23305771  MISS:   21578220
LLC LOAD      ACCESS:   26830980  HIT:    9126119  MISS:   17704861
LLC RFO       ACCESS:    5587087  HIT:    1719193  MISS:    3867894
LLC PREFETCH  ACCESS:          0  HIT:          0  MISS:          0
LLC WRITEBACK ACCESS:   12465924  HIT:   12460459  MISS:       5465
LLC PREFETCH  REQUESTED:          0  ISSUED:          0  USEFUL:          0  USELESS:          0
Major fault: 0 Minor fault: 14120

CPU 3 cumulative IPC: 0.412217 instructions: 1000000000 cycles: 2425906854
L1D TOTAL     ACCESS:  450747727  HIT:  432402290  MISS:   18345437
L1D LOAD      ACCESS:  386037868  HIT:  367692791  MISS:   18345077
L1D RFO       ACCESS:   64709859  HIT:   64709499  MISS:        360
L1D PREFETCH  ACCESS:          0  HIT:          0  MISS:          0
L1D WRITEBACK ACCESS:          0  HIT:          0  MISS:          0
L1D PREFETCH  REQUESTED:          0  ISSUED:          0  USEFUL:          0  USELESS:          0
L1I TOTAL     ACCESS:  242090573  HIT:  242090332  MISS:        241
L1I LOAD      ACCESS:  242090573  HIT:  242090332  MISS:        241
L1I RFO       ACCESS:          0  HIT:          0  MISS:          0
L1I PREFETCH  ACCESS:          0  HIT:          0  MISS:          0
L1I WRITEBACK ACCESS:          0  HIT:          0  MISS:          0
L1I PREFETCH  REQUESTED:          0  ISSUED:          0  USEFUL:          0  USELESS:          0
L2C TOTAL     ACCESS:   24493701  HIT:   10208404  MISS:   14285297
L2C LOAD      ACCESS:   18344906  HIT:    4060672  MISS:   14284234
L2C RFO       ACCESS:        317  HIT:        260  MISS:         57
L2C PREFETCH  ACCESS:          0  HIT:          0  MISS:          0
L2C WRITEBACK ACCESS:    6148478  HIT:    6147472  MISS:       1006
L2C PREFETCH  REQUESTED:          0  ISSUED:          0  USEFUL:          0  USELESS:          0
LLC TOTAL     ACCESS:   19896354  HIT:    7089947  MISS:   12806407
LLC LOAD      ACCESS:   14284213  HIT:    1483893  MISS:   12800320
LLC RFO       ACCESS:         57  HIT:          1  MISS:         56
LLC PREFETCH  ACCESS:          0  HIT:          0  MISS:          0
LLC WRITEBACK ACCESS:    5612084  HIT:    5606053  MISS:       6031
LLC PREFETCH  REQUESTED:          0  ISSUED:          0  USEFUL:          0  USELESS:          0
Major fault: 0 Minor fault: 184935

DRAM Statistics
 CHANNEL 0
 RQ ROW_BUFFER_HIT:   15895528  ROW_BUFFER_MISS:   45142364
 DBUS_CONGESTED:   73863088
 WQ ROW_BUFFER_HIT:    1708630  ROW_BUFFER_MISS:   17195588  FULL:          0

 CHANNEL 1
 RQ ROW_BUFFER_HIT:   15268756  ROW_BUFFER_MISS:   42491639
 DBUS_CONGESTED:   73863088
 WQ ROW_BUFFER_HIT:    1770763  ROW_BUFFER_MISS:   17007709  FULL:          0

 AVG_CONGESTED_CYCLE: 13
