
*** ChampSim Multicore Out-of-Order Simulator ***

Warmup Instructions: 200000000
Simulation Instructions: 1000000000
Number of CPUs: 4
LLC sets: 8192
LLC ways: 16
Off-chip DRAM Size: 8192 MB Channels: 2 Width: 64-bit Data Rate: 1600 MT/s

CPU 0 runs /scratch/user/djimenez/champsim-traces/speccpu2006/xz//459.GemsFDTD-1491B.champsimtrace.xz
CPU 1 runs /scratch/user/djimenez/champsim-traces/speccpu2006/xz//481.wrf-1170B.champsimtrace.xz
CPU 2 runs /scratch/user/djimenez/champsim-traces/speccpu2006/xz//437.leslie3d-273B.champsimtrace.xz
CPU 3 runs /scratch/user/djimenez/champsim-traces/speccpu2006/xz//433.milc-337B.champsimtrace.xz
Heartbeat CPU 3 instructions: 10000000 cycles: 4046229 heartbeat IPC: 2.47144 cumulative IPC: 2.47144 (Simulation time: 0 hr 1 min 36 sec) 
Heartbeat CPU 0 instructions: 10000003 cycles: 4423280 heartbeat IPC: 2.26077 cumulative IPC: 2.26077 (Simulation time: 0 hr 1 min 45 sec) 
Heartbeat CPU 2 instructions: 10000002 cycles: 4936079 heartbeat IPC: 2.0259 cumulative IPC: 2.0259 (Simulation time: 0 hr 1 min 57 sec) 
Heartbeat CPU 1 instructions: 10000001 cycles: 6135610 heartbeat IPC: 1.62983 cumulative IPC: 1.62983 (Simulation time: 0 hr 2 min 26 sec) 
Heartbeat CPU 3 instructions: 20000000 cycles: 8093668 heartbeat IPC: 2.4707 cumulative IPC: 2.47107 (Simulation time: 0 hr 3 min 12 sec) 
Heartbeat CPU 0 instructions: 20000000 cycles: 8845164 heartbeat IPC: 2.26148 cumulative IPC: 2.26112 (Simulation time: 0 hr 3 min 30 sec) 
Heartbeat CPU 2 instructions: 20000000 cycles: 9816437 heartbeat IPC: 2.04903 cumulative IPC: 2.0374 (Simulation time: 0 hr 3 min 52 sec) 
Heartbeat CPU 3 instructions: 30000002 cycles: 12139715 heartbeat IPC: 2.47155 cumulative IPC: 2.47123 (Simulation time: 0 hr 4 min 48 sec) 
Heartbeat CPU 1 instructions: 20000000 cycles: 12265402 heartbeat IPC: 1.63138 cumulative IPC: 1.6306 (Simulation time: 0 hr 4 min 51 sec) 
Heartbeat CPU 0 instructions: 30000002 cycles: 13268342 heartbeat IPC: 2.26082 cumulative IPC: 2.26102 (Simulation time: 0 hr 5 min 15 sec) 
Heartbeat CPU 2 instructions: 30000002 cycles: 14861250 heartbeat IPC: 1.98223 cumulative IPC: 2.01867 (Simulation time: 0 hr 5 min 52 sec) 
Heartbeat CPU 3 instructions: 40000000 cycles: 16186666 heartbeat IPC: 2.471 cumulative IPC: 2.47117 (Simulation time: 0 hr 6 min 24 sec) 
Heartbeat CPU 0 instructions: 40000000 cycles: 17691387 heartbeat IPC: 2.26089 cumulative IPC: 2.26099 (Simulation time: 0 hr 7 min 0 sec) 
Heartbeat CPU 1 instructions: 30000002 cycles: 18394609 heartbeat IPC: 1.63153 cumulative IPC: 1.63091 (Simulation time: 0 hr 7 min 16 sec) 
Heartbeat CPU 2 instructions: 40000000 cycles: 19906506 heartbeat IPC: 1.98206 cumulative IPC: 2.00939 (Simulation time: 0 hr 7 min 52 sec) 
Heartbeat CPU 3 instructions: 50000001 cycles: 20232721 heartbeat IPC: 2.47154 cumulative IPC: 2.47124 (Simulation time: 0 hr 8 min 0 sec) 
Heartbeat CPU 0 instructions: 50000003 cycles: 22113744 heartbeat IPC: 2.26124 cumulative IPC: 2.26104 (Simulation time: 0 hr 8 min 46 sec) 
Heartbeat CPU 1 instructions: 40000000 cycles: 24526046 heartbeat IPC: 1.63094 cumulative IPC: 1.63092 (Simulation time: 0 hr 9 min 45 sec) 
Heartbeat CPU 3 instructions: 60000000 cycles: 24567403 heartbeat IPC: 2.30697 cumulative IPC: 2.44226 (Simulation time: 0 hr 9 min 46 sec) 
Heartbeat CPU 2 instructions: 50000001 cycles: 24950514 heartbeat IPC: 1.98255 cumulative IPC: 2.00397 (Simulation time: 0 hr 10 min 1 sec) 
Heartbeat CPU 0 instructions: 60000000 cycles: 26537717 heartbeat IPC: 2.26041 cumulative IPC: 2.26093 (Simulation time: 0 hr 10 min 42 sec) 
Heartbeat CPU 3 instructions: 70000003 cycles: 28604910 heartbeat IPC: 2.47678 cumulative IPC: 2.44713 (Simulation time: 0 hr 11 min 32 sec) 
Heartbeat CPU 2 instructions: 60000000 cycles: 29995984 heartbeat IPC: 1.98198 cumulative IPC: 2.00027 (Simulation time: 0 hr 12 min 5 sec) 
Heartbeat CPU 1 instructions: 50000001 cycles: 30656867 heartbeat IPC: 1.6311 cumulative IPC: 1.63096 (Simulation time: 0 hr 12 min 20 sec) 
Heartbeat CPU 0 instructions: 70000003 cycles: 30960312 heartbeat IPC: 2.26112 cumulative IPC: 2.26096 (Simulation time: 0 hr 12 min 27 sec) 
Heartbeat CPU 3 instructions: 80000000 cycles: 32641839 heartbeat IPC: 2.47713 cumulative IPC: 2.45084 (Simulation time: 0 hr 13 min 7 sec) 
Heartbeat CPU 2 instructions: 70000000 cycles: 35040748 heartbeat IPC: 1.98225 cumulative IPC: 1.99767 (Simulation time: 0 hr 14 min 8 sec) 
Heartbeat CPU 0 instructions: 80000000 cycles: 35382848 heartbeat IPC: 2.26115 cumulative IPC: 2.26098 (Simulation time: 0 hr 14 min 17 sec) 
Heartbeat CPU 3 instructions: 90000000 cycles: 36678909 heartbeat IPC: 2.47704 cumulative IPC: 2.45373 (Simulation time: 0 hr 14 min 51 sec) 
Heartbeat CPU 1 instructions: 60000000 cycles: 36786312 heartbeat IPC: 1.63147 cumulative IPC: 1.63104 (Simulation time: 0 hr 14 min 54 sec) 
Heartbeat CPU 0 instructions: 90000000 cycles: 39806470 heartbeat IPC: 2.26059 cumulative IPC: 2.26094 (Simulation time: 0 hr 16 min 20 sec) 
Heartbeat CPU 2 instructions: 80000000 cycles: 40086209 heartbeat IPC: 1.98198 cumulative IPC: 1.9957 (Simulation time: 0 hr 16 min 28 sec) 
Heartbeat CPU 3 instructions: 100000000 cycles: 40715743 heartbeat IPC: 2.47719 cumulative IPC: 2.45605 (Simulation time: 0 hr 16 min 44 sec) 
Heartbeat CPU 1 instructions: 70000000 cycles: 42916145 heartbeat IPC: 1.63137 cumulative IPC: 1.63109 (Simulation time: 0 hr 17 min 39 sec) 
Heartbeat CPU 0 instructions: 100000000 cycles: 44228413 heartbeat IPC: 2.26145 cumulative IPC: 2.26099 (Simulation time: 0 hr 18 min 12 sec) 
Heartbeat CPU 3 instructions: 110000001 cycles: 44750478 heartbeat IPC: 2.47848 cumulative IPC: 2.45807 (Simulation time: 0 hr 18 min 25 sec) 
Heartbeat CPU 2 instructions: 90000002 cycles: 45541391 heartbeat IPC: 1.83312 cumulative IPC: 1.97622 (Simulation time: 0 hr 18 min 44 sec) 
Heartbeat CPU 0 instructions: 110000003 cycles: 48650918 heartbeat IPC: 2.26116 cumulative IPC: 2.26101 (Simulation time: 0 hr 20 min 6 sec) 
Heartbeat CPU 3 instructions: 120000000 cycles: 48784676 heartbeat IPC: 2.47881 cumulative IPC: 2.45979 (Simulation time: 0 hr 20 min 9 sec) 
Heartbeat CPU 1 instructions: 80000000 cycles: 49045522 heartbeat IPC: 1.63149 cumulative IPC: 1.63114 (Simulation time: 0 hr 20 min 17 sec) 
Heartbeat CPU 2 instructions: 100000000 cycles: 50805127 heartbeat IPC: 1.89979 cumulative IPC: 1.96831 (Simulation time: 0 hr 21 min 4 sec) 
Heartbeat CPU 3 instructions: 130000002 cycles: 53011646 heartbeat IPC: 2.36576 cumulative IPC: 2.45229 (Simulation time: 0 hr 21 min 57 sec) 
Heartbeat CPU 0 instructions: 120000000 cycles: 53074273 heartbeat IPC: 2.26073 cumulative IPC: 2.26098 (Simulation time: 0 hr 21 min 59 sec) 
Heartbeat CPU 1 instructions: 90000001 cycles: 55175522 heartbeat IPC: 1.63132 cumulative IPC: 1.63116 (Simulation time: 0 hr 22 min 48 sec) 
Heartbeat CPU 2 instructions: 110000002 cycles: 56477356 heartbeat IPC: 1.76298 cumulative IPC: 1.94768 (Simulation time: 0 hr 23 min 17 sec) 
Heartbeat CPU 3 instructions: 140000000 cycles: 57087724 heartbeat IPC: 2.45334 cumulative IPC: 2.45237 (Simulation time: 0 hr 23 min 31 sec) 
Heartbeat CPU 0 instructions: 130000000 cycles: 57496317 heartbeat IPC: 2.2614 cumulative IPC: 2.26101 (Simulation time: 0 hr 23 min 41 sec) 
Heartbeat CPU 3 instructions: 150000003 cycles: 61165941 heartbeat IPC: 2.45205 cumulative IPC: 2.45235 (Simulation time: 0 hr 25 min 7 sec) 
Heartbeat CPU 1 instructions: 100000000 cycles: 61306319 heartbeat IPC: 1.63111 cumulative IPC: 1.63115 (Simulation time: 0 hr 25 min 11 sec) 
Heartbeat CPU 0 instructions: 140000000 cycles: 61919549 heartbeat IPC: 2.26079 cumulative IPC: 2.261 (Simulation time: 0 hr 25 min 25 sec) 
Heartbeat CPU 2 instructions: 120000000 cycles: 62683847 heartbeat IPC: 1.61122 cumulative IPC: 1.91437 (Simulation time: 0 hr 25 min 42 sec) 
Heartbeat CPU 3 instructions: 160000000 cycles: 65244219 heartbeat IPC: 2.45201 cumulative IPC: 2.45232 (Simulation time: 0 hr 26 min 41 sec) 
Heartbeat CPU 0 instructions: 150000000 cycles: 66343345 heartbeat IPC: 2.2605 cumulative IPC: 2.26097 (Simulation time: 0 hr 27 min 7 sec) 
Heartbeat CPU 1 instructions: 110000001 cycles: 67436543 heartbeat IPC: 1.63126 cumulative IPC: 1.63116 (Simulation time: 0 hr 27 min 32 sec) 
Heartbeat CPU 2 instructions: 130000003 cycles: 68890463 heartbeat IPC: 1.61118 cumulative IPC: 1.88705 (Simulation time: 0 hr 28 min 5 sec) 
Heartbeat CPU 3 instructions: 170000003 cycles: 69322095 heartbeat IPC: 2.45226 cumulative IPC: 2.45232 (Simulation time: 0 hr 28 min 15 sec) 
Heartbeat CPU 0 instructions: 160000000 cycles: 70765599 heartbeat IPC: 2.26129 cumulative IPC: 2.26099 (Simulation time: 0 hr 28 min 49 sec) 
Heartbeat CPU 3 instructions: 180000000 cycles: 73399087 heartbeat IPC: 2.45279 cumulative IPC: 2.45235 (Simulation time: 0 hr 29 min 49 sec) 
Heartbeat CPU 1 instructions: 120000000 cycles: 73567022 heartbeat IPC: 1.63119 cumulative IPC: 1.63117 (Simulation time: 0 hr 29 min 53 sec) 
Heartbeat CPU 2 instructions: 140000000 cycles: 75097042 heartbeat IPC: 1.61119 cumulative IPC: 1.86425 (Simulation time: 0 hr 30 min 28 sec) 
Heartbeat CPU 0 instructions: 170000001 cycles: 75189056 heartbeat IPC: 2.26068 cumulative IPC: 2.26097 (Simulation time: 0 hr 30 min 31 sec) 
Heartbeat CPU 3 instructions: 190000000 cycles: 77478597 heartbeat IPC: 2.45127 cumulative IPC: 2.45229 (Simulation time: 0 hr 31 min 23 sec) 
Heartbeat CPU 0 instructions: 180000000 cycles: 79612188 heartbeat IPC: 2.26084 cumulative IPC: 2.26096 (Simulation time: 0 hr 32 min 13 sec) 
Heartbeat CPU 1 instructions: 130000000 cycles: 79696968 heartbeat IPC: 1.63134 cumulative IPC: 1.63118 (Simulation time: 0 hr 32 min 15 sec) 
Heartbeat CPU 2 instructions: 150000001 cycles: 80726988 heartbeat IPC: 1.77622 cumulative IPC: 1.85811 (Simulation time: 0 hr 32 min 40 sec) 
Heartbeat CPU 3 instructions: 200000000 cycles: 81742388 heartbeat IPC: 2.34533 cumulative IPC: 2.44671 (Simulation time: 0 hr 33 min 6 sec) 
Heartbeat CPU 0 instructions: 190000000 cycles: 84034283 heartbeat IPC: 2.26137 cumulative IPC: 2.26098 (Simulation time: 0 hr 34 min 2 sec) 
Heartbeat CPU 2 instructions: 160000000 cycles: 85749332 heartbeat IPC: 1.9911 cumulative IPC: 1.8659 (Simulation time: 0 hr 34 min 45 sec) 
Heartbeat CPU 1 instructions: 140000000 cycles: 85825509 heartbeat IPC: 1.63171 cumulative IPC: 1.63122 (Simulation time: 0 hr 34 min 47 sec) 
Heartbeat CPU 3 instructions: 210000000 cycles: 86557143 heartbeat IPC: 2.07695 cumulative IPC: 0.115531 (Simulation time: 0 hr 35 min 5 sec) 
Heartbeat CPU 0 instructions: 200000000 cycles: 88457196 heartbeat IPC: 2.26095 cumulative IPC: 2.26098 (Simulation time: 0 hr 35 min 53 sec) 
Heartbeat CPU 2 instructions: 170000001 cycles: 90772737 heartbeat IPC: 1.99068 cumulative IPC: 1.87281 (Simulation time: 0 hr 36 min 50 sec) 
Heartbeat CPU 3 instructions: 220000000 cycles: 91371466 heartbeat IPC: 2.07714 cumulative IPC: 0.218887 (Simulation time: 0 hr 37 min 5 sec) 
Heartbeat CPU 1 instructions: 150000003 cycles: 91953754 heartbeat IPC: 1.63179 cumulative IPC: 1.63125 (Simulation time: 0 hr 37 min 20 sec) 
Heartbeat CPU 0 instructions: 210000001 cycles: 92879801 heartbeat IPC: 2.26111 cumulative IPC: 0.107666 (Simulation time: 0 hr 37 min 43 sec) 
Heartbeat CPU 2 instructions: 180000000 cycles: 95794832 heartbeat IPC: 1.9912 cumulative IPC: 1.87902 (Simulation time: 0 hr 38 min 55 sec) 
Heartbeat CPU 3 instructions: 230000000 cycles: 96185896 heartbeat IPC: 2.07709 cumulative IPC: 0.311896 (Simulation time: 0 hr 39 min 5 sec) 
Heartbeat CPU 0 instructions: 220000000 cycles: 97301916 heartbeat IPC: 2.26136 cumulative IPC: 0.205546 (Simulation time: 0 hr 39 min 33 sec) 
Heartbeat CPU 1 instructions: 160000000 cycles: 98081761 heartbeat IPC: 1.63185 cumulative IPC: 1.63129 (Simulation time: 0 hr 39 min 52 sec) 
Heartbeat CPU 2 instructions: 190000002 cycles: 100818198 heartbeat IPC: 1.9907 cumulative IPC: 1.88458 (Simulation time: 0 hr 40 min 59 sec) 
Heartbeat CPU 0 instructions: 230000001 cycles: 101724221 heartbeat IPC: 2.26126 cumulative IPC: 0.294915 (Simulation time: 0 hr 41 min 22 sec) 
Heartbeat CPU 3 instructions: 240000000 cycles: 101760302 heartbeat IPC: 1.79391 cumulative IPC: 0.393081 (Simulation time: 0 hr 41 min 23 sec) 
Heartbeat CPU 1 instructions: 170000002 cycles: 104209716 heartbeat IPC: 1.63187 cumulative IPC: 1.63133 (Simulation time: 0 hr 42 min 23 sec) 
Heartbeat CPU 2 instructions: 200000000 cycles: 105841219 heartbeat IPC: 1.99083 cumulative IPC: 1.88962 (Simulation time: 0 hr 43 min 3 sec) 
Heartbeat CPU 0 instructions: 240000000 cycles: 106145072 heartbeat IPC: 2.26201 cumulative IPC: 0.376843 (Simulation time: 0 hr 43 min 11 sec) 
Heartbeat CPU 3 instructions: 250000001 cycles: 107324084 heartbeat IPC: 1.79734 cumulative IPC: 0.465879 (Simulation time: 0 hr 43 min 41 sec) 
Heartbeat CPU 1 instructions: 180000000 cycles: 110338188 heartbeat IPC: 1.63173 cumulative IPC: 1.63135 (Simulation time: 0 hr 44 min 59 sec) 
Heartbeat CPU 0 instructions: 250000002 cycles: 110567662 heartbeat IPC: 2.26112 cumulative IPC: 0.452212 (Simulation time: 0 hr 45 min 5 sec) 
Heartbeat CPU 3 instructions: 260000000 cycles: 110674716 heartbeat IPC: 2.98451 cumulative IPC: 0.542129 (Simulation time: 0 hr 45 min 8 sec) 
Heartbeat CPU 2 instructions: 210000002 cycles: 110864702 heartbeat IPC: 1.99065 cumulative IPC: 0.0902001 (Simulation time: 0 hr 45 min 13 sec) 
Heartbeat CPU 3 instructions: 270000002 cycles: 114025320 heartbeat IPC: 2.98454 cumulative IPC: 0.613899 (Simulation time: 0 hr 46 min 35 sec) 
Heartbeat CPU 0 instructions: 260000000 cycles: 114990885 heartbeat IPC: 2.26079 cumulative IPC: 0.52178 (Simulation time: 0 hr 47 min 0 sec) 
Heartbeat CPU 2 instructions: 220000000 cycles: 115887179 heartbeat IPC: 1.99105 cumulative IPC: 0.172582 (Simulation time: 0 hr 47 min 23 sec) 
Heartbeat CPU 1 instructions: 190000000 cycles: 116466449 heartbeat IPC: 1.63178 cumulative IPC: 1.63137 (Simulation time: 0 hr 47 min 38 sec) 
Heartbeat CPU 3 instructions: 280000000 cycles: 117375945 heartbeat IPC: 2.98452 cumulative IPC: 0.681571 (Simulation time: 0 hr 48 min 2 sec) 
Heartbeat CPU 0 instructions: 270000003 cycles: 119412803 heartbeat IPC: 2.26146 cumulative IPC: 0.586202 (Simulation time: 0 hr 48 min 55 sec) 
Heartbeat CPU 3 instructions: 290000002 cycles: 120726787 heartbeat IPC: 2.98433 cumulative IPC: 0.745485 (Simulation time: 0 hr 49 min 28 sec) 
Heartbeat CPU 2 instructions: 230000002 cycles: 120910383 heartbeat IPC: 1.99076 cumulative IPC: 0.248118 (Simulation time: 0 hr 49 min 33 sec) 
Heartbeat CPU 1 instructions: 200000000 cycles: 122595726 heartbeat IPC: 1.63151 cumulative IPC: 1.63138 (Simulation time: 0 hr 50 min 17 sec) 

Warmup complete CPU 0 instructions: 277197341 cycles: 122595727 (Simulation time: 0 hr 50 min 17 sec) 
Warmup complete CPU 1 instructions: 200000001 cycles: 122595727 (Simulation time: 0 hr 50 min 17 sec) 
Warmup complete CPU 2 instructions: 233474355 cycles: 122595726 (Simulation time: 0 hr 50 min 17 sec) 
Warmup complete CPU 3 instructions: 295577647 cycles: 122595726 (Simulation time: 0 hr 50 min 17 sec) 

Heartbeat CPU 0 instructions: 280000000 cycles: 130073373 heartbeat IPC: 0.938036 cumulative IPC: 0.374805 (Simulation time: 0 hr 51 min 22 sec) 
Heartbeat CPU 3 instructions: 300000000 cycles: 130362816 heartbeat IPC: 1.03777 cumulative IPC: 0.569371 (Simulation time: 0 hr 51 min 25 sec) 
Heartbeat CPU 2 instructions: 240000000 cycles: 134579298 heartbeat IPC: 0.731587 cumulative IPC: 0.544549 (Simulation time: 0 hr 52 min 0 sec) 
Heartbeat CPU 1 instructions: 210000002 cycles: 138176343 heartbeat IPC: 0.641823 cumulative IPC: 0.641823 (Simulation time: 0 hr 52 min 32 sec) 
Heartbeat CPU 3 instructions: 310000003 cycles: 148026287 heartbeat IPC: 0.56614 cumulative IPC: 0.567127 (Simulation time: 0 hr 53 min 57 sec) 
Heartbeat CPU 2 instructions: 250000003 cycles: 152573926 heartbeat IPC: 0.555722 cumulative IPC: 0.551256 (Simulation time: 0 hr 54 min 35 sec) 
Heartbeat CPU 1 instructions: 220000000 cycles: 153763874 heartbeat IPC: 0.641538 cumulative IPC: 0.641681 (Simulation time: 0 hr 54 min 46 sec) 
Heartbeat CPU 0 instructions: 290000002 cycles: 156414883 heartbeat IPC: 0.379629 cumulative IPC: 0.378562 (Simulation time: 0 hr 55 min 9 sec) 
Heartbeat CPU 3 instructions: 320000000 cycles: 165666070 heartbeat IPC: 0.5669 cumulative IPC: 0.567034 (Simulation time: 0 hr 56 min 29 sec) 
Heartbeat CPU 1 instructions: 230000000 cycles: 169364722 heartbeat IPC: 0.640991 cumulative IPC: 0.641451 (Simulation time: 0 hr 57 min 1 sec) 
Heartbeat CPU 2 instructions: 260000000 cycles: 170558120 heartbeat IPC: 0.556044 cumulative IPC: 0.553051 (Simulation time: 0 hr 57 min 12 sec) 
Heartbeat CPU 0 instructions: 300000000 cycles: 182460642 heartbeat IPC: 0.38394 cumulative IPC: 0.380902 (Simulation time: 0 hr 58 min 54 sec) 
Heartbeat CPU 1 instructions: 240000000 cycles: 184967562 heartbeat IPC: 0.640909 cumulative IPC: 0.641315 (Simulation time: 0 hr 59 min 17 sec) 
Heartbeat CPU 3 instructions: 330000001 cycles: 187134020 heartbeat IPC: 0.465811 cumulative IPC: 0.533363 (Simulation time: 0 hr 59 min 41 sec) 
Heartbeat CPU 2 instructions: 270000002 cycles: 188581561 heartbeat IPC: 0.554833 cumulative IPC: 0.553538 (Simulation time: 0 hr 59 min 54 sec) 
Heartbeat CPU 1 instructions: 250000000 cycles: 200545372 heartbeat IPC: 0.641939 cumulative IPC: 0.64144 (Simulation time: 1 hr 1 min 45 sec) 
Heartbeat CPU 0 instructions: 310000002 cycles: 203481873 heartbeat IPC: 0.47571 cumulative IPC: 0.405541 (Simulation time: 1 hr 2 min 13 sec) 
Heartbeat CPU 2 instructions: 280000000 cycles: 205886546 heartbeat IPC: 0.577868 cumulative IPC: 0.558593 (Simulation time: 1 hr 2 min 35 sec) 
Heartbeat CPU 3 instructions: 340000000 cycles: 207083542 heartbeat IPC: 0.501265 cumulative IPC: 0.525784 (Simulation time: 1 hr 2 min 46 sec) 
Heartbeat CPU 1 instructions: 260000000 cycles: 216122095 heartbeat IPC: 0.641984 cumulative IPC: 0.64153 (Simulation time: 1 hr 4 min 16 sec) 
Heartbeat CPU 2 instructions: 290000003 cycles: 223325705 heartbeat IPC: 0.573422 cumulative IPC: 0.56116 (Simulation time: 1 hr 5 min 27 sec) 
Heartbeat CPU 0 instructions: 320000000 cycles: 224607223 heartbeat IPC: 0.473365 cumulative IPC: 0.419587 (Simulation time: 1 hr 5 min 41 sec) 
Heartbeat CPU 3 instructions: 350000002 cycles: 227037741 heartbeat IPC: 0.501148 cumulative IPC: 0.521077 (Simulation time: 1 hr 6 min 7 sec) 
Heartbeat CPU 1 instructions: 270000002 cycles: 231686487 heartbeat IPC: 0.642492 cumulative IPC: 0.641668 (Simulation time: 1 hr 6 min 55 sec) 
Heartbeat CPU 2 instructions: 300000000 cycles: 241340955 heartbeat IPC: 0.555085 cumulative IPC: 0.560238 (Simulation time: 1 hr 8 min 34 sec) 
Heartbeat CPU 0 instructions: 330000003 cycles: 245899725 heartbeat IPC: 0.469649 cumulative IPC: 0.428232 (Simulation time: 1 hr 9 min 25 sec) 
Heartbeat CPU 1 instructions: 280000000 cycles: 247319130 heartbeat IPC: 0.639687 cumulative IPC: 0.641419 (Simulation time: 1 hr 9 min 39 sec) 
Heartbeat CPU 3 instructions: 360000000 cycles: 247578786 heartbeat IPC: 0.48683 cumulative IPC: 0.515449 (Simulation time: 1 hr 9 min 43 sec) 
Heartbeat CPU 2 instructions: 310000000 cycles: 259035725 heartbeat IPC: 0.565139 cumulative IPC: 0.560874 (Simulation time: 1 hr 11 min 39 sec) 
Heartbeat CPU 1 instructions: 290000001 cycles: 262944525 heartbeat IPC: 0.639984 cumulative IPC: 0.641259 (Simulation time: 1 hr 12 min 19 sec) 
Heartbeat CPU 0 instructions: 340000000 cycles: 267245598 heartbeat IPC: 0.468474 cumulative IPC: 0.43417 (Simulation time: 1 hr 13 min 1 sec) 
Heartbeat CPU 3 instructions: 370000003 cycles: 268191333 heartbeat IPC: 0.485142 cumulative IPC: 0.511158 (Simulation time: 1 hr 13 min 10 sec) 
Heartbeat CPU 2 instructions: 320000000 cycles: 276691132 heartbeat IPC: 0.566399 cumulative IPC: 0.561507 (Simulation time: 1 hr 14 min 39 sec) 
Heartbeat CPU 1 instructions: 300000000 cycles: 278571555 heartbeat IPC: 0.639917 cumulative IPC: 0.641125 (Simulation time: 1 hr 14 min 58 sec) 
Heartbeat CPU 0 instructions: 350000003 cycles: 288661049 heartbeat IPC: 0.466953 cumulative IPC: 0.438398 (Simulation time: 1 hr 16 min 42 sec) 
Heartbeat CPU 3 instructions: 380000000 cycles: 288910172 heartbeat IPC: 0.482652 cumulative IPC: 0.507607 (Simulation time: 1 hr 16 min 45 sec) 
Heartbeat CPU 1 instructions: 310000003 cycles: 294196558 heartbeat IPC: 0.64 cumulative IPC: 0.641023 (Simulation time: 1 hr 17 min 37 sec) 
Heartbeat CPU 2 instructions: 330000003 cycles: 294300982 heartbeat IPC: 0.567864 cumulative IPC: 0.562159 (Simulation time: 1 hr 17 min 38 sec) 
Heartbeat CPU 3 instructions: 390000002 cycles: 309450169 heartbeat IPC: 0.486855 cumulative IPC: 0.505326 (Simulation time: 1 hr 20 min 5 sec) 
Heartbeat CPU 1 instructions: 320000000 cycles: 309904797 heartbeat IPC: 0.636608 cumulative IPC: 0.640652 (Simulation time: 1 hr 20 min 9 sec) 
Heartbeat CPU 0 instructions: 360000000 cycles: 309944298 heartbeat IPC: 0.469853 cumulative IPC: 0.441971 (Simulation time: 1 hr 20 min 9 sec) 
Heartbeat CPU 2 instructions: 340000000 cycles: 311873724 heartbeat IPC: 0.569063 cumulative IPC: 0.5628 (Simulation time: 1 hr 20 min 28 sec) 
Heartbeat CPU 1 instructions: 330000002 cycles: 325522871 heartbeat IPC: 0.640284 cumulative IPC: 0.640624 (Simulation time: 1 hr 22 min 54 sec) 
Heartbeat CPU 3 instructions: 400000000 cycles: 326166542 heartbeat IPC: 0.598216 cumulative IPC: 0.512953 (Simulation time: 1 hr 23 min 1 sec) 
Heartbeat CPU 0 instructions: 370000000 cycles: 331042926 heartbeat IPC: 0.473964 cumulative IPC: 0.445209 (Simulation time: 1 hr 23 min 49 sec) 
Heartbeat CPU 2 instructions: 350000002 cycles: 333665983 heartbeat IPC: 0.458879 cumulative IPC: 0.55207 (Simulation time: 1 hr 24 min 15 sec) 
Heartbeat CPU 3 instructions: 410000003 cycles: 340491934 heartbeat IPC: 0.698061 cumulative IPC: 0.525123 (Simulation time: 1 hr 25 min 25 sec) 
Heartbeat CPU 1 instructions: 340000000 cycles: 341149292 heartbeat IPC: 0.639942 cumulative IPC: 0.640575 (Simulation time: 1 hr 25 min 31 sec) 
Heartbeat CPU 0 instructions: 380000000 cycles: 352211141 heartbeat IPC: 0.472406 cumulative IPC: 0.447717 (Simulation time: 1 hr 27 min 21 sec) 
Heartbeat CPU 3 instructions: 420000000 cycles: 355003134 heartbeat IPC: 0.689123 cumulative IPC: 0.535363 (Simulation time: 1 hr 27 min 48 sec) 
Heartbeat CPU 1 instructions: 350000003 cycles: 356792043 heartbeat IPC: 0.639274 cumulative IPC: 0.640488 (Simulation time: 1 hr 28 min 4 sec) 
Heartbeat CPU 2 instructions: 360000000 cycles: 359007603 heartbeat IPC: 0.394608 cumulative IPC: 0.535192 (Simulation time: 1 hr 28 min 28 sec) 
Heartbeat CPU 3 instructions: 430000003 cycles: 369671157 heartbeat IPC: 0.681755 cumulative IPC: 0.544054 (Simulation time: 1 hr 30 min 19 sec) 
Heartbeat CPU 1 instructions: 360000000 cycles: 372380684 heartbeat IPC: 0.641493 cumulative IPC: 0.640551 (Simulation time: 1 hr 30 min 48 sec) 
Heartbeat CPU 0 instructions: 390000002 cycles: 373436154 heartbeat IPC: 0.471142 cumulative IPC: 0.449699 (Simulation time: 1 hr 30 min 57 sec) 
Heartbeat CPU 2 instructions: 370000001 cycles: 382380486 heartbeat IPC: 0.427846 cumulative IPC: 0.525534 (Simulation time: 1 hr 32 min 33 sec) 
Heartbeat CPU 3 instructions: 440000000 cycles: 384336276 heartbeat IPC: 0.68189 cumulative IPC: 0.551777 (Simulation time: 1 hr 32 min 53 sec) 
Heartbeat CPU 1 instructions: 370000000 cycles: 387966446 heartbeat IPC: 0.641611 cumulative IPC: 0.640613 (Simulation time: 1 hr 33 min 28 sec) 
Heartbeat CPU 0 instructions: 400000000 cycles: 394586765 heartbeat IPC: 0.472799 cumulative IPC: 0.451495 (Simulation time: 1 hr 34 min 32 sec) 
Heartbeat CPU 3 instructions: 450000002 cycles: 398841847 heartbeat IPC: 0.68939 cumulative IPC: 0.559003 (Simulation time: 1 hr 35 min 13 sec) 
Heartbeat CPU 2 instructions: 380000000 cycles: 401315124 heartbeat IPC: 0.528133 cumulative IPC: 0.52571 (Simulation time: 1 hr 35 min 37 sec) 
Heartbeat CPU 1 instructions: 380000000 cycles: 403564120 heartbeat IPC: 0.641121 cumulative IPC: 0.640641 (Simulation time: 1 hr 35 min 59 sec) 
Heartbeat CPU 3 instructions: 460000000 cycles: 413338871 heartbeat IPC: 0.689797 cumulative IPC: 0.565524 (Simulation time: 1 hr 37 min 35 sec) 
Heartbeat CPU 0 instructions: 410000001 cycles: 415707323 heartbeat IPC: 0.473472 cumulative IPC: 0.453079 (Simulation time: 1 hr 37 min 58 sec) 
Heartbeat CPU 1 instructions: 390000002 cycles: 419133759 heartbeat IPC: 0.642276 cumulative IPC: 0.640727 (Simulation time: 1 hr 38 min 31 sec) 
Heartbeat CPU 2 instructions: 390000003 cycles: 420322517 heartbeat IPC: 0.526111 cumulative IPC: 0.525736 (Simulation time: 1 hr 38 min 43 sec) 
Heartbeat CPU 3 instructions: 470000002 cycles: 430581501 heartbeat IPC: 0.579958 cumulative IPC: 0.566333 (Simulation time: 1 hr 40 min 20 sec) 
Heartbeat CPU 1 instructions: 400000000 cycles: 434735537 heartbeat IPC: 0.640952 cumulative IPC: 0.640739 (Simulation time: 1 hr 40 min 59 sec) 
Heartbeat CPU 0 instructions: 420000000 cycles: 436887685 heartbeat IPC: 0.472135 cumulative IPC: 0.454363 (Simulation time: 1 hr 41 min 18 sec) 
Heartbeat CPU 2 instructions: 400000000 cycles: 438878768 heartbeat IPC: 0.538902 cumulative IPC: 0.526508 (Simulation time: 1 hr 41 min 37 sec) 
Heartbeat CPU 3 instructions: 480000000 cycles: 450221411 heartbeat IPC: 0.509167 cumulative IPC: 0.562906 (Simulation time: 1 hr 43 min 23 sec) 
Heartbeat CPU 1 instructions: 410000001 cycles: 450319572 heartbeat IPC: 0.641682 cumulative IPC: 0.640783 (Simulation time: 1 hr 43 min 24 sec) 
Heartbeat CPU 2 instructions: 410000001 cycles: 454680451 heartbeat IPC: 0.632844 cumulative IPC: 0.531568 (Simulation time: 1 hr 44 min 5 sec) 
Heartbeat CPU 0 instructions: 430000002 cycles: 460934092 heartbeat IPC: 0.415863 cumulative IPC: 0.451627 (Simulation time: 1 hr 44 min 58 sec) 
Heartbeat CPU 1 instructions: 420000000 cycles: 465922765 heartbeat IPC: 0.640894 cumulative IPC: 0.640788 (Simulation time: 1 hr 45 min 37 sec) 
Heartbeat CPU 3 instructions: 490000003 cycles: 470523345 heartbeat IPC: 0.492564 cumulative IPC: 0.558801 (Simulation time: 1 hr 46 min 14 sec) 
Heartbeat CPU 2 instructions: 420000000 cycles: 470921696 heartbeat IPC: 0.615716 cumulative IPC: 0.535492 (Simulation time: 1 hr 46 min 17 sec) 
Heartbeat CPU 1 instructions: 430000002 cycles: 481543171 heartbeat IPC: 0.640188 cumulative IPC: 0.640762 (Simulation time: 1 hr 47 min 42 sec) 
Heartbeat CPU 2 instructions: 430000001 cycles: 487240338 heartbeat IPC: 0.612796 cumulative IPC: 0.538951 (Simulation time: 1 hr 48 min 27 sec) 
Heartbeat CPU 3 instructions: 500000000 cycles: 491641461 heartbeat IPC: 0.473527 cumulative IPC: 0.553921 (Simulation time: 1 hr 49 min 2 sec) 
Heartbeat CPU 1 instructions: 440000000 cycles: 497180230 heartbeat IPC: 0.639506 cumulative IPC: 0.64071 (Simulation time: 1 hr 49 min 45 sec) 
Heartbeat CPU 2 instructions: 440000000 cycles: 503361745 heartbeat IPC: 0.620293 cumulative IPC: 0.542395 (Simulation time: 1 hr 50 min 34 sec) 
Heartbeat CPU 3 instructions: 510000000 cycles: 512634764 heartbeat IPC: 0.476342 cumulative IPC: 0.549746 (Simulation time: 1 hr 51 min 49 sec) 
Heartbeat CPU 1 instructions: 450000002 cycles: 512805745 heartbeat IPC: 0.639979 cumulative IPC: 0.640681 (Simulation time: 1 hr 51 min 51 sec) 
Heartbeat CPU 0 instructions: 440000000 cycles: 513773423 heartbeat IPC: 0.189253 cumulative IPC: 0.416186 (Simulation time: 1 hr 52 min 0 sec) 
Heartbeat CPU 2 instructions: 450000000 cycles: 519368778 heartbeat IPC: 0.624725 cumulative IPC: 0.545717 (Simulation time: 1 hr 52 min 52 sec) 
Heartbeat CPU 1 instructions: 460000000 cycles: 528383716 heartbeat IPC: 0.641932 cumulative IPC: 0.640729 (Simulation time: 1 hr 54 min 17 sec) 
Heartbeat CPU 3 instructions: 520000000 cycles: 531929696 heartbeat IPC: 0.518271 cumulative IPC: 0.548262 (Simulation time: 1 hr 54 min 51 sec) 
Heartbeat CPU 0 instructions: 450000000 cycles: 534634464 heartbeat IPC: 0.479362 cumulative IPC: 0.419385 (Simulation time: 1 hr 55 min 16 sec) 
Heartbeat CPU 2 instructions: 460000000 cycles: 535250952 heartbeat IPC: 0.629637 cumulative IPC: 0.548946 (Simulation time: 1 hr 55 min 22 sec) 
Heartbeat CPU 1 instructions: 470000000 cycles: 543955981 heartbeat IPC: 0.642167 cumulative IPC: 0.640782 (Simulation time: 1 hr 56 min 44 sec) 
Heartbeat CPU 2 instructions: 470000000 cycles: 551067901 heartbeat IPC: 0.632233 cumulative IPC: 0.552021 (Simulation time: 1 hr 57 min 51 sec) 
Heartbeat CPU 3 instructions: 530000002 cycles: 551138943 heartbeat IPC: 0.520583 cumulative IPC: 0.547022 (Simulation time: 1 hr 57 min 52 sec) 
Heartbeat CPU 0 instructions: 460000000 cycles: 555413341 heartbeat IPC: 0.481258 cumulative IPC: 0.422355 (Simulation time: 1 hr 58 min 32 sec) 
Heartbeat CPU 1 instructions: 480000000 cycles: 559525270 heartbeat IPC: 0.64229 cumulative IPC: 0.640836 (Simulation time: 1 hr 59 min 11 sec) 
Heartbeat CPU 2 instructions: 480000000 cycles: 566899584 heartbeat IPC: 0.631645 cumulative IPC: 0.554858 (Simulation time: 2 hr 0 min 21 sec) 
Heartbeat CPU 3 instructions: 540000000 cycles: 571033707 heartbeat IPC: 0.502645 cumulative IPC: 0.545053 (Simulation time: 2 hr 1 min 1 sec) 
Heartbeat CPU 1 instructions: 490000002 cycles: 575097387 heartbeat IPC: 0.642174 cumulative IPC: 0.640882 (Simulation time: 2 hr 1 min 39 sec) 
Heartbeat CPU 0 instructions: 470000002 cycles: 576168463 heartbeat IPC: 0.481809 cumulative IPC: 0.425076 (Simulation time: 2 hr 1 min 49 sec) 
Heartbeat CPU 2 instructions: 490000000 cycles: 582701143 heartbeat IPC: 0.632849 cumulative IPC: 0.557537 (Simulation time: 2 hr 2 min 46 sec) 
Heartbeat CPU 0 instructions: 480000000 cycles: 598384867 heartbeat IPC: 0.450118 cumulative IPC: 0.426245 (Simulation time: 2 hr 4 min 44 sec) 
Heartbeat CPU 1 instructions: 500000000 cycles: 599552654 heartbeat IPC: 0.40891 cumulative IPC: 0.628988 (Simulation time: 2 hr 4 min 53 sec) 
Heartbeat CPU 2 instructions: 500000000 cycles: 599888725 heartbeat IPC: 0.581815 cumulative IPC: 0.558411 (Simulation time: 2 hr 4 min 55 sec) 
Heartbeat CPU 2 instructions: 510000001 cycles: 616589820 heartbeat IPC: 0.598763 cumulative IPC: 0.559775 (Simulation time: 2 hr 7 min 15 sec) 
Heartbeat CPU 3 instructions: 550000000 cycles: 620505202 heartbeat IPC: 0.202137 cumulative IPC: 0.510981 (Simulation time: 2 hr 7 min 47 sec) 
Heartbeat CPU 0 instructions: 490000000 cycles: 620770411 heartbeat IPC: 0.446717 cumulative IPC: 0.427165 (Simulation time: 2 hr 7 min 49 sec) 
Heartbeat CPU 1 instructions: 510000002 cycles: 620857693 heartbeat IPC: 0.469373 cumulative IPC: 0.622163 (Simulation time: 2 hr 7 min 50 sec) 
Heartbeat CPU 2 instructions: 520000000 cycles: 635116396 heartbeat IPC: 0.539765 cumulative IPC: 0.559052 (Simulation time: 2 hr 9 min 46 sec) 
Heartbeat CPU 1 instructions: 520000000 cycles: 641609767 heartbeat IPC: 0.481879 cumulative IPC: 0.616554 (Simulation time: 2 hr 10 min 40 sec) 
Heartbeat CPU 0 instructions: 500000000 cycles: 644432506 heartbeat IPC: 0.422617 cumulative IPC: 0.426959 (Simulation time: 2 hr 11 min 3 sec) 
Heartbeat CPU 2 instructions: 530000001 cycles: 653726346 heartbeat IPC: 0.537347 cumulative IPC: 0.558291 (Simulation time: 2 hr 12 min 20 sec) 
Heartbeat CPU 1 instructions: 530000002 cycles: 662147555 heartbeat IPC: 0.486907 cumulative IPC: 0.611619 (Simulation time: 2 hr 13 min 29 sec) 
Heartbeat CPU 3 instructions: 560000000 cycles: 665133495 heartbeat IPC: 0.224073 cumulative IPC: 0.487381 (Simulation time: 2 hr 13 min 54 sec) 
Heartbeat CPU 0 instructions: 510000001 cycles: 666930923 heartbeat IPC: 0.444476 cumulative IPC: 0.427683 (Simulation time: 2 hr 14 min 10 sec) 
Heartbeat CPU 2 instructions: 540000000 cycles: 670793303 heartbeat IPC: 0.585927 cumulative IPC: 0.559152 (Simulation time: 2 hr 14 min 43 sec) 
Heartbeat CPU 1 instructions: 540000000 cycles: 682283112 heartbeat IPC: 0.496634 cumulative IPC: 0.607482 (Simulation time: 2 hr 16 min 22 sec) 
Heartbeat CPU 2 instructions: 550000000 cycles: 687166941 heartbeat IPC: 0.610738 cumulative IPC: 0.560648 (Simulation time: 2 hr 17 min 12 sec) 
Heartbeat CPU 0 instructions: 520000000 cycles: 687898363 heartbeat IPC: 0.47693 cumulative IPC: 0.429509 (Simulation time: 2 hr 17 min 21 sec) 
Heartbeat CPU 3 instructions: 570000000 cycles: 690984148 heartbeat IPC: 0.386837 cumulative IPC: 0.482808 (Simulation time: 2 hr 17 min 55 sec) 
Heartbeat CPU 1 instructions: 550000001 cycles: 702484301 heartbeat IPC: 0.49502 cumulative IPC: 0.603564 (Simulation time: 2 hr 19 min 35 sec) 
Heartbeat CPU 0 instructions: 530000003 cycles: 709319260 heartbeat IPC: 0.466834 cumulative IPC: 0.430872 (Simulation time: 2 hr 20 min 29 sec) 
Heartbeat CPU 2 instructions: 560000000 cycles: 714114529 heartbeat IPC: 0.371091 cumulative IPC: 0.552012 (Simulation time: 2 hr 21 min 7 sec) 
Heartbeat CPU 3 instructions: 580000000 cycles: 718142281 heartbeat IPC: 0.368214 cumulative IPC: 0.477582 (Simulation time: 2 hr 21 min 39 sec) 
Heartbeat CPU 1 instructions: 560000000 cycles: 722747505 heartbeat IPC: 0.493505 cumulative IPC: 0.599848 (Simulation time: 2 hr 22 min 15 sec) 
Heartbeat CPU 0 instructions: 540000000 cycles: 730746589 heartbeat IPC: 0.466694 cumulative IPC: 0.432134 (Simulation time: 2 hr 23 min 22 sec) 
Heartbeat CPU 1 instructions: 570000000 cycles: 743014266 heartbeat IPC: 0.493419 cumulative IPC: 0.596372 (Simulation time: 2 hr 25 min 21 sec) 
Heartbeat CPU 2 instructions: 570000002 cycles: 743203626 heartbeat IPC: 0.343771 cumulative IPC: 0.542252 (Simulation time: 2 hr 25 min 22 sec) 
Heartbeat CPU 3 instructions: 590000002 cycles: 745309806 heartbeat IPC: 0.368087 cumulative IPC: 0.472805 (Simulation time: 2 hr 25 min 39 sec) 
Heartbeat CPU 0 instructions: 550000001 cycles: 752148361 heartbeat IPC: 0.467251 cumulative IPC: 0.433328 (Simulation time: 2 hr 26 min 45 sec) 
Heartbeat CPU 1 instructions: 580000000 cycles: 763192478 heartbeat IPC: 0.495584 cumulative IPC: 0.593197 (Simulation time: 2 hr 28 min 16 sec) 
Heartbeat CPU 3 instructions: 600000000 cycles: 769443401 heartbeat IPC: 0.41436 cumulative IPC: 0.470624 (Simulation time: 2 hr 29 min 8 sec) 
Heartbeat CPU 2 instructions: 580000000 cycles: 771714329 heartbeat IPC: 0.350745 cumulative IPC: 0.53384 (Simulation time: 2 hr 29 min 26 sec) 
Heartbeat CPU 0 instructions: 560000000 cycles: 773072821 heartbeat IPC: 0.47791 cumulative IPC: 0.434762 (Simulation time: 2 hr 29 min 37 sec) 
Heartbeat CPU 1 instructions: 590000000 cycles: 783288666 heartbeat IPC: 0.497607 cumulative IPC: 0.590289 (Simulation time: 2 hr 30 min 57 sec) 
Heartbeat CPU 3 instructions: 610000000 cycles: 787953453 heartbeat IPC: 0.540247 cumulative IPC: 0.472561 (Simulation time: 2 hr 31 min 34 sec) 
Heartbeat CPU 0 instructions: 570000003 cycles: 793820116 heartbeat IPC: 0.481991 cumulative IPC: 0.436222 (Simulation time: 2 hr 32 min 19 sec) 
Heartbeat CPU 2 instructions: 590000000 cycles: 799529836 heartbeat IPC: 0.359512 cumulative IPC: 0.526677 (Simulation time: 2 hr 33 min 4 sec) 
Heartbeat CPU 1 instructions: 600000000 cycles: 803365131 heartbeat IPC: 0.498096 cumulative IPC: 0.58757 (Simulation time: 2 hr 33 min 34 sec) 
Heartbeat CPU 3 instructions: 620000000 cycles: 806420016 heartbeat IPC: 0.541519 cumulative IPC: 0.474424 (Simulation time: 2 hr 33 min 58 sec) 
Heartbeat CPU 0 instructions: 580000000 cycles: 814603266 heartbeat IPC: 0.481159 cumulative IPC: 0.437571 (Simulation time: 2 hr 35 min 1 sec) 
Heartbeat CPU 1 instructions: 610000001 cycles: 823536898 heartbeat IPC: 0.495742 cumulative IPC: 0.584928 (Simulation time: 2 hr 36 min 12 sec) 
Heartbeat CPU 3 instructions: 630000001 cycles: 825304377 heartbeat IPC: 0.529539 cumulative IPC: 0.475905 (Simulation time: 2 hr 36 min 26 sec) 
Heartbeat CPU 2 instructions: 600000000 cycles: 825657143 heartbeat IPC: 0.382741 cumulative IPC: 0.521328 (Simulation time: 2 hr 36 min 30 sec) 
Heartbeat CPU 0 instructions: 590000001 cycles: 834768506 heartbeat IPC: 0.495903 cumulative IPC: 0.439223 (Simulation time: 2 hr 37 min 52 sec) 
Heartbeat CPU 2 instructions: 610000000 cycles: 839866158 heartbeat IPC: 0.703779 cumulative IPC: 0.524942 (Simulation time: 2 hr 38 min 37 sec) 
Heartbeat CPU 1 instructions: 620000000 cycles: 843691723 heartbeat IPC: 0.496159 cumulative IPC: 0.582447 (Simulation time: 2 hr 39 min 12 sec) 
Heartbeat CPU 3 instructions: 640000000 cycles: 845004286 heartbeat IPC: 0.507617 cumulative IPC: 0.476769 (Simulation time: 2 hr 39 min 24 sec) 
Heartbeat CPU 2 instructions: 620000000 cycles: 853511564 heartbeat IPC: 0.732847 cumulative IPC: 0.528824 (Simulation time: 2 hr 40 min 42 sec) 
Heartbeat CPU 0 instructions: 600000000 cycles: 853901602 heartbeat IPC: 0.522655 cumulative IPC: 0.441406 (Simulation time: 2 hr 40 min 45 sec) 
Heartbeat CPU 3 instructions: 650000002 cycles: 862941859 heartbeat IPC: 0.557489 cumulative IPC: 0.478725 (Simulation time: 2 hr 42 min 7 sec) 
Heartbeat CPU 1 instructions: 630000003 cycles: 863811539 heartbeat IPC: 0.497023 cumulative IPC: 0.580128 (Simulation time: 2 hr 42 min 15 sec) 
Heartbeat CPU 2 instructions: 630000001 cycles: 867726481 heartbeat IPC: 0.703486 cumulative IPC: 0.532156 (Simulation time: 2 hr 42 min 51 sec) 
Heartbeat CPU 0 instructions: 610000001 cycles: 872977633 heartbeat IPC: 0.524218 cumulative IPC: 0.443511 (Simulation time: 2 hr 43 min 38 sec) 
Heartbeat CPU 3 instructions: 660000000 cycles: 880931003 heartbeat IPC: 0.555891 cumulative IPC: 0.480556 (Simulation time: 2 hr 44 min 50 sec) 
Heartbeat CPU 2 instructions: 640000000 cycles: 881963463 heartbeat IPC: 0.702396 cumulative IPC: 0.535348 (Simulation time: 2 hr 44 min 59 sec) 
Heartbeat CPU 1 instructions: 640000000 cycles: 883881704 heartbeat IPC: 0.498252 cumulative IPC: 0.577969 (Simulation time: 2 hr 45 min 17 sec) 
Heartbeat CPU 0 instructions: 620000000 cycles: 892153865 heartbeat IPC: 0.521479 cumulative IPC: 0.445454 (Simulation time: 2 hr 46 min 31 sec) 
Heartbeat CPU 2 instructions: 650000000 cycles: 896172607 heartbeat IPC: 0.703772 cumulative IPC: 0.538441 (Simulation time: 2 hr 47 min 7 sec) 
Heartbeat CPU 3 instructions: 670000000 cycles: 900168186 heartbeat IPC: 0.519827 cumulative IPC: 0.481527 (Simulation time: 2 hr 47 min 44 sec) 
Heartbeat CPU 1 instructions: 650000000 cycles: 904029123 heartbeat IPC: 0.496341 cumulative IPC: 0.575865 (Simulation time: 2 hr 48 min 19 sec) 
Heartbeat CPU 2 instructions: 660000000 cycles: 911225055 heartbeat IPC: 0.664344 cumulative IPC: 0.540844 (Simulation time: 2 hr 49 min 20 sec) 
Heartbeat CPU 0 instructions: 630000001 cycles: 911970743 heartbeat IPC: 0.50462 cumulative IPC: 0.446939 (Simulation time: 2 hr 49 min 26 sec) 
Heartbeat CPU 1 instructions: 660000000 cycles: 924352690 heartbeat IPC: 0.49204 cumulative IPC: 0.57374 (Simulation time: 2 hr 51 min 12 sec) 
Heartbeat CPU 2 instructions: 670000002 cycles: 926419544 heartbeat IPC: 0.658134 cumulative IPC: 0.543061 (Simulation time: 2 hr 51 min 29 sec) 
Heartbeat CPU 0 instructions: 640000000 cycles: 932027684 heartbeat IPC: 0.49858 cumulative IPC: 0.448219 (Simulation time: 2 hr 52 min 17 sec) 
Heartbeat CPU 2 instructions: 680000000 cycles: 942153116 heartbeat IPC: 0.635583 cumulative IPC: 0.544838 (Simulation time: 2 hr 53 min 33 sec) 
Heartbeat CPU 3 instructions: 680000000 cycles: 944605020 heartbeat IPC: 0.225039 cumulative IPC: 0.467662 (Simulation time: 2 hr 53 min 55 sec) 
Heartbeat CPU 1 instructions: 670000000 cycles: 947838750 heartbeat IPC: 0.425784 cumulative IPC: 0.569529 (Simulation time: 2 hr 54 min 22 sec) 
Heartbeat CPU 0 instructions: 650000000 cycles: 952285179 heartbeat IPC: 0.493644 cumulative IPC: 0.449328 (Simulation time: 2 hr 54 min 55 sec) 
Heartbeat CPU 1 instructions: 680000000 cycles: 963731436 heartbeat IPC: 0.62922 cumulative IPC: 0.570657 (Simulation time: 2 hr 56 min 30 sec) 
Heartbeat CPU 2 instructions: 690000000 cycles: 965289011 heartbeat IPC: 0.432229 cumulative IPC: 0.541746 (Simulation time: 2 hr 56 min 43 sec) 
Heartbeat CPU 3 instructions: 690000003 cycles: 966732236 heartbeat IPC: 0.451932 cumulative IPC: 0.467249 (Simulation time: 2 hr 56 min 56 sec) 
Heartbeat CPU 0 instructions: 660000000 cycles: 971503267 heartbeat IPC: 0.520343 cumulative IPC: 0.450936 (Simulation time: 2 hr 57 min 31 sec) 
Heartbeat CPU 3 instructions: 700000000 cycles: 987044989 heartbeat IPC: 0.492301 cumulative IPC: 0.467838 (Simulation time: 2 hr 59 min 28 sec) 
Heartbeat CPU 1 instructions: 690000000 cycles: 988690216 heartbeat IPC: 0.400661 cumulative IPC: 0.565758 (Simulation time: 2 hr 59 min 41 sec) 
Heartbeat CPU 0 instructions: 670000000 cycles: 990499116 heartbeat IPC: 0.526431 cumulative IPC: 0.452588 (Simulation time: 2 hr 59 min 55 sec) 
Heartbeat CPU 2 instructions: 700000000 cycles: 990834214 heartbeat IPC: 0.391463 cumulative IPC: 0.537324 (Simulation time: 2 hr 59 min 57 sec) 
Heartbeat CPU 3 instructions: 710000000 cycles: 1007185678 heartbeat IPC: 0.496507 cumulative IPC: 0.468491 (Simulation time: 3 hr 1 min 59 sec) 
Heartbeat CPU 0 instructions: 680000000 cycles: 1009488377 heartbeat IPC: 0.526613 cumulative IPC: 0.454173 (Simulation time: 3 hr 2 min 16 sec) 
Heartbeat CPU 2 instructions: 710000000 cycles: 1015976150 heartbeat IPC: 0.397742 cumulative IPC: 0.533396 (Simulation time: 3 hr 3 min 5 sec) 
Heartbeat CPU 1 instructions: 700000000 cycles: 1019022793 heartbeat IPC: 0.329679 cumulative IPC: 0.55777 (Simulation time: 3 hr 3 min 30 sec) 
Heartbeat CPU 3 instructions: 720000000 cycles: 1027210726 heartbeat IPC: 0.499375 cumulative IPC: 0.469175 (Simulation time: 3 hr 4 min 37 sec) 
Heartbeat CPU 0 instructions: 690000003 cycles: 1028647540 heartbeat IPC: 0.521944 cumulative IPC: 0.455606 (Simulation time: 3 hr 4 min 49 sec) 
Heartbeat CPU 2 instructions: 720000000 cycles: 1034917376 heartbeat IPC: 0.527949 cumulative IPC: 0.533283 (Simulation time: 3 hr 5 min 40 sec) 
Heartbeat CPU 3 instructions: 730000003 cycles: 1047196695 heartbeat IPC: 0.500351 cumulative IPC: 0.469848 (Simulation time: 3 hr 7 min 14 sec) 
Heartbeat CPU 1 instructions: 710000003 cycles: 1049692353 heartbeat IPC: 0.326056 cumulative IPC: 0.550104 (Simulation time: 3 hr 7 min 34 sec) 
Heartbeat CPU 0 instructions: 700000000 cycles: 1050343656 heartbeat IPC: 0.460912 cumulative IPC: 0.45573 (Simulation time: 3 hr 7 min 39 sec) 
Heartbeat CPU 2 instructions: 730000003 cycles: 1053823891 heartbeat IPC: 0.528918 cumulative IPC: 0.533194 (Simulation time: 3 hr 8 min 6 sec) 
Heartbeat CPU 3 instructions: 740000000 cycles: 1066962744 heartbeat IPC: 0.505918 cumulative IPC: 0.470603 (Simulation time: 3 hr 9 min 54 sec) 
Heartbeat CPU 0 instructions: 710000001 cycles: 1069811535 heartbeat IPC: 0.513667 cumulative IPC: 0.456921 (Simulation time: 3 hr 10 min 17 sec) 
Heartbeat CPU 2 instructions: 740000000 cycles: 1072637730 heartbeat IPC: 0.531523 cumulative IPC: 0.533161 (Simulation time: 3 hr 10 min 40 sec) 
Heartbeat CPU 1 instructions: 720000000 cycles: 1078887667 heartbeat IPC: 0.342521 cumulative IPC: 0.543767 (Simulation time: 3 hr 11 min 32 sec) 
Heartbeat CPU 1 instructions: 730000000 cycles: 1087733282 heartbeat IPC: 1.1305 cumulative IPC: 0.549145 (Simulation time: 3 hr 12 min 51 sec) 
Heartbeat CPU 3 instructions: 750000002 cycles: 1088934913 heartbeat IPC: 0.455121 cumulative IPC: 0.470251 (Simulation time: 3 hr 13 min 2 sec) 
Heartbeat CPU 0 instructions: 720000000 cycles: 1089960140 heartbeat IPC: 0.496312 cumulative IPC: 0.457741 (Simulation time: 3 hr 13 min 11 sec) 
Heartbeat CPU 2 instructions: 750000000 cycles: 1092137353 heartbeat IPC: 0.51283 cumulative IPC: 0.532752 (Simulation time: 3 hr 13 min 31 sec) 
Heartbeat CPU 1 instructions: 740000000 cycles: 1098644595 heartbeat IPC: 0.91648 cumulative IPC: 0.553251 (Simulation time: 3 hr 14 min 29 sec) 
Heartbeat CPU 2 instructions: 760000000 cycles: 1108022738 heartbeat IPC: 0.629509 cumulative IPC: 0.534312 (Simulation time: 3 hr 15 min 55 sec) 
Heartbeat CPU 0 instructions: 730000000 cycles: 1109567561 heartbeat IPC: 0.510011 cumulative IPC: 0.45878 (Simulation time: 3 hr 16 min 9 sec) 
Heartbeat CPU 3 instructions: 760000000 cycles: 1110045817 heartbeat IPC: 0.473689 cumulative IPC: 0.470325 (Simulation time: 3 hr 16 min 14 sec) 
Heartbeat CPU 1 instructions: 750000003 cycles: 1118626242 heartbeat IPC: 0.500459 cumulative IPC: 0.552192 (Simulation time: 3 hr 17 min 32 sec) 
Heartbeat CPU 2 instructions: 770000000 cycles: 1123400285 heartbeat IPC: 0.650299 cumulative IPC: 0.536094 (Simulation time: 3 hr 18 min 16 sec) 
Heartbeat CPU 3 instructions: 770000000 cycles: 1126841242 heartbeat IPC: 0.5954 cumulative IPC: 0.472417 (Simulation time: 3 hr 18 min 47 sec) 
Heartbeat CPU 0 instructions: 740000000 cycles: 1128531970 heartbeat IPC: 0.527304 cumulative IPC: 0.460072 (Simulation time: 3 hr 19 min 3 sec) 
Heartbeat CPU 1 instructions: 760000000 cycles: 1138594470 heartbeat IPC: 0.500795 cumulative IPC: 0.551182 (Simulation time: 3 hr 20 min 35 sec) 
Heartbeat CPU 2 instructions: 780000000 cycles: 1138748518 heartbeat IPC: 0.651541 cumulative IPC: 0.537838 (Simulation time: 3 hr 20 min 36 sec) 
Heartbeat CPU 3 instructions: 780000000 cycles: 1143715135 heartbeat IPC: 0.592631 cumulative IPC: 0.474403 (Simulation time: 3 hr 21 min 22 sec) 
Heartbeat CPU 0 instructions: 750000003 cycles: 1147573637 heartbeat IPC: 0.525164 cumulative IPC: 0.461281 (Simulation time: 3 hr 21 min 57 sec) 
Heartbeat CPU 2 instructions: 790000003 cycles: 1154070643 heartbeat IPC: 0.652651 cumulative IPC: 0.539544 (Simulation time: 3 hr 22 min 56 sec) 
Heartbeat CPU 1 instructions: 770000000 cycles: 1158571949 heartbeat IPC: 0.500564 cumulative IPC: 0.550206 (Simulation time: 3 hr 23 min 38 sec) 
Heartbeat CPU 3 instructions: 790000003 cycles: 1160654144 heartbeat IPC: 0.590353 cumulative IPC: 0.476295 (Simulation time: 3 hr 23 min 57 sec) 
Heartbeat CPU 0 instructions: 760000000 cycles: 1166519881 heartbeat IPC: 0.527809 cumulative IPC: 0.462488 (Simulation time: 3 hr 24 min 50 sec) 
Heartbeat CPU 2 instructions: 800000000 cycles: 1169411741 heartbeat IPC: 0.651844 cumulative IPC: 0.541189 (Simulation time: 3 hr 25 min 17 sec) 
Heartbeat CPU 3 instructions: 800000000 cycles: 1177564558 heartbeat IPC: 0.591351 cumulative IPC: 0.47814 (Simulation time: 3 hr 26 min 31 sec) 
Heartbeat CPU 1 instructions: 780000000 cycles: 1178568457 heartbeat IPC: 0.500087 cumulative IPC: 0.549257 (Simulation time: 3 hr 26 min 41 sec) 
Heartbeat CPU 2 instructions: 810000002 cycles: 1184695571 heartbeat IPC: 0.654286 cumulative IPC: 0.542817 (Simulation time: 3 hr 27 min 37 sec) 
Heartbeat CPU 0 instructions: 770000003 cycles: 1185605950 heartbeat IPC: 0.523943 cumulative IPC: 0.463592 (Simulation time: 3 hr 27 min 45 sec) 
Heartbeat CPU 3 instructions: 810000002 cycles: 1194462311 heartbeat IPC: 0.591795 cumulative IPC: 0.479931 (Simulation time: 3 hr 29 min 6 sec) 
Heartbeat CPU 1 instructions: 790000003 cycles: 1198520469 heartbeat IPC: 0.501203 cumulative IPC: 0.548365 (Simulation time: 3 hr 29 min 43 sec) 
Heartbeat CPU 2 instructions: 820000000 cycles: 1199980837 heartbeat IPC: 0.654225 cumulative IPC: 0.544397 (Simulation time: 3 hr 29 min 56 sec) 
Heartbeat CPU 0 instructions: 780000000 cycles: 1204659164 heartbeat IPC: 0.524846 cumulative IPC: 0.46467 (Simulation time: 3 hr 30 min 39 sec) 
Heartbeat CPU 3 instructions: 820000000 cycles: 1211388876 heartbeat IPC: 0.590787 cumulative IPC: 0.481655 (Simulation time: 3 hr 31 min 41 sec) 
Heartbeat CPU 2 instructions: 830000003 cycles: 1215306423 heartbeat IPC: 0.652504 cumulative IPC: 0.545914 (Simulation time: 3 hr 32 min 18 sec) 
Heartbeat CPU 1 instructions: 800000000 cycles: 1218510641 heartbeat IPC: 0.500246 cumulative IPC: 0.547488 (Simulation time: 3 hr 32 min 49 sec) 
Heartbeat CPU 0 instructions: 790000003 cycles: 1223642406 heartbeat IPC: 0.526781 cumulative IPC: 0.465741 (Simulation time: 3 hr 33 min 37 sec) 
Heartbeat CPU 3 instructions: 830000001 cycles: 1230270245 heartbeat IPC: 0.529623 cumulative IPC: 0.482472 (Simulation time: 3 hr 34 min 43 sec) 
Heartbeat CPU 2 instructions: 840000000 cycles: 1230776477 heartbeat IPC: 0.64641 cumulative IPC: 0.547317 (Simulation time: 3 hr 34 min 48 sec) 
Heartbeat CPU 1 instructions: 810000000 cycles: 1238563561 heartbeat IPC: 0.498681 cumulative IPC: 0.546611 (Simulation time: 3 hr 36 min 0 sec) 
Heartbeat CPU 0 instructions: 800000000 cycles: 1242766986 heartbeat IPC: 0.522887 cumulative IPC: 0.466717 (Simulation time: 3 hr 36 min 40 sec) 
Heartbeat CPU 2 instructions: 850000000 cycles: 1246418088 heartbeat IPC: 0.63932 cumulative IPC: 0.548597 (Simulation time: 3 hr 37 min 14 sec) 
Heartbeat CPU 3 instructions: 840000000 cycles: 1250032181 heartbeat IPC: 0.506023 cumulative IPC: 0.482885 (Simulation time: 3 hr 37 min 48 sec) 
Heartbeat CPU 1 instructions: 820000000 cycles: 1258723257 heartbeat IPC: 0.496039 cumulative IPC: 0.545713 (Simulation time: 3 hr 39 min 2 sec) 
Heartbeat CPU 0 instructions: 810000003 cycles: 1261815190 heartbeat IPC: 0.524984 cumulative IPC: 0.467691 (Simulation time: 3 hr 39 min 32 sec) 
Heartbeat CPU 2 instructions: 860000000 cycles: 1262217126 heartbeat IPC: 0.63295 cumulative IPC: 0.549766 (Simulation time: 3 hr 39 min 35 sec) 
Heartbeat CPU 3 instructions: 850000003 cycles: 1270676399 heartbeat IPC: 0.484397 cumulative IPC: 0.482912 (Simulation time: 3 hr 40 min 50 sec) 
Heartbeat CPU 1 instructions: 830000003 cycles: 1277243532 heartbeat IPC: 0.539949 cumulative IPC: 0.545621 (Simulation time: 3 hr 41 min 48 sec) 
Heartbeat CPU 2 instructions: 870000000 cycles: 1278159146 heartbeat IPC: 0.627273 cumulative IPC: 0.550836 (Simulation time: 3 hr 41 min 56 sec) 
Heartbeat CPU 0 instructions: 820000000 cycles: 1281209936 heartbeat IPC: 0.515603 cumulative IPC: 0.468493 (Simulation time: 3 hr 42 min 22 sec) 
Heartbeat CPU 3 instructions: 860000000 cycles: 1291217660 heartbeat IPC: 0.486825 cumulative IPC: 0.482981 (Simulation time: 3 hr 43 min 47 sec) 
Heartbeat CPU 2 instructions: 880000000 cycles: 1293785638 heartbeat IPC: 0.639939 cumulative IPC: 0.552025 (Simulation time: 3 hr 44 min 9 sec) 
Heartbeat CPU 1 instructions: 840000000 cycles: 1296704229 heartbeat IPC: 0.513856 cumulative IPC: 0.545094 (Simulation time: 3 hr 44 min 33 sec) 
Heartbeat CPU 0 instructions: 830000000 cycles: 1301476436 heartbeat IPC: 0.493425 cumulative IPC: 0.468922 (Simulation time: 3 hr 45 min 15 sec) 
Heartbeat CPU 2 instructions: 890000001 cycles: 1309506158 heartbeat IPC: 0.636111 cumulative IPC: 0.553138 (Simulation time: 3 hr 46 min 21 sec) 
Heartbeat CPU 3 instructions: 870000002 cycles: 1312711206 heartbeat IPC: 0.465256 cumulative IPC: 0.482661 (Simulation time: 3 hr 46 min 47 sec) 
Heartbeat CPU 1 instructions: 850000003 cycles: 1321195209 heartbeat IPC: 0.408314 cumulative IPC: 0.5423 (Simulation time: 3 hr 47 min 59 sec) 
Heartbeat CPU 0 instructions: 840000000 cycles: 1322121214 heartbeat IPC: 0.484384 cumulative IPC: 0.469188 (Simulation time: 3 hr 48 min 6 sec) 
Heartbeat CPU 2 instructions: 900000000 cycles: 1325183767 heartbeat IPC: 0.637852 cumulative IPC: 0.554243 (Simulation time: 3 hr 48 min 33 sec) 
Heartbeat CPU 3 instructions: 880000000 cycles: 1333899137 heartbeat IPC: 0.471967 cumulative IPC: 0.482474 (Simulation time: 3 hr 49 min 52 sec) 
Heartbeat CPU 2 instructions: 910000000 cycles: 1341057203 heartbeat IPC: 0.629983 cumulative IPC: 0.555229 (Simulation time: 3 hr 50 min 56 sec) 
Heartbeat CPU 1 instructions: 860000000 cycles: 1341641716 heartbeat IPC: 0.489081 cumulative IPC: 0.541407 (Simulation time: 3 hr 51 min 1 sec) 
Heartbeat CPU 0 instructions: 850000000 cycles: 1342354965 heartbeat IPC: 0.494224 cumulative IPC: 0.469603 (Simulation time: 3 hr 51 min 8 sec) 
Heartbeat CPU 3 instructions: 890000001 cycles: 1353781353 heartbeat IPC: 0.502962 cumulative IPC: 0.482805 (Simulation time: 3 hr 52 min 48 sec) 
Heartbeat CPU 2 instructions: 920000000 cycles: 1356791408 heartbeat IPC: 0.635558 cumulative IPC: 0.556253 (Simulation time: 3 hr 53 min 14 sec) 
Heartbeat CPU 1 instructions: 870000002 cycles: 1361319627 heartbeat IPC: 0.508184 cumulative IPC: 0.540879 (Simulation time: 3 hr 53 min 54 sec) 
Heartbeat CPU 0 instructions: 860000000 cycles: 1362501048 heartbeat IPC: 0.496374 cumulative IPC: 0.470038 (Simulation time: 3 hr 54 min 5 sec) 
Heartbeat CPU 2 instructions: 930000003 cycles: 1372539132 heartbeat IPC: 0.635013 cumulative IPC: 0.557246 (Simulation time: 3 hr 55 min 32 sec) 
Heartbeat CPU 3 instructions: 900000000 cycles: 1373647546 heartbeat IPC: 0.503368 cumulative IPC: 0.483131 (Simulation time: 3 hr 55 min 42 sec) 
Heartbeat CPU 1 instructions: 880000000 cycles: 1380419849 heartbeat IPC: 0.523554 cumulative IPC: 0.540616 (Simulation time: 3 hr 56 min 41 sec) 
Heartbeat CPU 0 instructions: 870000002 cycles: 1382639404 heartbeat IPC: 0.496565 cumulative IPC: 0.470462 (Simulation time: 3 hr 57 min 1 sec) 
Heartbeat CPU 2 instructions: 940000000 cycles: 1388187984 heartbeat IPC: 0.639024 cumulative IPC: 0.558257 (Simulation time: 3 hr 57 min 49 sec) 
Heartbeat CPU 1 instructions: 890000000 cycles: 1398766754 heartbeat IPC: 0.545051 cumulative IPC: 0.54068 (Simulation time: 3 hr 59 min 21 sec) 
Heartbeat CPU 3 instructions: 910000003 cycles: 1399545261 heartbeat IPC: 0.386135 cumulative IPC: 0.481164 (Simulation time: 3 hr 59 min 28 sec) 
Heartbeat CPU 0 instructions: 880000000 cycles: 1402885345 heartbeat IPC: 0.493926 cumulative IPC: 0.470833 (Simulation time: 3 hr 59 min 56 sec) 
Heartbeat CPU 2 instructions: 950000000 cycles: 1404217749 heartbeat IPC: 0.623839 cumulative IPC: 0.559077 (Simulation time: 4 hr 0 min 8 sec) 
Heartbeat CPU 1 instructions: 900000000 cycles: 1417170382 heartbeat IPC: 0.543371 cumulative IPC: 0.540718 (Simulation time: 4 hr 2 min 0 sec) 
Heartbeat CPU 0 instructions: 890000000 cycles: 1423171995 heartbeat IPC: 0.492935 cumulative IPC: 0.471178 (Simulation time: 4 hr 2 min 49 sec) 
Heartbeat CPU 2 instructions: 960000000 cycles: 1423959188 heartbeat IPC: 0.506549 cumulative IPC: 0.55828 (Simulation time: 4 hr 2 min 55 sec) 
Heartbeat CPU 3 instructions: 920000000 cycles: 1426107660 heartbeat IPC: 0.376472 cumulative IPC: 0.479031 (Simulation time: 4 hr 3 min 12 sec) 
Heartbeat CPU 1 instructions: 910000000 cycles: 1435563629 heartbeat IPC: 0.543678 cumulative IPC: 0.54076 (Simulation time: 4 hr 4 min 29 sec) 
Heartbeat CPU 0 instructions: 900000000 cycles: 1443563654 heartbeat IPC: 0.490397 cumulative IPC: 0.471474 (Simulation time: 4 hr 5 min 34 sec) 
Heartbeat CPU 2 instructions: 970000002 cycles: 1449803708 heartbeat IPC: 0.386929 cumulative IPC: 0.554944 (Simulation time: 4 hr 6 min 25 sec) 
Heartbeat CPU 3 instructions: 930000002 cycles: 1452586909 heartbeat IPC: 0.377654 cumulative IPC: 0.477012 (Simulation time: 4 hr 6 min 48 sec) 
Heartbeat CPU 1 instructions: 920000000 cycles: 1453940854 heartbeat IPC: 0.544152 cumulative IPC: 0.540806 (Simulation time: 4 hr 6 min 59 sec) 
Heartbeat CPU 0 instructions: 910000002 cycles: 1463990837 heartbeat IPC: 0.489544 cumulative IPC: 0.47175 (Simulation time: 4 hr 8 min 21 sec) 
Heartbeat CPU 1 instructions: 930000002 cycles: 1472336216 heartbeat IPC: 0.543615 cumulative IPC: 0.540845 (Simulation time: 4 hr 9 min 27 sec) 
Heartbeat CPU 2 instructions: 980000000 cycles: 1475713164 heartbeat IPC: 0.385959 cumulative IPC: 0.551708 (Simulation time: 4 hr 9 min 53 sec) 
Heartbeat CPU 3 instructions: 940000000 cycles: 1482241867 heartbeat IPC: 0.337212 cumulative IPC: 0.473963 (Simulation time: 4 hr 10 min 41 sec) 
Heartbeat CPU 0 instructions: 920000000 cycles: 1485251576 heartbeat IPC: 0.47035 cumulative IPC: 0.471728 (Simulation time: 4 hr 11 min 4 sec) 
Heartbeat CPU 1 instructions: 940000000 cycles: 1490805088 heartbeat IPC: 0.541451 cumulative IPC: 0.540853 (Simulation time: 4 hr 11 min 48 sec) 
Heartbeat CPU 2 instructions: 990000001 cycles: 1499098147 heartbeat IPC: 0.427625 cumulative IPC: 0.5496 (Simulation time: 4 hr 12 min 52 sec) 
Heartbeat CPU 0 instructions: 930000002 cycles: 1509270355 heartbeat IPC: 0.416341 cumulative IPC: 0.470768 (Simulation time: 4 hr 14 min 14 sec) 
Heartbeat CPU 1 instructions: 950000001 cycles: 1509307026 heartbeat IPC: 0.540484 cumulative IPC: 0.540848 (Simulation time: 4 hr 14 min 14 sec) 
Heartbeat CPU 2 instructions: 1000000000 cycles: 1519581461 heartbeat IPC: 0.488202 cumulative IPC: 0.5487 (Simulation time: 4 hr 15 min 41 sec) 
Heartbeat CPU 3 instructions: 950000000 cycles: 1520153830 heartbeat IPC: 0.263769 cumulative IPC: 0.468261 (Simulation time: 4 hr 15 min 46 sec) 
Heartbeat CPU 1 instructions: 960000000 cycles: 1527806576 heartbeat IPC: 0.540554 cumulative IPC: 0.540844 (Simulation time: 4 hr 16 min 56 sec) 
Heartbeat CPU 0 instructions: 940000000 cycles: 1530088275 heartbeat IPC: 0.480355 cumulative IPC: 0.47091 (Simulation time: 4 hr 17 min 17 sec) 
Heartbeat CPU 2 instructions: 1010000002 cycles: 1538178563 heartbeat IPC: 0.537718 cumulative IPC: 0.548555 (Simulation time: 4 hr 18 min 30 sec) 
Heartbeat CPU 3 instructions: 960000000 cycles: 1538354595 heartbeat IPC: 0.549427 cumulative IPC: 0.469305 (Simulation time: 4 hr 18 min 32 sec) 
Heartbeat CPU 1 instructions: 970000002 cycles: 1546319000 heartbeat IPC: 0.540178 cumulative IPC: 0.540835 (Simulation time: 4 hr 19 min 44 sec) 
Heartbeat CPU 0 instructions: 950000000 cycles: 1549751134 heartbeat IPC: 0.508573 cumulative IPC: 0.471429 (Simulation time: 4 hr 20 min 15 sec) 
Heartbeat CPU 3 instructions: 970000003 cycles: 1555790432 heartbeat IPC: 0.573532 cumulative IPC: 0.470573 (Simulation time: 4 hr 21 min 10 sec) 
Heartbeat CPU 2 instructions: 1020000000 cycles: 1556718380 heartbeat IPC: 0.53938 cumulative IPC: 0.548437 (Simulation time: 4 hr 21 min 18 sec) 
Heartbeat CPU 1 instructions: 980000000 cycles: 1564945355 heartbeat IPC: 0.536874 cumulative IPC: 0.540784 (Simulation time: 4 hr 22 min 34 sec) 
Heartbeat CPU 0 instructions: 960000000 cycles: 1569598653 heartbeat IPC: 0.503841 cumulative IPC: 0.471874 (Simulation time: 4 hr 23 min 16 sec) 
Heartbeat CPU 3 instructions: 980000000 cycles: 1574019122 heartbeat IPC: 0.548586 cumulative IPC: 0.471553 (Simulation time: 4 hr 23 min 54 sec) 
Heartbeat CPU 2 instructions: 1030000001 cycles: 1574806023 heartbeat IPC: 0.552864 cumulative IPC: 0.548492 (Simulation time: 4 hr 24 min 1 sec) 
Heartbeat CPU 1 instructions: 990000000 cycles: 1584238384 heartbeat IPC: 0.518322 cumulative IPC: 0.540488 (Simulation time: 4 hr 25 min 22 sec) 
Heartbeat CPU 0 instructions: 970000003 cycles: 1590353865 heartbeat IPC: 0.481807 cumulative IPC: 0.472014 (Simulation time: 4 hr 26 min 21 sec) 
Heartbeat CPU 3 instructions: 990000001 cycles: 1593349543 heartbeat IPC: 0.517319 cumulative IPC: 0.472154 (Simulation time: 4 hr 26 min 49 sec) 
Heartbeat CPU 2 instructions: 1040000000 cycles: 1593458302 heartbeat IPC: 0.536127 cumulative IPC: 0.548335 (Simulation time: 4 hr 26 min 50 sec) 
Heartbeat CPU 1 instructions: 1000000000 cycles: 1597575527 heartbeat IPC: 0.749786 cumulative IPC: 0.54238 (Simulation time: 4 hr 27 min 29 sec) 
Heartbeat CPU 0 instructions: 980000000 cycles: 1610116401 heartbeat IPC: 0.506008 cumulative IPC: 0.472466 (Simulation time: 4 hr 29 min 30 sec) 
Heartbeat CPU 1 instructions: 1010000000 cycles: 1610577200 heartbeat IPC: 0.769132 cumulative IPC: 0.544362 (Simulation time: 4 hr 29 min 35 sec) 
Heartbeat CPU 3 instructions: 1000000000 cycles: 1610995774 heartbeat IPC: 0.566693 cumulative IPC: 0.473275 (Simulation time: 4 hr 29 min 40 sec) 
Heartbeat CPU 2 instructions: 1050000001 cycles: 1611028000 heartbeat IPC: 0.569162 cumulative IPC: 0.548581 (Simulation time: 4 hr 29 min 40 sec) 
Heartbeat CPU 1 instructions: 1020000000 cycles: 1623577074 heartbeat IPC: 0.769238 cumulative IPC: 0.546309 (Simulation time: 4 hr 31 min 41 sec) 
Heartbeat CPU 3 instructions: 1010000001 cycles: 1628617026 heartbeat IPC: 0.567497 cumulative IPC: 0.474377 (Simulation time: 4 hr 32 min 29 sec) 
Heartbeat CPU 2 instructions: 1060000000 cycles: 1628685930 heartbeat IPC: 0.566318 cumulative IPC: 0.548789 (Simulation time: 4 hr 32 min 29 sec) 
Heartbeat CPU 0 instructions: 990000003 cycles: 1629947781 heartbeat IPC: 0.504251 cumulative IPC: 0.472884 (Simulation time: 4 hr 32 min 41 sec) 
Heartbeat CPU 1 instructions: 1030000000 cycles: 1637256780 heartbeat IPC: 0.73101 cumulative IPC: 0.547977 (Simulation time: 4 hr 33 min 51 sec) 
Heartbeat CPU 3 instructions: 1020000000 cycles: 1646250925 heartbeat IPC: 0.567089 cumulative IPC: 0.47545 (Simulation time: 4 hr 35 min 18 sec) 
Heartbeat CPU 2 instructions: 1070000003 cycles: 1646480001 heartbeat IPC: 0.561985 cumulative IPC: 0.548943 (Simulation time: 4 hr 35 min 20 sec) 
Heartbeat CPU 0 instructions: 1000000000 cycles: 1649790315 heartbeat IPC: 0.503968 cumulative IPC: 0.473288 (Simulation time: 4 hr 35 min 52 sec) 
Heartbeat CPU 1 instructions: 1040000000 cycles: 1650668519 heartbeat IPC: 0.745615 cumulative IPC: 0.549712 (Simulation time: 4 hr 36 min 0 sec) 
Heartbeat CPU 1 instructions: 1050000001 cycles: 1663979190 heartbeat IPC: 0.751277 cumulative IPC: 0.551453 (Simulation time: 4 hr 38 min 7 sec) 
Heartbeat CPU 2 instructions: 1080000000 cycles: 1664445809 heartbeat IPC: 0.556613 cumulative IPC: 0.549032 (Simulation time: 4 hr 38 min 12 sec) 
Heartbeat CPU 3 instructions: 1030000001 cycles: 1667006944 heartbeat IPC: 0.481788 cumulative IPC: 0.475535 (Simulation time: 4 hr 38 min 36 sec) 
Heartbeat CPU 0 instructions: 1010000002 cycles: 1669833945 heartbeat IPC: 0.498912 cumulative IPC: 0.47362 (Simulation time: 4 hr 39 min 2 sec) 
Heartbeat CPU 1 instructions: 1060000000 cycles: 1676931638 heartbeat IPC: 0.772055 cumulative IPC: 0.553291 (Simulation time: 4 hr 40 min 10 sec) 
Heartbeat CPU 2 instructions: 1090000001 cycles: 1682446153 heartbeat IPC: 0.555545 cumulative IPC: 0.549108 (Simulation time: 4 hr 41 min 2 sec) 
Heartbeat CPU 3 instructions: 1040000000 cycles: 1687045820 heartbeat IPC: 0.49903 cumulative IPC: 0.475836 (Simulation time: 4 hr 41 min 45 sec) 
Heartbeat CPU 0 instructions: 1020000000 cycles: 1689700833 heartbeat IPC: 0.50335 cumulative IPC: 0.473997 (Simulation time: 4 hr 42 min 10 sec) 
Heartbeat CPU 1 instructions: 1070000002 cycles: 1690180059 heartbeat IPC: 0.754807 cumulative IPC: 0.554994 (Simulation time: 4 hr 42 min 15 sec) 
Heartbeat CPU 2 instructions: 1100000000 cycles: 1700546337 heartbeat IPC: 0.552481 cumulative IPC: 0.549146 (Simulation time: 4 hr 43 min 53 sec) 
Heartbeat CPU 1 instructions: 1080000000 cycles: 1703844509 heartbeat IPC: 0.731826 cumulative IPC: 0.556522 (Simulation time: 4 hr 44 min 24 sec) 
Heartbeat CPU 3 instructions: 1050000003 cycles: 1706995993 heartbeat IPC: 0.501249 cumulative IPC: 0.476156 (Simulation time: 4 hr 44 min 54 sec) 
Heartbeat CPU 0 instructions: 1030000000 cycles: 1709646217 heartbeat IPC: 0.501369 cumulative IPC: 0.474341 (Simulation time: 4 hr 45 min 18 sec) 
Heartbeat CPU 1 instructions: 1090000000 cycles: 1717262240 heartbeat IPC: 0.745282 cumulative IPC: 0.55811 (Simulation time: 4 hr 46 min 31 sec) 
Heartbeat CPU 2 instructions: 1110000001 cycles: 1718569138 heartbeat IPC: 0.554853 cumulative IPC: 0.549211 (Simulation time: 4 hr 46 min 43 sec) 
Heartbeat CPU 3 instructions: 1060000000 cycles: 1726979270 heartbeat IPC: 0.500418 cumulative IPC: 0.476459 (Simulation time: 4 hr 48 min 3 sec) 
Heartbeat CPU 0 instructions: 1040000000 cycles: 1729302923 heartbeat IPC: 0.508732 cumulative IPC: 0.474761 (Simulation time: 4 hr 48 min 24 sec) 
Heartbeat CPU 1 instructions: 1100000000 cycles: 1730639046 heartbeat IPC: 0.747563 cumulative IPC: 0.559686 (Simulation time: 4 hr 48 min 36 sec) 
Heartbeat CPU 2 instructions: 1120000000 cycles: 1736425880 heartbeat IPC: 0.560013 cumulative IPC: 0.54933 (Simulation time: 4 hr 49 min 29 sec) 
Heartbeat CPU 1 instructions: 1110000002 cycles: 1743843566 heartbeat IPC: 0.757317 cumulative IPC: 0.561296 (Simulation time: 4 hr 50 min 34 sec) 
Heartbeat CPU 3 instructions: 1070000001 cycles: 1747382279 heartbeat IPC: 0.490124 cumulative IPC: 0.47663 (Simulation time: 4 hr 51 min 3 sec) 
Heartbeat CPU 0 instructions: 1050000001 cycles: 1750772510 heartbeat IPC: 0.465775 cumulative IPC: 0.474643 (Simulation time: 4 hr 51 min 34 sec) 
Heartbeat CPU 2 instructions: 1130000000 cycles: 1754576713 heartbeat IPC: 0.550939 cumulative IPC: 0.549348 (Simulation time: 4 hr 52 min 12 sec) 
Heartbeat CPU 1 instructions: 1120000000 cycles: 1757058250 heartbeat IPC: 0.756734 cumulative IPC: 0.562876 (Simulation time: 4 hr 52 min 39 sec) 
Heartbeat CPU 3 instructions: 1080000000 cycles: 1768587890 heartbeat IPC: 0.471573 cumulative IPC: 0.476565 (Simulation time: 4 hr 54 min 33 sec) 
Heartbeat CPU 1 instructions: 1130000000 cycles: 1770504142 heartbeat IPC: 0.743722 cumulative IPC: 0.564352 (Simulation time: 4 hr 54 min 54 sec) 
Heartbeat CPU 0 instructions: 1060000000 cycles: 1772326031 heartbeat IPC: 0.463961 cumulative IPC: 0.474503 (Simulation time: 4 hr 55 min 12 sec) 
Heartbeat CPU 2 instructions: 1140000000 cycles: 1772966350 heartbeat IPC: 0.543784 cumulative IPC: 0.549286 (Simulation time: 4 hr 55 min 21 sec) 
Heartbeat CPU 1 instructions: 1140000000 cycles: 1784227559 heartbeat IPC: 0.728682 cumulative IPC: 0.565709 (Simulation time: 4 hr 57 min 20 sec) 
Heartbeat CPU 3 instructions: 1090000003 cycles: 1788978708 heartbeat IPC: 0.490417 cumulative IPC: 0.476735 (Simulation time: 4 hr 58 min 12 sec) 
Heartbeat CPU 0 instructions: 1070000000 cycles: 1789388221 heartbeat IPC: 0.586091 cumulative IPC: 0.475646 (Simulation time: 4 hr 58 min 16 sec) 
Heartbeat CPU 2 instructions: 1150000000 cycles: 1790537014 heartbeat IPC: 0.56913 cumulative IPC: 0.549495 (Simulation time: 4 hr 58 min 27 sec) 
Heartbeat CPU 1 instructions: 1150000000 cycles: 1797675615 heartbeat IPC: 0.743602 cumulative IPC: 0.567137 (Simulation time: 4 hr 59 min 39 sec) 
Heartbeat CPU 0 instructions: 1080000000 cycles: 1806324642 heartbeat IPC: 0.590443 cumulative IPC: 0.4768 (Simulation time: 5 hr 1 min 10 sec) 
Heartbeat CPU 3 instructions: 1100000000 cycles: 1806559879 heartbeat IPC: 0.56879 cumulative IPC: 0.477696 (Simulation time: 5 hr 1 min 13 sec) 
Heartbeat CPU 2 instructions: 1160000000 cycles: 1807289469 heartbeat IPC: 0.596927 cumulative IPC: 0.549967 (Simulation time: 5 hr 1 min 21 sec) 
Heartbeat CPU 1 instructions: 1160000000 cycles: 1811051252 heartbeat IPC: 0.747628 cumulative IPC: 0.568567 (Simulation time: 5 hr 2 min 4 sec) 
Heartbeat CPU 3 instructions: 1110000001 cycles: 1820592727 heartbeat IPC: 0.712614 cumulative IPC: 0.479637 (Simulation time: 5 hr 3 min 43 sec) 
Heartbeat CPU 0 instructions: 1090000001 cycles: 1823665679 heartbeat IPC: 0.576667 cumulative IPC: 0.477818 (Simulation time: 5 hr 4 min 15 sec) 
Heartbeat CPU 1 instructions: 1170000002 cycles: 1824456671 heartbeat IPC: 0.745967 cumulative IPC: 0.569964 (Simulation time: 5 hr 4 min 23 sec) 
Heartbeat CPU 2 instructions: 1170000000 cycles: 1824727582 heartbeat IPC: 0.573457 cumulative IPC: 0.550207 (Simulation time: 5 hr 4 min 26 sec) 
Heartbeat CPU 3 instructions: 1120000000 cycles: 1835042432 heartbeat IPC: 0.692056 cumulative IPC: 0.481429 (Simulation time: 5 hr 6 min 8 sec) 
Heartbeat CPU 1 instructions: 1180000000 cycles: 1837608545 heartbeat IPC: 0.760348 cumulative IPC: 0.571424 (Simulation time: 5 hr 6 min 30 sec) 
Heartbeat CPU 2 instructions: 1180000000 cycles: 1842669113 heartbeat IPC: 0.557366 cumulative IPC: 0.550282 (Simulation time: 5 hr 7 min 13 sec) 
Heartbeat CPU 0 instructions: 1100000000 cycles: 1843036120 heartbeat IPC: 0.51625 cumulative IPC: 0.478251 (Simulation time: 5 hr 7 min 16 sec) 
Heartbeat CPU 3 instructions: 1130000002 cycles: 1850678251 heartbeat IPC: 0.639557 cumulative IPC: 0.48286 (Simulation time: 5 hr 8 min 24 sec) 
Heartbeat CPU 1 instructions: 1190000002 cycles: 1850899127 heartbeat IPC: 0.752413 cumulative IPC: 0.572816 (Simulation time: 5 hr 8 min 26 sec) 
Heartbeat CPU 2 instructions: 1190000001 cycles: 1860394275 heartbeat IPC: 0.56417 cumulative IPC: 0.550424 (Simulation time: 5 hr 9 min 50 sec) 
Heartbeat CPU 1 instructions: 1200000000 cycles: 1864553744 heartbeat IPC: 0.732353 cumulative IPC: 0.574067 (Simulation time: 5 hr 10 min 27 sec) 
Finished CPU 1 instructions: 1000000000 cycles: 1741958025 cumulative IPC: 0.574067 (Simulation time: 5 hr 10 min 27 sec) 
Heartbeat CPU 3 instructions: 1140000000 cycles: 1865464228 heartbeat IPC: 0.676316 cumulative IPC: 0.484501 (Simulation time: 5 hr 10 min 35 sec) 
Heartbeat CPU 0 instructions: 1110000002 cycles: 1874599703 heartbeat IPC: 0.316821 cumulative IPC: 0.475343 (Simulation time: 5 hr 11 min 57 sec) 
Heartbeat CPU 2 instructions: 1200000000 cycles: 1877930770 heartbeat IPC: 0.570239 cumulative IPC: 0.550622 (Simulation time: 5 hr 12 min 26 sec) 
Heartbeat CPU 1 instructions: 1210000003 cycles: 1878186819 heartbeat IPC: 0.73351 cumulative IPC: 0.575305 (Simulation time: 5 hr 12 min 28 sec) 
Heartbeat CPU 3 instructions: 1150000003 cycles: 1880290949 heartbeat IPC: 0.674458 cumulative IPC: 0.486104 (Simulation time: 5 hr 12 min 47 sec) 
Heartbeat CPU 1 instructions: 1220000000 cycles: 1891489654 heartbeat IPC: 0.751719 cumulative IPC: 0.576632 (Simulation time: 5 hr 14 min 22 sec) 
Heartbeat CPU 3 instructions: 1160000000 cycles: 1895090678 heartbeat IPC: 0.675688 cumulative IPC: 0.487687 (Simulation time: 5 hr 14 min 51 sec) 
Heartbeat CPU 2 instructions: 1210000000 cycles: 1895459714 heartbeat IPC: 0.570485 cumulative IPC: 0.550818 (Simulation time: 5 hr 14 min 54 sec) 
Heartbeat CPU 1 instructions: 1230000001 cycles: 1904613299 heartbeat IPC: 0.761984 cumulative IPC: 0.577997 (Simulation time: 5 hr 16 min 13 sec) 
Heartbeat CPU 0 instructions: 1120000000 cycles: 1906506030 heartbeat IPC: 0.313417 cumulative IPC: 0.472447 (Simulation time: 5 hr 16 min 29 sec) 
Heartbeat CPU 3 instructions: 1170000003 cycles: 1911806832 heartbeat IPC: 0.598224 cumulative IPC: 0.488719 (Simulation time: 5 hr 17 min 13 sec) 
Heartbeat CPU 2 instructions: 1220000000 cycles: 1913099788 heartbeat IPC: 0.566891 cumulative IPC: 0.550977 (Simulation time: 5 hr 17 min 24 sec) 
Heartbeat CPU 1 instructions: 1240000000 cycles: 1917512906 heartbeat IPC: 0.775217 cumulative IPC: 0.579414 (Simulation time: 5 hr 17 min 58 sec) 
Heartbeat CPU 0 instructions: 1130000000 cycles: 1929510709 heartbeat IPC: 0.434694 cumulative IPC: 0.471966 (Simulation time: 5 hr 19 min 29 sec) 
Heartbeat CPU 3 instructions: 1180000000 cycles: 1932122849 heartbeat IPC: 0.492222 cumulative IPC: 0.488759 (Simulation time: 5 hr 19 min 47 sec) 
Heartbeat CPU 1 instructions: 1250000003 cycles: 1935521442 heartbeat IPC: 0.555292 cumulative IPC: 0.579174 (Simulation time: 5 hr 20 min 11 sec) 
Heartbeat CPU 2 instructions: 1230000000 cycles: 1938735845 heartbeat IPC: 0.390076 cumulative IPC: 0.548705 (Simulation time: 5 hr 20 min 33 sec) 
Finished CPU 2 instructions: 1000000001 cycles: 1825227450 cumulative IPC: 0.547877 (Simulation time: 5 hr 21 min 35 sec) 
Heartbeat CPU 0 instructions: 1140000000 cycles: 1949866733 heartbeat IPC: 0.491255 cumulative IPC: 0.472181 (Simulation time: 5 hr 21 min 49 sec) 
Heartbeat CPU 3 instructions: 1190000000 cycles: 1953762624 heartbeat IPC: 0.462112 cumulative IPC: 0.488444 (Simulation time: 5 hr 22 min 16 sec) 
Heartbeat CPU 1 instructions: 1260000000 cycles: 1956094903 heartbeat IPC: 0.486063 cumulative IPC: 0.57813 (Simulation time: 5 hr 22 min 32 sec) 
Heartbeat CPU 2 instructions: 1240000000 cycles: 1965074245 heartbeat IPC: 0.379674 cumulative IPC: 0.546289 (Simulation time: 5 hr 23 min 32 sec) 
Heartbeat CPU 0 instructions: 1150000000 cycles: 1969587950 heartbeat IPC: 0.507068 cumulative IPC: 0.472554 (Simulation time: 5 hr 24 min 4 sec) 
Heartbeat CPU 3 instructions: 1200000000 cycles: 1975278067 heartbeat IPC: 0.464782 cumulative IPC: 0.488169 (Simulation time: 5 hr 24 min 48 sec) 
Heartbeat CPU 1 instructions: 1270000001 cycles: 1983303294 heartbeat IPC: 0.367534 cumulative IPC: 0.57505 (Simulation time: 5 hr 25 min 50 sec) 
Heartbeat CPU 2 instructions: 1250000001 cycles: 1984992000 heartbeat IPC: 0.502065 cumulative IPC: 0.545816 (Simulation time: 5 hr 26 min 3 sec) 
Heartbeat CPU 0 instructions: 1160000000 cycles: 1986085288 heartbeat IPC: 0.606158 cumulative IPC: 0.473736 (Simulation time: 5 hr 26 min 12 sec) 
Heartbeat CPU 3 instructions: 1210000002 cycles: 1995508745 heartbeat IPC: 0.494299 cumulative IPC: 0.488235 (Simulation time: 5 hr 27 min 25 sec) 
Heartbeat CPU 0 instructions: 1170000001 cycles: 2002584388 heartbeat IPC: 0.606094 cumulative IPC: 0.474898 (Simulation time: 5 hr 28 min 21 sec) 
Heartbeat CPU 2 instructions: 1260000000 cycles: 2003776504 heartbeat IPC: 0.532354 cumulative IPC: 0.545682 (Simulation time: 5 hr 28 min 31 sec) 
Heartbeat CPU 3 instructions: 1220000000 cycles: 2015915732 heartbeat IPC: 0.490028 cumulative IPC: 0.488255 (Simulation time: 5 hr 30 min 6 sec) 
Heartbeat CPU 1 instructions: 1280000000 cycles: 2019468406 heartbeat IPC: 0.27651 cumulative IPC: 0.569358 (Simulation time: 5 hr 30 min 29 sec) 
Heartbeat CPU 2 instructions: 1270000001 cycles: 2022644052 heartbeat IPC: 0.530011 cumulative IPC: 0.545526 (Simulation time: 5 hr 30 min 51 sec) 
Heartbeat CPU 0 instructions: 1180000000 cycles: 2023040488 heartbeat IPC: 0.488852 cumulative IPC: 0.475048 (Simulation time: 5 hr 30 min 53 sec) 
Heartbeat CPU 3 instructions: 1230000003 cycles: 2036407758 heartbeat IPC: 0.487995 cumulative IPC: 0.488252 (Simulation time: 5 hr 32 min 24 sec) 
Heartbeat CPU 2 instructions: 1280000000 cycles: 2039354838 heartbeat IPC: 0.598416 cumulative IPC: 0.545987 (Simulation time: 5 hr 32 min 45 sec) 
Heartbeat CPU 1 instructions: 1290000000 cycles: 2042317198 heartbeat IPC: 0.43766 cumulative IPC: 0.567791 (Simulation time: 5 hr 33 min 10 sec) 
Heartbeat CPU 1 instructions: 1300000000 cycles: 2051638034 heartbeat IPC: 1.07287 cumulative IPC: 0.570231 (Simulation time: 5 hr 34 min 26 sec) 
Heartbeat CPU 2 instructions: 1290000002 cycles: 2056228995 heartbeat IPC: 0.592622 cumulative IPC: 0.546394 (Simulation time: 5 hr 35 min 3 sec) 
Heartbeat CPU 0 instructions: 1190000002 cycles: 2057583609 heartbeat IPC: 0.289493 cumulative IPC: 0.471736 (Simulation time: 5 hr 35 min 14 sec) 
Heartbeat CPU 3 instructions: 1240000000 cycles: 2058925419 heartbeat IPC: 0.444096 cumulative IPC: 0.487738 (Simulation time: 5 hr 35 min 26 sec) 
Heartbeat CPU 1 instructions: 1310000001 cycles: 2064562234 heartbeat IPC: 0.773742 cumulative IPC: 0.571586 (Simulation time: 5 hr 36 min 16 sec) 
Heartbeat CPU 2 instructions: 1300000000 cycles: 2071833802 heartbeat IPC: 0.640828 cumulative IPC: 0.54715 (Simulation time: 5 hr 37 min 19 sec) 
Heartbeat CPU 1 instructions: 1320000000 cycles: 2076137593 heartbeat IPC: 0.863904 cumulative IPC: 0.573318 (Simulation time: 5 hr 37 min 54 sec) 
Heartbeat CPU 2 instructions: 1310000001 cycles: 2088232383 heartbeat IPC: 0.609809 cumulative IPC: 0.547673 (Simulation time: 5 hr 39 min 28 sec) 
Heartbeat CPU 1 instructions: 1330000000 cycles: 2089355120 heartbeat IPC: 0.756571 cumulative IPC: 0.574549 (Simulation time: 5 hr 39 min 36 sec) 
Heartbeat CPU 0 instructions: 1200000000 cycles: 2091157178 heartbeat IPC: 0.297853 cumulative IPC: 0.46877 (Simulation time: 5 hr 39 min 50 sec) 
Heartbeat CPU 3 instructions: 1250000002 cycles: 2097596780 heartbeat IPC: 0.258589 cumulative IPC: 0.483252 (Simulation time: 5 hr 40 min 41 sec) 
Heartbeat CPU 1 instructions: 1340000000 cycles: 2102954915 heartbeat IPC: 0.735305 cumulative IPC: 0.575653 (Simulation time: 5 hr 41 min 28 sec) 
Heartbeat CPU 2 instructions: 1320000000 cycles: 2104554683 heartbeat IPC: 0.612659 cumulative IPC: 0.548208 (Simulation time: 5 hr 41 min 42 sec) 
Heartbeat CPU 0 instructions: 1210000003 cycles: 2113223166 heartbeat IPC: 0.453186 cumulative IPC: 0.468597 (Simulation time: 5 hr 42 min 56 sec) 
Heartbeat CPU 1 instructions: 1350000001 cycles: 2117102163 heartbeat IPC: 0.706851 cumulative IPC: 0.576584 (Simulation time: 5 hr 43 min 28 sec) 
Heartbeat CPU 2 instructions: 1330000003 cycles: 2122565842 heartbeat IPC: 0.555212 cumulative IPC: 0.548271 (Simulation time: 5 hr 44 min 14 sec) 
Heartbeat CPU 1 instructions: 1360000000 cycles: 2131390610 heartbeat IPC: 0.699866 cumulative IPC: 0.577461 (Simulation time: 5 hr 45 min 26 sec) 
Heartbeat CPU 0 instructions: 1220000000 cycles: 2134370082 heartbeat IPC: 0.472882 cumulative IPC: 0.468642 (Simulation time: 5 hr 45 min 51 sec) 
Heartbeat CPU 2 instructions: 1340000000 cycles: 2141176705 heartbeat IPC: 0.53732 cumulative IPC: 0.54817 (Simulation time: 5 hr 46 min 47 sec) 
Heartbeat CPU 3 instructions: 1260000000 cycles: 2145004169 heartbeat IPC: 0.210938 cumulative IPC: 0.476868 (Simulation time: 5 hr 47 min 19 sec) 
Heartbeat CPU 1 instructions: 1370000002 cycles: 2145845119 heartbeat IPC: 0.691826 cumulative IPC: 0.578278 (Simulation time: 5 hr 47 min 26 sec) 
Heartbeat CPU 0 instructions: 1230000001 cycles: 2154256983 heartbeat IPC: 0.502844 cumulative IPC: 0.468977 (Simulation time: 5 hr 48 min 40 sec) 
Heartbeat CPU 1 instructions: 1380000000 cycles: 2158005712 heartbeat IPC: 0.822328 cumulative IPC: 0.579736 (Simulation time: 5 hr 49 min 17 sec) 
Heartbeat CPU 2 instructions: 1350000001 cycles: 2158449980 heartbeat IPC: 0.578929 cumulative IPC: 0.548431 (Simulation time: 5 hr 49 min 21 sec) 
Heartbeat CPU 1 instructions: 1390000001 cycles: 2168068237 heartbeat IPC: 0.993786 cumulative IPC: 0.581773 (Simulation time: 5 hr 50 min 58 sec) 
Heartbeat CPU 0 instructions: 1240000000 cycles: 2170819143 heartbeat IPC: 0.603786 cumulative IPC: 0.470067 (Simulation time: 5 hr 51 min 26 sec) 
Heartbeat CPU 3 instructions: 1270000002 cycles: 2172264254 heartbeat IPC: 0.366837 cumulative IPC: 0.475405 (Simulation time: 5 hr 51 min 40 sec) 
Heartbeat CPU 2 instructions: 1360000000 cycles: 2174749884 heartbeat IPC: 0.6135 cumulative IPC: 0.548948 (Simulation time: 5 hr 52 min 5 sec) 
Heartbeat CPU 1 instructions: 1400000000 cycles: 2178885655 heartbeat IPC: 0.924435 cumulative IPC: 0.583575 (Simulation time: 5 hr 52 min 45 sec) 
Heartbeat CPU 0 instructions: 1250000002 cycles: 2187603191 heartbeat IPC: 0.595804 cumulative IPC: 0.471089 (Simulation time: 5 hr 54 min 8 sec) 
Heartbeat CPU 2 instructions: 1370000000 cycles: 2191024326 heartbeat IPC: 0.61446 cumulative IPC: 0.549463 (Simulation time: 5 hr 54 min 39 sec) 
Heartbeat CPU 1 instructions: 1410000000 cycles: 2191200372 heartbeat IPC: 0.812037 cumulative IPC: 0.584935 (Simulation time: 5 hr 54 min 41 sec) 
Heartbeat CPU 3 instructions: 1280000000 cycles: 2197714595 heartbeat IPC: 0.392922 cumulative IPC: 0.474393 (Simulation time: 5 hr 55 min 44 sec) 
Heartbeat CPU 1 instructions: 1420000000 cycles: 2200458878 heartbeat IPC: 1.08009 cumulative IPC: 0.587142 (Simulation time: 5 hr 56 min 9 sec) 
Heartbeat CPU 2 instructions: 1380000000 cycles: 2207287747 heartbeat IPC: 0.614877 cumulative IPC: 0.549974 (Simulation time: 5 hr 57 min 6 sec) 
Heartbeat CPU 0 instructions: 1260000000 cycles: 2209489363 heartbeat IPC: 0.456909 cumulative IPC: 0.47094 (Simulation time: 5 hr 57 min 24 sec) 
Heartbeat CPU 1 instructions: 1430000003 cycles: 2210217304 heartbeat IPC: 1.02476 cumulative IPC: 0.589187 (Simulation time: 5 hr 57 min 30 sec) 
Heartbeat CPU 3 instructions: 1290000002 cycles: 2223597511 heartbeat IPC: 0.386355 cumulative IPC: 0.473309 (Simulation time: 5 hr 59 min 6 sec) 
Heartbeat CPU 2 instructions: 1390000003 cycles: 2223716773 heartbeat IPC: 0.608679 cumulative IPC: 0.550433 (Simulation time: 5 hr 59 min 7 sec) 
Heartbeat CPU 1 instructions: 1440000000 cycles: 2230026744 heartbeat IPC: 0.50481 cumulative IPC: 0.588394 (Simulation time: 5 hr 59 min 51 sec) 
Finished CPU 3 instructions: 1000000000 cycles: 2115255967 cumulative IPC: 0.472756 (Simulation time: 6 hr 0 min 51 sec) 
Heartbeat CPU 2 instructions: 1400000000 cycles: 2240044747 heartbeat IPC: 0.612446 cumulative IPC: 0.550911 (Simulation time: 6 hr 1 min 7 sec) 
Heartbeat CPU 0 instructions: 1270000001 cycles: 2242733884 heartbeat IPC: 0.300801 cumulative IPC: 0.468273 (Simulation time: 6 hr 1 min 28 sec) 
Heartbeat CPU 3 instructions: 1300000000 cycles: 2248802857 heartbeat IPC: 0.396741 cumulative IPC: 0.472401 (Simulation time: 6 hr 2 min 17 sec) 
Heartbeat CPU 1 instructions: 1450000001 cycles: 2250274084 heartbeat IPC: 0.493892 cumulative IPC: 0.587495 (Simulation time: 6 hr 2 min 28 sec) 
Heartbeat CPU 2 instructions: 1410000002 cycles: 2255517424 heartbeat IPC: 0.646301 cumulative IPC: 0.551603 (Simulation time: 6 hr 3 min 10 sec) 
Finished CPU 0 instructions: 1000000002 cycles: 2142335962 cumulative IPC: 0.46678 (Simulation time: 6 hr 4 min 28 sec) 

CPU 0 Branch Prediction Accuracy: 99.7786% MPKI: 0.0258003

CPU 1 Branch Prediction Accuracy: 99.0442% MPKI: 0.878073

CPU 2 Branch Prediction Accuracy: 99.1446% MPKI: 0.207482

CPU 3 Branch Prediction Accuracy: 99.9996% MPKI: 0.000143497

ChampSim completed all CPUs

Total Simulation Statistics (not including warmup)

CPU 0 cumulative IPC: 0.46678 instructions: 1000000002 cycles: 2142335962
L1D TOTAL     ACCESS:  542254492  HIT:  527572453  MISS:   14682039
L1D LOAD      ACCESS:  480850624  HIT:  466344657  MISS:   14505967
L1D RFO       ACCESS:   61403868  HIT:   61227796  MISS:     176072
L1D PREFETCH  ACCESS:          0  HIT:          0  MISS:          0
L1D WRITEBACK ACCESS:          0  HIT:          0  MISS:          0
L1I TOTAL     ACCESS:  274461453  HIT:  274460430  MISS:       1023
L1I LOAD      ACCESS:  274461453  HIT:  274460430  MISS:       1023
L1I RFO       ACCESS:          0  HIT:          0  MISS:          0
L1I PREFETCH  ACCESS:          0  HIT:          0  MISS:          0
L1I WRITEBACK ACCESS:          0  HIT:          0  MISS:          0
L2C TOTAL     ACCESS:   19584637  HIT:   10790563  MISS:    8794074
L2C LOAD      ACCESS:   14506175  HIT:    5885126  MISS:    8621049
L2C RFO       ACCESS:     175980  HIT:       3508  MISS:     172472
L2C PREFETCH  ACCESS:          0  HIT:          0  MISS:          0
L2C WRITEBACK ACCESS:    4902482  HIT:    4901929  MISS:        553
LLC TOTAL     ACCESS:   12739744  HIT:    5244094  MISS:    7495650
LLC LOAD      ACCESS:    8621033  HIT:    1200844  MISS:    7420189
LLC RFO       ACCESS:     172472  HIT:     135115  MISS:      37357
LLC PREFETCH  ACCESS:          0  HIT:          0  MISS:          0
LLC WRITEBACK ACCESS:    3946239  HIT:    3908135  MISS:      38104

CPU 1 cumulative IPC: 0.587871 instructions: 1259417388 cycles: 2142335962
L1D TOTAL     ACCESS:  353006156  HIT:  343705740  MISS:    9300416
L1D LOAD      ACCESS:  213363167  HIT:  207613808  MISS:    5749359
L1D RFO       ACCESS:  139642989  HIT:  136091932  MISS:    3551057
L1D PREFETCH  ACCESS:          0  HIT:          0  MISS:          0
L1D WRITEBACK ACCESS:          0  HIT:          0  MISS:          0
L1I TOTAL     ACCESS:  400373209  HIT:  399831526  MISS:     541683
L1I LOAD      ACCESS:  400373209  HIT:  399831526  MISS:     541683
L1I RFO       ACCESS:          0  HIT:          0  MISS:          0
L1I PREFETCH  ACCESS:          0  HIT:          0  MISS:          0
L1I WRITEBACK ACCESS:          0  HIT:          0  MISS:          0
L2C TOTAL     ACCESS:   14585822  HIT:   10377423  MISS:    4208399
L2C LOAD      ACCESS:    6290999  HIT:    3410838  MISS:    2880161
L2C RFO       ACCESS:    3546565  HIT:    2221029  MISS:    1325536
L2C PREFETCH  ACCESS:          0  HIT:          0  MISS:          0
L2C WRITEBACK ACCESS:    4748258  HIT:    4745556  MISS:       2702
LLC TOTAL     ACCESS:    6595908  HIT:    3019901  MISS:    3576007
LLC LOAD      ACCESS:    2880142  HIT:     421618  MISS:    2458524
LLC RFO       ACCESS:    1325536  HIT:     332925  MISS:     992611
LLC PREFETCH  ACCESS:          0  HIT:          0  MISS:          0
LLC WRITEBACK ACCESS:    2390230  HIT:    2265358  MISS:     124872

CPU 2 cumulative IPC: 0.552046 instructions: 1182669117 cycles: 2142335963
L1D TOTAL     ACCESS:  357820363  HIT:  344285661  MISS:   13534702
L1D LOAD      ACCESS:  325208850  HIT:  314881921  MISS:   10326929
L1D RFO       ACCESS:   32611513  HIT:   29403740  MISS:    3207773
L1D PREFETCH  ACCESS:          0  HIT:          0  MISS:          0
L1D WRITEBACK ACCESS:          0  HIT:          0  MISS:          0
L1I TOTAL     ACCESS:  279002652  HIT:  279001902  MISS:        750
L1I LOAD      ACCESS:  279002652  HIT:  279001902  MISS:        750
L1I RFO       ACCESS:          0  HIT:          0  MISS:          0
L1I PREFETCH  ACCESS:          0  HIT:          0  MISS:          0
L1I WRITEBACK ACCESS:          0  HIT:          0  MISS:          0
L2C TOTAL     ACCESS:   17812971  HIT:    8321182  MISS:    9491789
L2C LOAD      ACCESS:   10327618  HIT:    2851199  MISS:    7476419
L2C RFO       ACCESS:    3206696  HIT:    1195467  MISS:    2011229
L2C PREFETCH  ACCESS:          0  HIT:          0  MISS:          0
L2C WRITEBACK ACCESS:    4278657  HIT:    4274516  MISS:       4141
LLC TOTAL     ACCESS:   12183176  HIT:    4345935  MISS:    7837241
LLC LOAD      ACCESS:    7476419  HIT:    1415708  MISS:    6060711
LLC RFO       ACCESS:    2011229  HIT:     265215  MISS:    1746014
LLC PREFETCH  ACCESS:          0  HIT:          0  MISS:          0
LLC WRITEBACK ACCESS:    2695528  HIT:    2665012  MISS:      30516

CPU 3 cumulative IPC: 0.472594 instructions: 1012455674 cycles: 2142335963
L1D TOTAL     ACCESS:  130770418  HIT:  107070983  MISS:   23699435
L1D LOAD      ACCESS:   89929328  HIT:   73867450  MISS:   16061878
L1D RFO       ACCESS:   40841090  HIT:   33203533  MISS:    7637557
L1D PREFETCH  ACCESS:          0  HIT:          0  MISS:          0
L1D WRITEBACK ACCESS:          0  HIT:          0  MISS:          0
L1I TOTAL     ACCESS:  240594630  HIT:  240594612  MISS:         18
L1I LOAD      ACCESS:  240594630  HIT:  240594612  MISS:         18
L1I RFO       ACCESS:          0  HIT:          0  MISS:          0
L1I PREFETCH  ACCESS:          0  HIT:          0  MISS:          0
L1I WRITEBACK ACCESS:          0  HIT:          0  MISS:          0
L2C TOTAL     ACCESS:   32777043  HIT:    9079610  MISS:   23697433
L2C LOAD      ACCESS:   16061895  HIT:       2012  MISS:   16059883
L2C RFO       ACCESS:    7637557  HIT:         21  MISS:    7637536
L2C PREFETCH  ACCESS:          0  HIT:          0  MISS:          0
L2C WRITEBACK ACCESS:    9077591  HIT:    9077577  MISS:         14
LLC TOTAL     ACCESS:   32774637  HIT:    9111439  MISS:   23663198
LLC LOAD      ACCESS:   16059883  HIT:      25470  MISS:   16034413
LLC RFO       ACCESS:    7637536  HIT:      11675  MISS:    7625861
LLC PREFETCH  ACCESS:          0  HIT:          0  MISS:          0
LLC WRITEBACK ACCESS:    9077218  HIT:    9074294  MISS:       2924

Region of Interest Statistics

CPU 0 cumulative IPC: 0.46678 instructions: 1000000002 cycles: 2142335962
L1D TOTAL     ACCESS:  542254492  HIT:  527572453  MISS:   14682039
L1D LOAD      ACCESS:  480850624  HIT:  466344657  MISS:   14505967
L1D RFO       ACCESS:   61403868  HIT:   61227796  MISS:     176072
L1D PREFETCH  ACCESS:          0  HIT:          0  MISS:          0
L1D WRITEBACK ACCESS:          0  HIT:          0  MISS:          0
L1D PREFETCH  REQUESTED:          0  ISSUED:          0  USEFUL:          0  USELESS:          0
L1I TOTAL     ACCESS:  274461453  HIT:  274460430  MISS:       1023
L1I LOAD      ACCESS:  274461453  HIT:  274460430  MISS:       1023
L1I RFO       ACCESS:          0  HIT:          0  MISS:          0
L1I PREFETCH  ACCESS:          0  HIT:          0  MISS:          0
L1I WRITEBACK ACCESS:          0  HIT:          0  MISS:          0
L1I PREFETCH  REQUESTED:          0  ISSUED:          0  USEFUL:          0  USELESS:          0
L2C TOTAL     ACCESS:   19584637  HIT:   10790563  MISS:    8794074
L2C LOAD      ACCESS:   14506175  HIT:    5885126  MISS:    8621049
L2C RFO       ACCESS:     175980  HIT:       3508  MISS:     172472
L2C PREFETCH  ACCESS:          0  HIT:          0  MISS:          0
L2C WRITEBACK ACCESS:    4902482  HIT:    4901929  MISS:        553
L2C PREFETCH  REQUESTED:          0  ISSUED:          0  USEFUL:          0  USELESS:          0
LLC TOTAL     ACCESS:   12739744  HIT:    5244094  MISS:    7495650
LLC LOAD      ACCESS:    8621033  HIT:    1200844  MISS:    7420189
LLC RFO       ACCESS:     172472  HIT:     135115  MISS:      37357
LLC PREFETCH  ACCESS:          0  HIT:          0  MISS:          0
LLC WRITEBACK ACCESS:    3946239  HIT:    3908135  MISS:      38104
LLC PREFETCH  REQUESTED:          0  ISSUED:          0  USEFUL:          0  USELESS:          0
Major fault: 0 Minor fault: 179114

CPU 1 cumulative IPC: 0.574067 instructions: 1000000000 cycles: 1741958025
L1D TOTAL     ACCESS:  290246091  HIT:  283277790  MISS:    6968301
L1D LOAD      ACCESS:  168441982  HIT:  164665396  MISS:    3776586
L1D RFO       ACCESS:  121804109  HIT:  118612394  MISS:    3191715
L1D PREFETCH  ACCESS:          0  HIT:          0  MISS:          0
L1D WRITEBACK ACCESS:          0  HIT:          0  MISS:          0
L1D PREFETCH  REQUESTED:          0  ISSUED:          0  USEFUL:          0  USELESS:          0
L1I TOTAL     ACCESS:  337869308  HIT:  337341128  MISS:     528180
L1I LOAD      ACCESS:  337869308  HIT:  337341128  MISS:     528180
L1I RFO       ACCESS:          0  HIT:          0  MISS:          0
L1I PREFETCH  ACCESS:          0  HIT:          0  MISS:          0
L1I WRITEBACK ACCESS:          0  HIT:          0  MISS:          0
L1I PREFETCH  REQUESTED:          0  ISSUED:          0  USEFUL:          0  USELESS:          0
L2C TOTAL     ACCESS:   11253455  HIT:    8533448  MISS:    2720007
L2C LOAD      ACCESS:    4304725  HIT:    2686519  MISS:    1618206
L2C RFO       ACCESS:    3187259  HIT:    2086328  MISS:    1100931
L2C PREFETCH  ACCESS:          0  HIT:          0  MISS:          0
L2C WRITEBACK ACCESS:    3761471  HIT:    3760601  MISS:        870
L2C PREFETCH  REQUESTED:          0  ISSUED:          0  USEFUL:          0  USELESS:          0
LLC TOTAL     ACCESS:    4302274  HIT:    2014310  MISS:    2287964
LLC LOAD      ACCESS:    1618188  HIT:     267824  MISS:    1350364
LLC RFO       ACCESS:    1100931  HIT:     274442  MISS:     826489
LLC PREFETCH  ACCESS:          0  HIT:          0  MISS:          0
LLC WRITEBACK ACCESS:    1583155  HIT:    1472044  MISS:     111111
LLC PREFETCH  REQUESTED:          0  ISSUED:          0  USEFUL:          0  USELESS:          0
Major fault: 0 Minor fault: 28532

CPU 2 cumulative IPC: 0.547877 instructions: 1000000001 cycles: 1825227450
L1D TOTAL     ACCESS:  300728840  HIT:  289601890  MISS:   11126950
L1D LOAD      ACCESS:  274038302  HIT:  265647412  MISS:    8390890
L1D RFO       ACCESS:   26690538  HIT:   23954478  MISS:    2736060
L1D PREFETCH  ACCESS:          0  HIT:          0  MISS:          0
L1D WRITEBACK ACCESS:          0  HIT:          0  MISS:          0
L1D PREFETCH  REQUESTED:          0  ISSUED:          0  USEFUL:          0  USELESS:          0
L1I TOTAL     ACCESS:  236582852  HIT:  236582184  MISS:        668
L1I LOAD      ACCESS:  236582852  HIT:  236582184  MISS:        668
L1I RFO       ACCESS:          0  HIT:          0  MISS:          0
L1I PREFETCH  ACCESS:          0  HIT:          0  MISS:          0
L1I WRITEBACK ACCESS:          0  HIT:          0  MISS:          0
L1I PREFETCH  REQUESTED:          0  ISSUED:          0  USEFUL:          0  USELESS:          0
L2C TOTAL     ACCESS:   14712484  HIT:    6577942  MISS:    8134542
L2C LOAD      ACCESS:    8391506  HIT:    2108339  MISS:    6283167
L2C RFO       ACCESS:    2735574  HIT:     886538  MISS:    1849036
L2C PREFETCH  ACCESS:          0  HIT:          0  MISS:          0
L2C WRITEBACK ACCESS:    3585404  HIT:    3583065  MISS:       2339
L2C PREFETCH  REQUESTED:          0  ISSUED:          0  USEFUL:          0  USELESS:          0
LLC TOTAL     ACCESS:   10496352  HIT:    3595830  MISS:    6900522
LLC LOAD      ACCESS:    6283167  HIT:    1057666  MISS:    5225501
LLC RFO       ACCESS:    1849036  HIT:     194799  MISS:    1654237
LLC PREFETCH  ACCESS:          0  HIT:          0  MISS:          0
LLC WRITEBACK ACCESS:    2364149  HIT:    2343365  MISS:      20784
LLC PREFETCH  REQUESTED:          0  ISSUED:          0  USEFUL:          0  USELESS:          0
Major fault: 0 Minor fault: 19825

CPU 3 cumulative IPC: 0.472756 instructions: 1000000000 cycles: 2115255967
L1D TOTAL     ACCESS:  128569483  HIT:  105120599  MISS:   23448884
L1D LOAD      ACCESS:   88344180  HIT:   72467089  MISS:   15877091
L1D RFO       ACCESS:   40225303  HIT:   32653510  MISS:    7571793
L1D PREFETCH  ACCESS:          0  HIT:          0  MISS:          0
L1D WRITEBACK ACCESS:          0  HIT:          0  MISS:          0
L1D PREFETCH  REQUESTED:          0  ISSUED:          0  USEFUL:          0  USELESS:          0
L1I TOTAL     ACCESS:  237603406  HIT:  237603388  MISS:         18
L1I LOAD      ACCESS:  237603406  HIT:  237603388  MISS:         18
L1I RFO       ACCESS:          0  HIT:          0  MISS:          0
L1I PREFETCH  ACCESS:          0  HIT:          0  MISS:          0
L1I WRITEBACK ACCESS:          0  HIT:          0  MISS:          0
L1I PREFETCH  REQUESTED:          0  ISSUED:          0  USEFUL:          0  USELESS:          0
L2C TOTAL     ACCESS:   32430304  HIT:    8983399  MISS:   23446905
L2C LOAD      ACCESS:   15877108  HIT:       1995  MISS:   15875113
L2C RFO       ACCESS:    7571793  HIT:         14  MISS:    7571779
L2C PREFETCH  ACCESS:          0  HIT:          0  MISS:          0
L2C WRITEBACK ACCESS:    8981403  HIT:    8981390  MISS:         13
L2C PREFETCH  REQUESTED:          0  ISSUED:          0  USEFUL:          0  USELESS:          0
LLC TOTAL     ACCESS:   32430698  HIT:    9015366  MISS:   23415332
LLC LOAD      ACCESS:   15875113  HIT:      24812  MISS:   15850301
LLC RFO       ACCESS:    7571779  HIT:       9656  MISS:    7562123
LLC PREFETCH  ACCESS:          0  HIT:          0  MISS:          0
LLC WRITEBACK ACCESS:    8983806  HIT:    8980898  MISS:       2908
LLC PREFETCH  REQUESTED:          0  ISSUED:          0  USEFUL:          0  USELESS:          0
Major fault: 0 Minor fault: 92532

DRAM Statistics
 CHANNEL 0
 RQ ROW_BUFFER_HIT:   11144988  ROW_BUFFER_MISS:    9897076
 DBUS_CONGESTED:   24744892
 WQ ROW_BUFFER_HIT:    1382211  ROW_BUFFER_MISS:    6699166  FULL:          0

 CHANNEL 1
 RQ ROW_BUFFER_HIT:   11218644  ROW_BUFFER_MISS:   10114466
 DBUS_CONGESTED:   24744892
 WQ ROW_BUFFER_HIT:    1620249  ROW_BUFFER_MISS:    7421249  FULL:          0

 AVG_CONGESTED_CYCLE: 13
