
*** ChampSim Multicore Out-of-Order Simulator ***

Warmup Instructions: 200000000
Simulation Instructions: 1000000000
Number of CPUs: 4
LLC sets: 8192
LLC ways: 16
Off-chip DRAM Size: 8192 MB Channels: 2 Width: 64-bit Data Rate: 1600 MT/s

CPU 0 runs /scratch/user/djimenez/champsim-traces/speccpu2006/xz//462.libquantum-1343B.champsimtrace.xz
CPU 1 runs /scratch/user/djimenez/champsim-traces/speccpu2006/xz//434.zeusmp-10B.champsimtrace.xz
CPU 2 runs /scratch/user/djimenez/champsim-traces/speccpu2006/xz//470.lbm-1274B.champsimtrace.xz
CPU 3 runs /scratch/user/djimenez/champsim-traces/speccpu2006/xz//462.libquantum-714B.champsimtrace.xz
Heartbeat CPU 2 instructions: 10000003 cycles: 3766091 heartbeat IPC: 2.65527 cumulative IPC: 2.65527 (Simulation time: 0 hr 1 min 26 sec) 
Heartbeat CPU 1 instructions: 10000003 cycles: 4294045 heartbeat IPC: 2.32881 cumulative IPC: 2.32881 (Simulation time: 0 hr 1 min 39 sec) 
Heartbeat CPU 0 instructions: 10000000 cycles: 4525686 heartbeat IPC: 2.20961 cumulative IPC: 2.20961 (Simulation time: 0 hr 1 min 44 sec) 
Heartbeat CPU 3 instructions: 10000000 cycles: 4660146 heartbeat IPC: 2.14586 cumulative IPC: 2.14586 (Simulation time: 0 hr 1 min 47 sec) 
Heartbeat CPU 2 instructions: 20000000 cycles: 7527612 heartbeat IPC: 2.6585 cumulative IPC: 2.65689 (Simulation time: 0 hr 2 min 57 sec) 
Heartbeat CPU 1 instructions: 20000000 cycles: 8665236 heartbeat IPC: 2.28771 cumulative IPC: 2.30807 (Simulation time: 0 hr 3 min 24 sec) 
Heartbeat CPU 0 instructions: 20000000 cycles: 9009449 heartbeat IPC: 2.23027 cumulative IPC: 2.21989 (Simulation time: 0 hr 3 min 32 sec) 
Heartbeat CPU 3 instructions: 20000000 cycles: 9600323 heartbeat IPC: 2.02422 cumulative IPC: 2.08326 (Simulation time: 0 hr 3 min 45 sec) 
Heartbeat CPU 2 instructions: 30000003 cycles: 11293541 heartbeat IPC: 2.65539 cumulative IPC: 2.65639 (Simulation time: 0 hr 4 min 25 sec) 
Heartbeat CPU 1 instructions: 30000001 cycles: 13036635 heartbeat IPC: 2.2876 cumulative IPC: 2.30121 (Simulation time: 0 hr 5 min 2 sec) 
Heartbeat CPU 3 instructions: 30000003 cycles: 13871216 heartbeat IPC: 2.34143 cumulative IPC: 2.16275 (Simulation time: 0 hr 5 min 20 sec) 
Heartbeat CPU 0 instructions: 30000000 cycles: 14017212 heartbeat IPC: 1.9969 cumulative IPC: 2.14023 (Simulation time: 0 hr 5 min 23 sec) 
Heartbeat CPU 2 instructions: 40000000 cycles: 15059615 heartbeat IPC: 2.65528 cumulative IPC: 2.65611 (Simulation time: 0 hr 5 min 45 sec) 
Heartbeat CPU 1 instructions: 40000000 cycles: 17330845 heartbeat IPC: 2.32872 cumulative IPC: 2.30802 (Simulation time: 0 hr 6 min 34 sec) 
Heartbeat CPU 3 instructions: 40000000 cycles: 17866785 heartbeat IPC: 2.50277 cumulative IPC: 2.23879 (Simulation time: 0 hr 6 min 45 sec) 
Heartbeat CPU 2 instructions: 50000000 cycles: 18825533 heartbeat IPC: 2.6554 cumulative IPC: 2.65597 (Simulation time: 0 hr 7 min 6 sec) 
Heartbeat CPU 0 instructions: 40000000 cycles: 19496046 heartbeat IPC: 1.82521 cumulative IPC: 2.0517 (Simulation time: 0 hr 7 min 20 sec) 
Heartbeat CPU 1 instructions: 50000000 cycles: 21701987 heartbeat IPC: 2.28773 cumulative IPC: 2.30394 (Simulation time: 0 hr 8 min 8 sec) 
Heartbeat CPU 3 instructions: 50000001 cycles: 22090579 heartbeat IPC: 2.36754 cumulative IPC: 2.26341 (Simulation time: 0 hr 8 min 16 sec) 
Heartbeat CPU 2 instructions: 60000000 cycles: 22591430 heartbeat IPC: 2.65541 cumulative IPC: 2.65587 (Simulation time: 0 hr 8 min 28 sec) 
Heartbeat CPU 0 instructions: 50000001 cycles: 24673747 heartbeat IPC: 1.93136 cumulative IPC: 2.02645 (Simulation time: 0 hr 9 min 18 sec) 
Heartbeat CPU 1 instructions: 60000000 cycles: 26054020 heartbeat IPC: 2.29778 cumulative IPC: 2.30291 (Simulation time: 0 hr 9 min 51 sec) 
Heartbeat CPU 2 instructions: 70000002 cycles: 26357406 heartbeat IPC: 2.65535 cumulative IPC: 2.6558 (Simulation time: 0 hr 9 min 58 sec) 
Heartbeat CPU 3 instructions: 60000000 cycles: 26644117 heartbeat IPC: 2.19609 cumulative IPC: 2.2519 (Simulation time: 0 hr 10 min 5 sec) 
Heartbeat CPU 0 instructions: 60000000 cycles: 29591887 heartbeat IPC: 2.03329 cumulative IPC: 2.02758 (Simulation time: 0 hr 11 min 15 sec) 
Heartbeat CPU 2 instructions: 80000000 cycles: 30119100 heartbeat IPC: 2.65838 cumulative IPC: 2.65612 (Simulation time: 0 hr 11 min 26 sec) 
Heartbeat CPU 1 instructions: 70000000 cycles: 30326095 heartbeat IPC: 2.34078 cumulative IPC: 2.30824 (Simulation time: 0 hr 11 min 30 sec) 
Heartbeat CPU 3 instructions: 70000001 cycles: 31238715 heartbeat IPC: 2.17647 cumulative IPC: 2.24081 (Simulation time: 0 hr 11 min 50 sec) 
Heartbeat CPU 2 instructions: 90000003 cycles: 33884975 heartbeat IPC: 2.65543 cumulative IPC: 2.65604 (Simulation time: 0 hr 12 min 51 sec) 
Heartbeat CPU 0 instructions: 70000000 cycles: 34393496 heartbeat IPC: 2.08264 cumulative IPC: 2.03527 (Simulation time: 0 hr 13 min 2 sec) 
Heartbeat CPU 1 instructions: 80000000 cycles: 34651446 heartbeat IPC: 2.31195 cumulative IPC: 2.30871 (Simulation time: 0 hr 13 min 8 sec) 
Heartbeat CPU 3 instructions: 80000000 cycles: 36184221 heartbeat IPC: 2.02204 cumulative IPC: 2.21091 (Simulation time: 0 hr 13 min 55 sec) 
Heartbeat CPU 2 instructions: 100000000 cycles: 37650900 heartbeat IPC: 2.65539 cumulative IPC: 2.65598 (Simulation time: 0 hr 14 min 32 sec) 
Heartbeat CPU 1 instructions: 90000001 cycles: 38967445 heartbeat IPC: 2.31696 cumulative IPC: 2.30962 (Simulation time: 0 hr 15 min 0 sec) 
Heartbeat CPU 0 instructions: 80000000 cycles: 39195076 heartbeat IPC: 2.08265 cumulative IPC: 2.04107 (Simulation time: 0 hr 15 min 5 sec) 
Heartbeat CPU 3 instructions: 90000003 cycles: 40537481 heartbeat IPC: 2.29713 cumulative IPC: 2.22017 (Simulation time: 0 hr 15 min 45 sec) 
Heartbeat CPU 2 instructions: 110000003 cycles: 41417030 heartbeat IPC: 2.65525 cumulative IPC: 2.65591 (Simulation time: 0 hr 16 min 7 sec) 
Heartbeat CPU 1 instructions: 100000000 cycles: 43226437 heartbeat IPC: 2.34797 cumulative IPC: 2.3134 (Simulation time: 0 hr 16 min 56 sec) 
Heartbeat CPU 0 instructions: 90000001 cycles: 43744494 heartbeat IPC: 2.19808 cumulative IPC: 2.0574 (Simulation time: 0 hr 17 min 8 sec) 
Heartbeat CPU 3 instructions: 100000000 cycles: 44532757 heartbeat IPC: 2.50296 cumulative IPC: 2.24554 (Simulation time: 0 hr 17 min 25 sec) 
Heartbeat CPU 2 instructions: 120000000 cycles: 45182925 heartbeat IPC: 2.65541 cumulative IPC: 2.65587 (Simulation time: 0 hr 17 min 39 sec) 
Heartbeat CPU 1 instructions: 110000001 cycles: 47534664 heartbeat IPC: 2.32114 cumulative IPC: 2.3141 (Simulation time: 0 hr 18 min 30 sec) 
Heartbeat CPU 0 instructions: 100000000 cycles: 48213792 heartbeat IPC: 2.23749 cumulative IPC: 2.0741 (Simulation time: 0 hr 18 min 44 sec) 
Heartbeat CPU 3 instructions: 110000003 cycles: 48525910 heartbeat IPC: 2.50429 cumulative IPC: 2.26683 (Simulation time: 0 hr 18 min 51 sec) 
Heartbeat CPU 2 instructions: 130000003 cycles: 48948961 heartbeat IPC: 2.65531 cumulative IPC: 2.65583 (Simulation time: 0 hr 19 min 0 sec) 
Heartbeat CPU 1 instructions: 120000000 cycles: 51838202 heartbeat IPC: 2.32367 cumulative IPC: 2.3149 (Simulation time: 0 hr 20 min 12 sec) 
Heartbeat CPU 3 instructions: 120000000 cycles: 52514066 heartbeat IPC: 2.50742 cumulative IPC: 2.2851 (Simulation time: 0 hr 20 min 29 sec) 
Heartbeat CPU 2 instructions: 140000000 cycles: 52714925 heartbeat IPC: 2.65536 cumulative IPC: 2.65579 (Simulation time: 0 hr 20 min 36 sec) 
Heartbeat CPU 0 instructions: 110000002 cycles: 52808172 heartbeat IPC: 2.17657 cumulative IPC: 2.08301 (Simulation time: 0 hr 20 min 38 sec) 
Heartbeat CPU 1 instructions: 130000001 cycles: 56091513 heartbeat IPC: 2.35111 cumulative IPC: 2.31764 (Simulation time: 0 hr 22 min 3 sec) 
Heartbeat CPU 2 instructions: 150000003 cycles: 56476465 heartbeat IPC: 2.65849 cumulative IPC: 2.65597 (Simulation time: 0 hr 22 min 11 sec) 
Heartbeat CPU 3 instructions: 130000003 cycles: 56502481 heartbeat IPC: 2.50726 cumulative IPC: 2.30078 (Simulation time: 0 hr 22 min 12 sec) 
Heartbeat CPU 0 instructions: 120000000 cycles: 57563412 heartbeat IPC: 2.10294 cumulative IPC: 2.08466 (Simulation time: 0 hr 22 min 39 sec) 
Heartbeat CPU 2 instructions: 160000000 cycles: 60242470 heartbeat IPC: 2.65533 cumulative IPC: 2.65593 (Simulation time: 0 hr 23 min 42 sec) 
Heartbeat CPU 1 instructions: 140000000 cycles: 60389671 heartbeat IPC: 2.32658 cumulative IPC: 2.31828 (Simulation time: 0 hr 23 min 45 sec) 
Heartbeat CPU 3 instructions: 140000000 cycles: 61446611 heartbeat IPC: 2.0226 cumulative IPC: 2.2784 (Simulation time: 0 hr 24 min 10 sec) 
Heartbeat CPU 0 instructions: 130000001 cycles: 62278826 heartbeat IPC: 2.1207 cumulative IPC: 2.08739 (Simulation time: 0 hr 24 min 31 sec) 
Heartbeat CPU 2 instructions: 170000003 cycles: 64008339 heartbeat IPC: 2.65543 cumulative IPC: 2.6559 (Simulation time: 0 hr 25 min 17 sec) 
Heartbeat CPU 1 instructions: 150000000 cycles: 64688195 heartbeat IPC: 2.32638 cumulative IPC: 2.31882 (Simulation time: 0 hr 25 min 32 sec) 
Heartbeat CPU 3 instructions: 150000000 cycles: 65886201 heartbeat IPC: 2.25246 cumulative IPC: 2.27665 (Simulation time: 0 hr 26 min 2 sec) 
Heartbeat CPU 0 instructions: 140000000 cycles: 66676361 heartbeat IPC: 2.274 cumulative IPC: 2.09969 (Simulation time: 0 hr 26 min 20 sec) 
Heartbeat CPU 2 instructions: 180000000 cycles: 67774275 heartbeat IPC: 2.65538 cumulative IPC: 2.65587 (Simulation time: 0 hr 26 min 43 sec) 
Heartbeat CPU 1 instructions: 160000000 cycles: 68940024 heartbeat IPC: 2.35193 cumulative IPC: 2.32086 (Simulation time: 0 hr 27 min 11 sec) 
Heartbeat CPU 3 instructions: 160000000 cycles: 69881461 heartbeat IPC: 2.50297 cumulative IPC: 2.28959 (Simulation time: 0 hr 27 min 32 sec) 
Heartbeat CPU 0 instructions: 150000001 cycles: 71070974 heartbeat IPC: 2.27551 cumulative IPC: 2.11057 (Simulation time: 0 hr 28 min 4 sec) 
Heartbeat CPU 2 instructions: 190000000 cycles: 71540196 heartbeat IPC: 2.65539 cumulative IPC: 2.65585 (Simulation time: 0 hr 28 min 15 sec) 
Heartbeat CPU 1 instructions: 170000001 cycles: 73241103 heartbeat IPC: 2.325 cumulative IPC: 2.3211 (Simulation time: 0 hr 28 min 54 sec) 
Heartbeat CPU 3 instructions: 170000003 cycles: 73879297 heartbeat IPC: 2.50135 cumulative IPC: 2.30105 (Simulation time: 0 hr 29 min 10 sec) 
Heartbeat CPU 2 instructions: 200000000 cycles: 75306092 heartbeat IPC: 2.65541 cumulative IPC: 2.65583 (Simulation time: 0 hr 29 min 42 sec) 
Heartbeat CPU 0 instructions: 160000000 cycles: 75790013 heartbeat IPC: 2.11908 cumulative IPC: 2.1111 (Simulation time: 0 hr 29 min 54 sec) 
Heartbeat CPU 1 instructions: 180000000 cycles: 77542092 heartbeat IPC: 2.32505 cumulative IPC: 2.32132 (Simulation time: 0 hr 30 min 34 sec) 
Heartbeat CPU 3 instructions: 180000000 cycles: 77879995 heartbeat IPC: 2.49956 cumulative IPC: 2.31125 (Simulation time: 0 hr 30 min 42 sec) 
Heartbeat CPU 2 instructions: 210000000 cycles: 79067580 heartbeat IPC: 2.65852 cumulative IPC: 0.126474 (Simulation time: 0 hr 31 min 8 sec) 
Heartbeat CPU 0 instructions: 170000000 cycles: 80591101 heartbeat IPC: 2.08286 cumulative IPC: 2.10941 (Simulation time: 0 hr 31 min 41 sec) 
Heartbeat CPU 1 instructions: 190000003 cycles: 81790702 heartbeat IPC: 2.35371 cumulative IPC: 2.323 (Simulation time: 0 hr 32 min 13 sec) 
Heartbeat CPU 3 instructions: 190000002 cycles: 81880394 heartbeat IPC: 2.49975 cumulative IPC: 2.32046 (Simulation time: 0 hr 32 min 14 sec) 
Heartbeat CPU 2 instructions: 220000000 cycles: 82833517 heartbeat IPC: 2.65538 cumulative IPC: 0.241448 (Simulation time: 0 hr 32 min 36 sec) 
Heartbeat CPU 0 instructions: 180000000 cycles: 85293083 heartbeat IPC: 2.12676 cumulative IPC: 2.11037 (Simulation time: 0 hr 33 min 37 sec) 
Heartbeat CPU 1 instructions: 200000000 cycles: 86096305 heartbeat IPC: 2.32255 cumulative IPC: 2.32298 (Simulation time: 0 hr 33 min 58 sec) 
Heartbeat CPU 2 instructions: 230000003 cycles: 86599547 heartbeat IPC: 2.65532 cumulative IPC: 0.346422 (Simulation time: 0 hr 34 min 11 sec) 
Heartbeat CPU 3 instructions: 200000000 cycles: 86735150 heartbeat IPC: 2.05984 cumulative IPC: 2.30587 (Simulation time: 0 hr 34 min 14 sec) 
Heartbeat CPU 0 instructions: 190000003 cycles: 89857796 heartbeat IPC: 2.19072 cumulative IPC: 2.11445 (Simulation time: 0 hr 35 min 28 sec) 
Heartbeat CPU 2 instructions: 240000000 cycles: 90365411 heartbeat IPC: 2.65543 cumulative IPC: 0.442647 (Simulation time: 0 hr 35 min 38 sec) 
Heartbeat CPU 1 instructions: 210000000 cycles: 90405848 heartbeat IPC: 2.32043 cumulative IPC: 0.110612 (Simulation time: 0 hr 35 min 39 sec) 
Heartbeat CPU 3 instructions: 210000000 cycles: 91268275 heartbeat IPC: 2.20598 cumulative IPC: 0.109567 (Simulation time: 0 hr 35 min 57 sec) 
Heartbeat CPU 2 instructions: 250000003 cycles: 94131384 heartbeat IPC: 2.65536 cumulative IPC: 0.531173 (Simulation time: 0 hr 36 min 53 sec) 
Heartbeat CPU 0 instructions: 200000000 cycles: 94520114 heartbeat IPC: 2.14486 cumulative IPC: 2.11595 (Simulation time: 0 hr 37 min 1 sec) 

Warmup complete CPU 0 instructions: 200000001 cycles: 94520115 (Simulation time: 0 hr 37 min 1 sec) 
Warmup complete CPU 1 instructions: 219640333 cycles: 94520114 (Simulation time: 0 hr 37 min 1 sec) 
Warmup complete CPU 2 instructions: 251035850 cycles: 94520114 (Simulation time: 0 hr 37 min 1 sec) 
Warmup complete CPU 3 instructions: 218124797 cycles: 94520114 (Simulation time: 0 hr 37 min 1 sec) 

Heartbeat CPU 1 instructions: 220000000 cycles: 94943076 heartbeat IPC: 2.20399 cumulative IPC: 0.850353 (Simulation time: 0 hr 37 min 3 sec) 
Heartbeat CPU 3 instructions: 220000000 cycles: 101325299 heartbeat IPC: 0.99433 cumulative IPC: 0.275555 (Simulation time: 0 hr 37 min 43 sec) 
Heartbeat CPU 1 instructions: 230000001 cycles: 108040256 heartbeat IPC: 0.763523 cumulative IPC: 0.76624 (Simulation time: 0 hr 38 min 27 sec) 
Heartbeat CPU 2 instructions: 260000000 cycles: 111178271 heartbeat IPC: 0.586617 cumulative IPC: 0.538124 (Simulation time: 0 hr 38 min 47 sec) 
Heartbeat CPU 1 instructions: 240000000 cycles: 121256850 heartbeat IPC: 0.756625 cumulative IPC: 0.761487 (Simulation time: 0 hr 39 min 49 sec) 
Heartbeat CPU 1 instructions: 250000003 cycles: 134589002 heartbeat IPC: 0.750067 cumulative IPC: 0.757687 (Simulation time: 0 hr 41 min 5 sec) 
Heartbeat CPU 3 instructions: 230000001 cycles: 140082338 heartbeat IPC: 0.258018 cumulative IPC: 0.260637 (Simulation time: 0 hr 41 min 39 sec) 
Heartbeat CPU 2 instructions: 270000000 cycles: 140180829 heartbeat IPC: 0.344797 cumulative IPC: 0.415327 (Simulation time: 0 hr 41 min 39 sec) 
Heartbeat CPU 1 instructions: 260000000 cycles: 148136109 heartbeat IPC: 0.738165 cumulative IPC: 0.752754 (Simulation time: 0 hr 42 min 29 sec) 
Heartbeat CPU 0 instructions: 210000000 cycles: 159011032 heartbeat IPC: 0.155061 cumulative IPC: 0.155061 (Simulation time: 0 hr 43 min 37 sec) 
Heartbeat CPU 2 instructions: 280000000 cycles: 161719229 heartbeat IPC: 0.464287 cumulative IPC: 0.43102 (Simulation time: 0 hr 43 min 54 sec) 
Heartbeat CPU 1 instructions: 270000000 cycles: 161983235 heartbeat IPC: 0.722172 cumulative IPC: 0.746477 (Simulation time: 0 hr 43 min 56 sec) 
Heartbeat CPU 1 instructions: 280000000 cycles: 175314313 heartbeat IPC: 0.750127 cumulative IPC: 0.747079 (Simulation time: 0 hr 45 min 20 sec) 
Heartbeat CPU 3 instructions: 240000000 cycles: 182600785 heartbeat IPC: 0.235192 cumulative IPC: 0.248354 (Simulation time: 0 hr 46 min 5 sec) 
Heartbeat CPU 2 instructions: 290000000 cycles: 183106144 heartbeat IPC: 0.467576 cumulative IPC: 0.439845 (Simulation time: 0 hr 46 min 8 sec) 
Heartbeat CPU 1 instructions: 290000003 cycles: 188943232 heartbeat IPC: 0.733734 cumulative IPC: 0.745153 (Simulation time: 0 hr 46 min 45 sec) 
Heartbeat CPU 1 instructions: 300000000 cycles: 202735146 heartbeat IPC: 0.725062 cumulative IPC: 0.742592 (Simulation time: 0 hr 48 min 12 sec) 
Heartbeat CPU 2 instructions: 300000000 cycles: 204153956 heartbeat IPC: 0.475109 cumulative IPC: 0.446615 (Simulation time: 0 hr 48 min 22 sec) 
Heartbeat CPU 1 instructions: 310000003 cycles: 215528837 heartbeat IPC: 0.781636 cumulative IPC: 0.74672 (Simulation time: 0 hr 49 min 38 sec) 
Heartbeat CPU 3 instructions: 250000002 cycles: 219272773 heartbeat IPC: 0.272688 cumulative IPC: 0.255507 (Simulation time: 0 hr 50 min 5 sec) 
Heartbeat CPU 0 instructions: 220000000 cycles: 221491686 heartbeat IPC: 0.16005 cumulative IPC: 0.157516 (Simulation time: 0 hr 50 min 20 sec) 
Heartbeat CPU 2 instructions: 310000002 cycles: 223991260 heartbeat IPC: 0.504101 cumulative IPC: 0.455423 (Simulation time: 0 hr 50 min 38 sec) 
Heartbeat CPU 1 instructions: 320000000 cycles: 229258284 heartbeat IPC: 0.728361 cumulative IPC: 0.74485 (Simulation time: 0 hr 51 min 17 sec) 
Heartbeat CPU 1 instructions: 330000003 cycles: 243227383 heartbeat IPC: 0.715866 cumulative IPC: 0.742127 (Simulation time: 0 hr 53 min 15 sec) 
Heartbeat CPU 2 instructions: 320000000 cycles: 245811974 heartbeat IPC: 0.45828 cumulative IPC: 0.455835 (Simulation time: 0 hr 53 min 34 sec) 
Heartbeat CPU 3 instructions: 260000000 cycles: 256451226 heartbeat IPC: 0.268973 cumulative IPC: 0.258599 (Simulation time: 0 hr 54 min 59 sec) 
Heartbeat CPU 1 instructions: 340000000 cycles: 256724244 heartbeat IPC: 0.740913 cumulative IPC: 0.742026 (Simulation time: 0 hr 55 min 1 sec) 
Heartbeat CPU 0 instructions: 230000000 cycles: 263483370 heartbeat IPC: 0.238142 cumulative IPC: 0.177553 (Simulation time: 0 hr 55 min 55 sec) 
Heartbeat CPU 2 instructions: 330000001 cycles: 268044534 heartbeat IPC: 0.449791 cumulative IPC: 0.455061 (Simulation time: 0 hr 56 min 31 sec) 
Heartbeat CPU 1 instructions: 350000002 cycles: 270430125 heartbeat IPC: 0.729614 cumulative IPC: 0.741059 (Simulation time: 0 hr 56 min 48 sec) 
Heartbeat CPU 1 instructions: 360000000 cycles: 284140232 heartbeat IPC: 0.729389 cumulative IPC: 0.740215 (Simulation time: 0 hr 58 min 21 sec) 
Heartbeat CPU 2 instructions: 340000000 cycles: 289183051 heartbeat IPC: 0.47307 cumulative IPC: 0.457016 (Simulation time: 0 hr 58 min 54 sec) 
Heartbeat CPU 1 instructions: 370000003 cycles: 297022404 heartbeat IPC: 0.776267 cumulative IPC: 0.742508 (Simulation time: 0 hr 59 min 43 sec) 
Heartbeat CPU 3 instructions: 270000000 cycles: 297202308 heartbeat IPC: 0.245392 cumulative IPC: 0.255944 (Simulation time: 0 hr 59 min 44 sec) 
Heartbeat CPU 0 instructions: 240000000 cycles: 305322328 heartbeat IPC: 0.239012 cumulative IPC: 0.189751 (Simulation time: 1 hr 0 min 35 sec) 
Heartbeat CPU 2 instructions: 350000003 cycles: 310068111 heartbeat IPC: 0.478811 cumulative IPC: 0.459128 (Simulation time: 1 hr 1 min 6 sec) 
Heartbeat CPU 1 instructions: 380000000 cycles: 310167891 heartbeat IPC: 0.760717 cumulative IPC: 0.743618 (Simulation time: 1 hr 1 min 6 sec) 
Heartbeat CPU 1 instructions: 390000000 cycles: 323446925 heartbeat IPC: 0.753067 cumulative IPC: 0.744166 (Simulation time: 1 hr 2 min 30 sec) 
Heartbeat CPU 2 instructions: 360000000 cycles: 330944411 heartbeat IPC: 0.479012 cumulative IPC: 0.460884 (Simulation time: 1 hr 3 min 18 sec) 
Heartbeat CPU 1 instructions: 400000000 cycles: 336351953 heartbeat IPC: 0.774892 cumulative IPC: 0.745806 (Simulation time: 1 hr 3 min 52 sec) 
Heartbeat CPU 0 instructions: 250000003 cycles: 347497117 heartbeat IPC: 0.237109 cumulative IPC: 0.197646 (Simulation time: 1 hr 5 min 3 sec) 
Heartbeat CPU 3 instructions: 280000000 cycles: 347527889 heartbeat IPC: 0.198706 cumulative IPC: 0.244558 (Simulation time: 1 hr 5 min 3 sec) 
Heartbeat CPU 1 instructions: 410000000 cycles: 349577246 heartbeat IPC: 0.756127 cumulative IPC: 0.746341 (Simulation time: 1 hr 5 min 16 sec) 
Heartbeat CPU 2 instructions: 370000003 cycles: 351592177 heartbeat IPC: 0.484314 cumulative IPC: 0.462766 (Simulation time: 1 hr 5 min 29 sec) 
Heartbeat CPU 1 instructions: 420000000 cycles: 362972614 heartbeat IPC: 0.746527 cumulative IPC: 0.746351 (Simulation time: 1 hr 6 min 40 sec) 
Heartbeat CPU 2 instructions: 380000000 cycles: 372592908 heartbeat IPC: 0.476174 cumulative IPC: 0.463778 (Simulation time: 1 hr 7 min 41 sec) 
Heartbeat CPU 1 instructions: 430000000 cycles: 375950906 heartbeat IPC: 0.770517 cumulative IPC: 0.747465 (Simulation time: 1 hr 8 min 2 sec) 
Heartbeat CPU 1 instructions: 440000000 cycles: 389106038 heartbeat IPC: 0.76016 cumulative IPC: 0.748032 (Simulation time: 1 hr 9 min 21 sec) 
Heartbeat CPU 2 instructions: 390000000 cycles: 393594346 heartbeat IPC: 0.476158 cumulative IPC: 0.464648 (Simulation time: 1 hr 9 min 47 sec) 
Heartbeat CPU 0 instructions: 260000000 cycles: 396438882 heartbeat IPC: 0.204324 cumulative IPC: 0.198729 (Simulation time: 1 hr 10 min 5 sec) 
Heartbeat CPU 3 instructions: 290000000 cycles: 398451560 heartbeat IPC: 0.196372 cumulative IPC: 0.236485 (Simulation time: 1 hr 10 min 17 sec) 
Heartbeat CPU 1 instructions: 450000000 cycles: 402329399 heartbeat IPC: 0.756237 cumulative IPC: 0.748384 (Simulation time: 1 hr 10 min 40 sec) 
Heartbeat CPU 2 instructions: 400000000 cycles: 415029949 heartbeat IPC: 0.466514 cumulative IPC: 0.464772 (Simulation time: 1 hr 11 min 59 sec) 
Heartbeat CPU 1 instructions: 460000000 cycles: 415268612 heartbeat IPC: 0.772845 cumulative IPC: 0.749371 (Simulation time: 1 hr 12 min 1 sec) 
Heartbeat CPU 1 instructions: 470000000 cycles: 428975391 heartbeat IPC: 0.729566 cumulative IPC: 0.748559 (Simulation time: 1 hr 13 min 27 sec) 
Heartbeat CPU 2 instructions: 410000001 cycles: 437687849 heartbeat IPC: 0.441347 cumulative IPC: 0.463226 (Simulation time: 1 hr 14 min 22 sec) 
Heartbeat CPU 3 instructions: 300000000 cycles: 442661505 heartbeat IPC: 0.226193 cumulative IPC: 0.235178 (Simulation time: 1 hr 14 min 53 sec) 
Heartbeat CPU 1 instructions: 480000000 cycles: 442865692 heartbeat IPC: 0.719927 cumulative IPC: 0.747418 (Simulation time: 1 hr 14 min 54 sec) 
Heartbeat CPU 1 instructions: 490000000 cycles: 456270113 heartbeat IPC: 0.746023 cumulative IPC: 0.747366 (Simulation time: 1 hr 16 min 18 sec) 
Heartbeat CPU 2 instructions: 420000000 cycles: 459876451 heartbeat IPC: 0.450682 cumulative IPC: 0.462464 (Simulation time: 1 hr 16 min 41 sec) 
Heartbeat CPU 0 instructions: 270000000 cycles: 461723150 heartbeat IPC: 0.153176 cumulative IPC: 0.19063 (Simulation time: 1 hr 16 min 52 sec) 
Heartbeat CPU 1 instructions: 500000000 cycles: 469947712 heartbeat IPC: 0.731122 cumulative IPC: 0.746774 (Simulation time: 1 hr 17 min 44 sec) 
Heartbeat CPU 2 instructions: 430000002 cycles: 481019513 heartbeat IPC: 0.472968 cumulative IPC: 0.463039 (Simulation time: 1 hr 18 min 53 sec) 
Heartbeat CPU 1 instructions: 510000003 cycles: 483391766 heartbeat IPC: 0.743823 cumulative IPC: 0.746672 (Simulation time: 1 hr 19 min 8 sec) 
Heartbeat CPU 3 instructions: 310000003 cycles: 485345244 heartbeat IPC: 0.234281 cumulative IPC: 0.23508 (Simulation time: 1 hr 19 min 20 sec) 
Heartbeat CPU 1 instructions: 520000000 cycles: 496144215 heartbeat IPC: 0.784163 cumulative IPC: 0.747863 (Simulation time: 1 hr 20 min 28 sec) 
Heartbeat CPU 2 instructions: 440000000 cycles: 500309001 heartbeat IPC: 0.518417 cumulative IPC: 0.465671 (Simulation time: 1 hr 20 min 56 sec) 
Heartbeat CPU 1 instructions: 530000000 cycles: 509728166 heartbeat IPC: 0.736163 cumulative IPC: 0.74748 (Simulation time: 1 hr 21 min 58 sec) 
Heartbeat CPU 0 instructions: 280000000 cycles: 514340977 heartbeat IPC: 0.19005 cumulative IPC: 0.190557 (Simulation time: 1 hr 22 min 28 sec) 
Heartbeat CPU 2 instructions: 450000003 cycles: 521991181 heartbeat IPC: 0.461208 cumulative IPC: 0.465445 (Simulation time: 1 hr 23 min 18 sec) 
Heartbeat CPU 1 instructions: 540000000 cycles: 523608480 heartbeat IPC: 0.720445 cumulative IPC: 0.746605 (Simulation time: 1 hr 23 min 28 sec) 
Heartbeat CPU 3 instructions: 320000000 cycles: 530581027 heartbeat IPC: 0.221064 cumulative IPC: 0.233626 (Simulation time: 1 hr 24 min 14 sec) 
Heartbeat CPU 1 instructions: 550000001 cycles: 536991769 heartbeat IPC: 0.747201 cumulative IPC: 0.746623 (Simulation time: 1 hr 24 min 56 sec) 
Heartbeat CPU 2 instructions: 460000000 cycles: 544027835 heartbeat IPC: 0.453789 cumulative IPC: 0.464873 (Simulation time: 1 hr 25 min 41 sec) 
Heartbeat CPU 1 instructions: 560000000 cycles: 550724107 heartbeat IPC: 0.728208 cumulative IPC: 0.746069 (Simulation time: 1 hr 26 min 26 sec) 
Heartbeat CPU 0 instructions: 290000000 cycles: 556777227 heartbeat IPC: 0.235648 cumulative IPC: 0.194697 (Simulation time: 1 hr 27 min 5 sec) 
Heartbeat CPU 1 instructions: 570000003 cycles: 564444767 heartbeat IPC: 0.728828 cumulative IPC: 0.745566 (Simulation time: 1 hr 27 min 53 sec) 
Heartbeat CPU 2 instructions: 470000003 cycles: 564865356 heartbeat IPC: 0.479904 cumulative IPC: 0.465539 (Simulation time: 1 hr 27 min 55 sec) 
Heartbeat CPU 3 instructions: 330000000 cycles: 576136440 heartbeat IPC: 0.219513 cumulative IPC: 0.232291 (Simulation time: 1 hr 29 min 3 sec) 
Heartbeat CPU 1 instructions: 580000000 cycles: 577276610 heartbeat IPC: 0.779311 cumulative IPC: 0.746463 (Simulation time: 1 hr 29 min 10 sec) 
Heartbeat CPU 2 instructions: 480000000 cycles: 583504171 heartbeat IPC: 0.536515 cumulative IPC: 0.468245 (Simulation time: 1 hr 29 min 46 sec) 
Heartbeat CPU 1 instructions: 590000001 cycles: 590226432 heartbeat IPC: 0.772211 cumulative IPC: 0.747135 (Simulation time: 1 hr 30 min 25 sec) 
Heartbeat CPU 2 instructions: 490000000 cycles: 603003314 heartbeat IPC: 0.512843 cumulative IPC: 0.469955 (Simulation time: 1 hr 31 min 40 sec) 
Heartbeat CPU 1 instructions: 600000000 cycles: 603426589 heartbeat IPC: 0.757567 cumulative IPC: 0.747406 (Simulation time: 1 hr 31 min 43 sec) 
Heartbeat CPU 0 instructions: 300000000 cycles: 615404541 heartbeat IPC: 0.170569 cumulative IPC: 0.191981 (Simulation time: 1 hr 32 min 54 sec) 
Heartbeat CPU 1 instructions: 610000001 cycles: 616277362 heartbeat IPC: 0.778163 cumulative IPC: 0.748163 (Simulation time: 1 hr 33 min 0 sec) 
Heartbeat CPU 2 instructions: 500000000 cycles: 622267753 heartbeat IPC: 0.519091 cumulative IPC: 0.471749 (Simulation time: 1 hr 33 min 35 sec) 
Heartbeat CPU 1 instructions: 620000000 cycles: 629311509 heartbeat IPC: 0.767215 cumulative IPC: 0.748628 (Simulation time: 1 hr 34 min 17 sec) 
Heartbeat CPU 3 instructions: 340000000 cycles: 631819436 heartbeat IPC: 0.179588 cumulative IPC: 0.226829 (Simulation time: 1 hr 34 min 32 sec) 
Heartbeat CPU 2 instructions: 510000001 cycles: 641672097 heartbeat IPC: 0.515349 cumulative IPC: 0.473295 (Simulation time: 1 hr 35 min 31 sec) 
Heartbeat CPU 1 instructions: 630000002 cycles: 642481824 heartbeat IPC: 0.759283 cumulative IPC: 0.748884 (Simulation time: 1 hr 35 min 36 sec) 
Heartbeat CPU 2 instructions: 520000000 cycles: 662900670 heartbeat IPC: 0.471063 cumulative IPC: 0.473211 (Simulation time: 1 hr 37 min 5 sec) 
Heartbeat CPU 0 instructions: 310000003 cycles: 677011872 heartbeat IPC: 0.162318 cumulative IPC: 0.188844 (Simulation time: 1 hr 38 min 7 sec) 
Heartbeat CPU 2 instructions: 530000002 cycles: 683383935 heartbeat IPC: 0.488204 cumulative IPC: 0.473733 (Simulation time: 1 hr 38 min 38 sec) 
Heartbeat CPU 3 instructions: 350000001 cycles: 691592955 heartbeat IPC: 0.167298 cumulative IPC: 0.22087 (Simulation time: 1 hr 39 min 17 sec) 
Heartbeat CPU 1 instructions: 640000000 cycles: 692725281 heartbeat IPC: 0.199031 cumulative IPC: 0.702702 (Simulation time: 1 hr 39 min 22 sec) 
Heartbeat CPU 2 instructions: 540000000 cycles: 705646966 heartbeat IPC: 0.449175 cumulative IPC: 0.472838 (Simulation time: 1 hr 40 min 23 sec) 
Heartbeat CPU 0 instructions: 320000000 cycles: 721287362 heartbeat IPC: 0.225859 cumulative IPC: 0.191459 (Simulation time: 1 hr 41 min 38 sec) 
Heartbeat CPU 2 instructions: 550000001 cycles: 727786928 heartbeat IPC: 0.451672 cumulative IPC: 0.472098 (Simulation time: 1 hr 42 min 9 sec) 
Heartbeat CPU 1 instructions: 650000002 cycles: 745304652 heartbeat IPC: 0.190189 cumulative IPC: 0.661294 (Simulation time: 1 hr 43 min 37 sec) 
Heartbeat CPU 3 instructions: 360000000 cycles: 748161773 heartbeat IPC: 0.176776 cumulative IPC: 0.217053 (Simulation time: 1 hr 43 min 51 sec) 
Heartbeat CPU 2 instructions: 560000000 cycles: 750050059 heartbeat IPC: 0.449173 cumulative IPC: 0.47132 (Simulation time: 1 hr 44 min 0 sec) 
Heartbeat CPU 2 instructions: 570000003 cycles: 771598038 heartbeat IPC: 0.464081 cumulative IPC: 0.471089 (Simulation time: 1 hr 45 min 46 sec) 
Heartbeat CPU 0 instructions: 330000001 cycles: 774559494 heartbeat IPC: 0.187715 cumulative IPC: 0.191165 (Simulation time: 1 hr 46 min 0 sec) 
Heartbeat CPU 3 instructions: 370000003 cycles: 791059833 heartbeat IPC: 0.233111 cumulative IPC: 0.218042 (Simulation time: 1 hr 47 min 22 sec) 
Heartbeat CPU 2 instructions: 580000000 cycles: 793115129 heartbeat IPC: 0.464747 cumulative IPC: 0.470894 (Simulation time: 1 hr 47 min 32 sec) 
Heartbeat CPU 1 instructions: 660000000 cycles: 793956170 heartbeat IPC: 0.205543 cumulative IPC: 0.629592 (Simulation time: 1 hr 47 min 38 sec) 
Heartbeat CPU 1 instructions: 670000000 cycles: 805285628 heartbeat IPC: 0.882655 cumulative IPC: 0.633626 (Simulation time: 1 hr 48 min 51 sec) 
Heartbeat CPU 2 instructions: 590000003 cycles: 813190388 heartbeat IPC: 0.498126 cumulative IPC: 0.471655 (Simulation time: 1 hr 49 min 51 sec) 
Heartbeat CPU 1 instructions: 680000000 cycles: 817752802 heartbeat IPC: 0.802106 cumulative IPC: 0.636531 (Simulation time: 1 hr 50 min 25 sec) 
Heartbeat CPU 1 instructions: 690000000 cycles: 829989416 heartbeat IPC: 0.81722 cumulative IPC: 0.639537 (Simulation time: 1 hr 51 min 56 sec) 
Heartbeat CPU 0 instructions: 340000000 cycles: 830384405 heartbeat IPC: 0.179131 cumulative IPC: 0.190252 (Simulation time: 1 hr 51 min 58 sec) 
Heartbeat CPU 2 instructions: 600000000 cycles: 833041565 heartbeat IPC: 0.503748 cumulative IPC: 0.472517 (Simulation time: 1 hr 52 min 18 sec) 
Heartbeat CPU 1 instructions: 700000000 cycles: 841042570 heartbeat IPC: 0.904719 cumulative IPC: 0.643463 (Simulation time: 1 hr 53 min 17 sec) 
Heartbeat CPU 3 instructions: 380000000 cycles: 843815083 heartbeat IPC: 0.189555 cumulative IPC: 0.216037 (Simulation time: 1 hr 53 min 36 sec) 
Heartbeat CPU 2 instructions: 610000000 cycles: 852599289 heartbeat IPC: 0.511307 cumulative IPC: 0.473518 (Simulation time: 1 hr 54 min 37 sec) 
Heartbeat CPU 1 instructions: 710000003 cycles: 853557386 heartbeat IPC: 0.799053 cumulative IPC: 0.646028 (Simulation time: 1 hr 54 min 44 sec) 
Heartbeat CPU 1 instructions: 720000000 cycles: 866026671 heartbeat IPC: 0.80197 cumulative IPC: 0.648549 (Simulation time: 1 hr 56 min 5 sec) 
Heartbeat CPU 2 instructions: 620000000 cycles: 872767290 heartbeat IPC: 0.495835 cumulative IPC: 0.474096 (Simulation time: 1 hr 56 min 49 sec) 
Heartbeat CPU 1 instructions: 730000003 cycles: 877277723 heartbeat IPC: 0.888806 cumulative IPC: 0.652002 (Simulation time: 1 hr 57 min 19 sec) 
Heartbeat CPU 0 instructions: 350000002 cycles: 878120329 heartbeat IPC: 0.209486 cumulative IPC: 0.191424 (Simulation time: 1 hr 57 min 24 sec) 
Heartbeat CPU 1 instructions: 740000000 cycles: 889657156 heartbeat IPC: 0.807791 cumulative IPC: 0.654428 (Simulation time: 1 hr 58 min 42 sec) 
Heartbeat CPU 2 instructions: 630000000 cycles: 892757174 heartbeat IPC: 0.500253 cumulative IPC: 0.474751 (Simulation time: 1 hr 59 min 6 sec) 
Heartbeat CPU 3 instructions: 390000000 cycles: 897309556 heartbeat IPC: 0.186935 cumulative IPC: 0.214097 (Simulation time: 1 hr 59 min 40 sec) 
Heartbeat CPU 1 instructions: 750000002 cycles: 901917518 heartbeat IPC: 0.815637 cumulative IPC: 0.656876 (Simulation time: 2 hr 0 min 12 sec) 
Heartbeat CPU 2 instructions: 640000000 cycles: 912533461 heartbeat IPC: 0.505656 cumulative IPC: 0.475499 (Simulation time: 2 hr 1 min 28 sec) 
Heartbeat CPU 1 instructions: 760000000 cycles: 912996213 heartbeat IPC: 0.902633 cumulative IPC: 0.660202 (Simulation time: 2 hr 1 min 32 sec) 
Heartbeat CPU 0 instructions: 360000000 cycles: 922420622 heartbeat IPC: 0.225732 cumulative IPC: 0.19326 (Simulation time: 2 hr 2 min 42 sec) 
Heartbeat CPU 1 instructions: 770000000 cycles: 925514411 heartbeat IPC: 0.798837 cumulative IPC: 0.662291 (Simulation time: 2 hr 3 min 6 sec) 
Heartbeat CPU 2 instructions: 650000001 cycles: 933304715 heartbeat IPC: 0.481435 cumulative IPC: 0.475646 (Simulation time: 2 hr 4 min 8 sec) 
Heartbeat CPU 1 instructions: 780000000 cycles: 938549116 heartbeat IPC: 0.767183 cumulative IPC: 0.66391 (Simulation time: 2 hr 4 min 44 sec) 
Heartbeat CPU 3 instructions: 400000000 cycles: 943541118 heartbeat IPC: 0.216302 cumulative IPC: 0.214218 (Simulation time: 2 hr 5 min 19 sec) 
Heartbeat CPU 1 instructions: 790000001 cycles: 950354610 heartbeat IPC: 0.847063 cumulative IPC: 0.666437 (Simulation time: 2 hr 6 min 4 sec) 
Heartbeat CPU 2 instructions: 660000000 cycles: 954631465 heartbeat IPC: 0.468895 cumulative IPC: 0.475478 (Simulation time: 2 hr 6 min 32 sec) 
Heartbeat CPU 1 instructions: 800000000 cycles: 963425204 heartbeat IPC: 0.765076 cumulative IPC: 0.667921 (Simulation time: 2 hr 7 min 32 sec) 
Heartbeat CPU 0 instructions: 370000002 cycles: 969725970 heartbeat IPC: 0.211393 cumulative IPC: 0.19424 (Simulation time: 2 hr 8 min 16 sec) 
Heartbeat CPU 1 instructions: 810000000 cycles: 976629239 heartbeat IPC: 0.757344 cumulative IPC: 0.669259 (Simulation time: 2 hr 9 min 2 sec) 
Heartbeat CPU 2 instructions: 670000001 cycles: 977409606 heartbeat IPC: 0.439017 cumulative IPC: 0.474537 (Simulation time: 2 hr 9 min 7 sec) 
Heartbeat CPU 1 instructions: 820000000 cycles: 988483872 heartbeat IPC: 0.843552 cumulative IPC: 0.67157 (Simulation time: 2 hr 10 min 21 sec) 
Heartbeat CPU 3 instructions: 410000002 cycles: 990709604 heartbeat IPC: 0.212006 cumulative IPC: 0.214101 (Simulation time: 2 hr 10 min 35 sec) 
Heartbeat CPU 2 instructions: 680000000 cycles: 999330706 heartbeat IPC: 0.456181 cumulative IPC: 0.474093 (Simulation time: 2 hr 11 min 30 sec) 
Heartbeat CPU 1 instructions: 830000003 cycles: 1001279358 heartbeat IPC: 0.781526 cumulative IPC: 0.673122 (Simulation time: 2 hr 11 min 43 sec) 
Heartbeat CPU 0 instructions: 380000000 cycles: 1012941641 heartbeat IPC: 0.231397 cumulative IPC: 0.195988 (Simulation time: 2 hr 12 min 57 sec) 
Heartbeat CPU 1 instructions: 840000000 cycles: 1014370007 heartbeat IPC: 0.763904 cumulative IPC: 0.674414 (Simulation time: 2 hr 13 min 6 sec) 
Heartbeat CPU 2 instructions: 690000002 cycles: 1020913527 heartbeat IPC: 0.463332 cumulative IPC: 0.473842 (Simulation time: 2 hr 13 min 50 sec) 
Heartbeat CPU 1 instructions: 850000000 cycles: 1026005101 heartbeat IPC: 0.859469 cumulative IPC: 0.676726 (Simulation time: 2 hr 14 min 20 sec) 
Heartbeat CPU 1 instructions: 860000000 cycles: 1038092125 heartbeat IPC: 0.827334 cumulative IPC: 0.678655 (Simulation time: 2 hr 15 min 35 sec) 
Heartbeat CPU 2 instructions: 700000000 cycles: 1041034608 heartbeat IPC: 0.496991 cumulative IPC: 0.474334 (Simulation time: 2 hr 15 min 53 sec) 
Heartbeat CPU 3 instructions: 420000000 cycles: 1046462383 heartbeat IPC: 0.179363 cumulative IPC: 0.212067 (Simulation time: 2 hr 16 min 24 sec) 
Heartbeat CPU 1 instructions: 870000000 cycles: 1050464966 heartbeat IPC: 0.808222 cumulative IPC: 0.680332 (Simulation time: 2 hr 16 min 45 sec) 
Heartbeat CPU 1 instructions: 880000000 cycles: 1061793457 heartbeat IPC: 0.88273 cumulative IPC: 0.682702 (Simulation time: 2 hr 17 min 53 sec) 
Heartbeat CPU 2 instructions: 710000003 cycles: 1069634825 heartbeat IPC: 0.349648 cumulative IPC: 0.470677 (Simulation time: 2 hr 18 min 40 sec) 
Heartbeat CPU 0 instructions: 390000003 cycles: 1070373404 heartbeat IPC: 0.17412 cumulative IPC: 0.194701 (Simulation time: 2 hr 18 min 45 sec) 
Heartbeat CPU 1 instructions: 890000002 cycles: 1073757667 heartbeat IPC: 0.835826 cumulative IPC: 0.684573 (Simulation time: 2 hr 19 min 7 sec) 
Heartbeat CPU 1 instructions: 900000000 cycles: 1086095445 heartbeat IPC: 0.810519 cumulative IPC: 0.68614 (Simulation time: 2 hr 20 min 22 sec) 
Heartbeat CPU 2 instructions: 720000000 cycles: 1088194005 heartbeat IPC: 0.538817 cumulative IPC: 0.47195 (Simulation time: 2 hr 20 min 36 sec) 
Heartbeat CPU 1 instructions: 910000001 cycles: 1097258397 heartbeat IPC: 0.89582 cumulative IPC: 0.688474 (Simulation time: 2 hr 21 min 33 sec) 
Heartbeat CPU 3 instructions: 430000000 cycles: 1099059230 heartbeat IPC: 0.190125 cumulative IPC: 0.210918 (Simulation time: 2 hr 21 min 43 sec) 
Heartbeat CPU 2 instructions: 730000000 cycles: 1106591678 heartbeat IPC: 0.543547 cumulative IPC: 0.473251 (Simulation time: 2 hr 22 min 31 sec) 
Heartbeat CPU 1 instructions: 920000000 cycles: 1109132960 heartbeat IPC: 0.842136 cumulative IPC: 0.690273 (Simulation time: 2 hr 22 min 47 sec) 
Heartbeat CPU 1 instructions: 930000003 cycles: 1121359513 heartbeat IPC: 0.817892 cumulative IPC: 0.691792 (Simulation time: 2 hr 24 min 2 sec) 
Heartbeat CPU 2 instructions: 740000000 cycles: 1125302692 heartbeat IPC: 0.534445 cumulative IPC: 0.474362 (Simulation time: 2 hr 24 min 33 sec) 
Heartbeat CPU 0 instructions: 400000000 cycles: 1129710631 heartbeat IPC: 0.168528 cumulative IPC: 0.193201 (Simulation time: 2 hr 25 min 3 sec) 
Heartbeat CPU 1 instructions: 940000000 cycles: 1132348704 heartbeat IPC: 0.909985 cumulative IPC: 0.694103 (Simulation time: 2 hr 25 min 21 sec) 
Heartbeat CPU 1 instructions: 950000001 cycles: 1144213786 heartbeat IPC: 0.842809 cumulative IPC: 0.695784 (Simulation time: 2 hr 26 min 46 sec) 
Heartbeat CPU 2 instructions: 750000001 cycles: 1144667750 heartbeat IPC: 0.516394 cumulative IPC: 0.475137 (Simulation time: 2 hr 26 min 49 sec) 
Heartbeat CPU 3 instructions: 440000000 cycles: 1153595750 heartbeat IPC: 0.183363 cumulative IPC: 0.209499 (Simulation time: 2 hr 27 min 50 sec) 
Heartbeat CPU 1 instructions: 960000000 cycles: 1156598446 heartbeat IPC: 0.80745 cumulative IPC: 0.697086 (Simulation time: 2 hr 28 min 11 sec) 
Heartbeat CPU 2 instructions: 760000000 cycles: 1164108199 heartbeat IPC: 0.514391 cumulative IPC: 0.475851 (Simulation time: 2 hr 29 min 8 sec) 
Heartbeat CPU 1 instructions: 970000000 cycles: 1168114591 heartbeat IPC: 0.868346 cumulative IPC: 0.698923 (Simulation time: 2 hr 29 min 37 sec) 
Heartbeat CPU 0 instructions: 410000000 cycles: 1169891368 heartbeat IPC: 0.248875 cumulative IPC: 0.195281 (Simulation time: 2 hr 29 min 48 sec) 
Heartbeat CPU 1 instructions: 980000000 cycles: 1179943550 heartbeat IPC: 0.845383 cumulative IPC: 0.700519 (Simulation time: 2 hr 31 min 2 sec) 
Heartbeat CPU 2 instructions: 770000002 cycles: 1184065655 heartbeat IPC: 0.501066 cumulative IPC: 0.476312 (Simulation time: 2 hr 31 min 34 sec) 
Heartbeat CPU 1 instructions: 990000000 cycles: 1192209133 heartbeat IPC: 0.815289 cumulative IPC: 0.701801 (Simulation time: 2 hr 32 min 28 sec) 
Heartbeat CPU 1 instructions: 1000000000 cycles: 1203644800 heartbeat IPC: 0.874457 cumulative IPC: 0.703582 (Simulation time: 2 hr 33 min 44 sec) 
Heartbeat CPU 2 instructions: 780000000 cycles: 1204203800 heartbeat IPC: 0.49657 cumulative IPC: 0.47668 (Simulation time: 2 hr 33 min 48 sec) 
Heartbeat CPU 0 instructions: 420000000 cycles: 1206606755 heartbeat IPC: 0.272365 cumulative IPC: 0.197826 (Simulation time: 2 hr 34 min 3 sec) 
Heartbeat CPU 3 instructions: 450000002 cycles: 1209555374 heartbeat IPC: 0.1787 cumulative IPC: 0.207953 (Simulation time: 2 hr 34 min 22 sec) 
Heartbeat CPU 1 instructions: 1010000000 cycles: 1215402761 heartbeat IPC: 0.850488 cumulative IPC: 0.705123 (Simulation time: 2 hr 35 min 2 sec) 
Heartbeat CPU 2 instructions: 790000000 cycles: 1224746543 heartbeat IPC: 0.48679 cumulative IPC: 0.476864 (Simulation time: 2 hr 36 min 1 sec) 
Heartbeat CPU 1 instructions: 1020000000 cycles: 1227876834 heartbeat IPC: 0.801663 cumulative IPC: 0.706185 (Simulation time: 2 hr 36 min 22 sec) 
Heartbeat CPU 1 instructions: 1030000001 cycles: 1239512758 heartbeat IPC: 0.859408 cumulative IPC: 0.707742 (Simulation time: 2 hr 37 min 37 sec) 
Heartbeat CPU 2 instructions: 800000000 cycles: 1244673870 heartbeat IPC: 0.501823 cumulative IPC: 0.477296 (Simulation time: 2 hr 38 min 9 sec) 
Heartbeat CPU 0 instructions: 430000000 cycles: 1245944770 heartbeat IPC: 0.254207 cumulative IPC: 0.199753 (Simulation time: 2 hr 38 min 17 sec) 
Heartbeat CPU 1 instructions: 1040000000 cycles: 1251236122 heartbeat IPC: 0.852997 cumulative IPC: 0.709214 (Simulation time: 2 hr 38 min 52 sec) 
Heartbeat CPU 1 instructions: 1050000000 cycles: 1263581286 heartbeat IPC: 0.810034 cumulative IPC: 0.710279 (Simulation time: 2 hr 40 min 10 sec) 
Heartbeat CPU 2 instructions: 810000001 cycles: 1265208562 heartbeat IPC: 0.486981 cumulative IPC: 0.477466 (Simulation time: 2 hr 40 min 21 sec) 
Heartbeat CPU 3 instructions: 460000000 cycles: 1267385679 heartbeat IPC: 0.17292 cumulative IPC: 0.206226 (Simulation time: 2 hr 40 min 35 sec) 
Heartbeat CPU 1 instructions: 1060000000 cycles: 1275282498 heartbeat IPC: 0.854612 cumulative IPC: 0.711709 (Simulation time: 2 hr 41 min 25 sec) 
Heartbeat CPU 2 instructions: 820000000 cycles: 1285647853 heartbeat IPC: 0.489254 cumulative IPC: 0.477668 (Simulation time: 2 hr 42 min 32 sec) 
Heartbeat CPU 1 instructions: 1070000002 cycles: 1286790866 heartbeat IPC: 0.868933 cumulative IPC: 0.713227 (Simulation time: 2 hr 42 min 40 sec) 
Heartbeat CPU 0 instructions: 440000000 cycles: 1287388363 heartbeat IPC: 0.241292 cumulative IPC: 0.201196 (Simulation time: 2 hr 42 min 44 sec) 
Heartbeat CPU 1 instructions: 1080000000 cycles: 1299271160 heartbeat IPC: 0.801263 cumulative IPC: 0.714139 (Simulation time: 2 hr 43 min 59 sec) 
Heartbeat CPU 2 instructions: 830000002 cycles: 1306157568 heartbeat IPC: 0.487574 cumulative IPC: 0.477836 (Simulation time: 2 hr 44 min 44 sec) 
Heartbeat CPU 1 instructions: 1090000000 cycles: 1311211910 heartbeat IPC: 0.837468 cumulative IPC: 0.715349 (Simulation time: 2 hr 45 min 15 sec) 
Heartbeat CPU 1 instructions: 1100000000 cycles: 1322726857 heartbeat IPC: 0.868436 cumulative IPC: 0.716785 (Simulation time: 2 hr 46 min 30 sec) 
Heartbeat CPU 2 instructions: 840000000 cycles: 1326416555 heartbeat IPC: 0.493608 cumulative IPC: 0.478096 (Simulation time: 2 hr 46 min 54 sec) 
Heartbeat CPU 3 instructions: 470000002 cycles: 1327056790 heartbeat IPC: 0.167585 cumulative IPC: 0.204355 (Simulation time: 2 hr 46 min 58 sec) 
Heartbeat CPU 0 instructions: 450000000 cycles: 1327747436 heartbeat IPC: 0.247776 cumulative IPC: 0.20272 (Simulation time: 2 hr 47 min 3 sec) 
Heartbeat CPU 1 instructions: 1110000001 cycles: 1335114294 heartbeat IPC: 0.80727 cumulative IPC: 0.717688 (Simulation time: 2 hr 47 min 58 sec) 
Heartbeat CPU 2 instructions: 850000002 cycles: 1346197739 heartbeat IPC: 0.505531 cumulative IPC: 0.478529 (Simulation time: 2 hr 49 min 22 sec) 
Heartbeat CPU 1 instructions: 1120000000 cycles: 1346930569 heartbeat IPC: 0.84629 cumulative IPC: 0.718901 (Simulation time: 2 hr 49 min 26 sec) 
Heartbeat CPU 1 instructions: 1130000001 cycles: 1358260484 heartbeat IPC: 0.882619 cumulative IPC: 0.720369 (Simulation time: 2 hr 50 min 49 sec) 
Heartbeat CPU 0 instructions: 460000000 cycles: 1363951054 heartbeat IPC: 0.276215 cumulative IPC: 0.204816 (Simulation time: 2 hr 51 min 34 sec) 
Heartbeat CPU 2 instructions: 860000000 cycles: 1365715487 heartbeat IPC: 0.512354 cumulative IPC: 0.479048 (Simulation time: 2 hr 51 min 48 sec) 
Heartbeat CPU 1 instructions: 1140000000 cycles: 1371288619 heartbeat IPC: 0.767569 cumulative IPC: 0.720851 (Simulation time: 2 hr 52 min 32 sec) 
Heartbeat CPU 3 instructions: 480000000 cycles: 1378092278 heartbeat IPC: 0.195942 cumulative IPC: 0.204021 (Simulation time: 2 hr 53 min 24 sec) 
Heartbeat CPU 1 instructions: 1150000001 cycles: 1384034860 heartbeat IPC: 0.784545 cumulative IPC: 0.72148 (Simulation time: 2 hr 54 min 9 sec) 
Heartbeat CPU 2 instructions: 870000000 cycles: 1387163609 heartbeat IPC: 0.466241 cumulative IPC: 0.478836 (Simulation time: 2 hr 54 min 30 sec) 
Heartbeat CPU 1 instructions: 1160000000 cycles: 1395860252 heartbeat IPC: 0.845638 cumulative IPC: 0.722609 (Simulation time: 2 hr 55 min 34 sec) 
Heartbeat CPU 0 instructions: 470000001 cycles: 1404366747 heartbeat IPC: 0.247429 cumulative IPC: 0.206131 (Simulation time: 2 hr 56 min 32 sec) 
Heartbeat CPU 2 instructions: 880000000 cycles: 1408368815 heartbeat IPC: 0.471582 cumulative IPC: 0.478719 (Simulation time: 2 hr 57 min 0 sec) 
Heartbeat CPU 1 instructions: 1170000002 cycles: 1409037260 heartbeat IPC: 0.758898 cumulative IPC: 0.722972 (Simulation time: 2 hr 57 min 5 sec) 
Heartbeat CPU 3 instructions: 490000000 cycles: 1420137209 heartbeat IPC: 0.237841 cumulative IPC: 0.205093 (Simulation time: 2 hr 58 min 21 sec) 
Heartbeat CPU 1 instructions: 1180000000 cycles: 1421650366 heartbeat IPC: 0.792826 cumulative IPC: 0.723636 (Simulation time: 2 hr 58 min 30 sec) 
Heartbeat CPU 2 instructions: 890000001 cycles: 1429188449 heartbeat IPC: 0.480316 cumulative IPC: 0.478744 (Simulation time: 2 hr 59 min 20 sec) 
Heartbeat CPU 1 instructions: 1190000000 cycles: 1432793355 heartbeat IPC: 0.897425 cumulative IPC: 0.725083 (Simulation time: 2 hr 59 min 44 sec) 
Heartbeat CPU 1 instructions: 1200000000 cycles: 1445443068 heartbeat IPC: 0.790532 cumulative IPC: 0.725696 (Simulation time: 3 hr 1 min 5 sec) 
Heartbeat CPU 0 instructions: 480000000 cycles: 1447410868 heartbeat IPC: 0.23232 cumulative IPC: 0.206964 (Simulation time: 3 hr 1 min 18 sec) 
Heartbeat CPU 2 instructions: 900000000 cycles: 1448923936 heartbeat IPC: 0.506701 cumulative IPC: 0.479151 (Simulation time: 3 hr 1 min 28 sec) 
Heartbeat CPU 1 instructions: 1210000002 cycles: 1457747556 heartbeat IPC: 0.812712 cumulative IPC: 0.726482 (Simulation time: 3 hr 2 min 24 sec) 
Finished CPU 1 instructions: 1000000001 cycles: 1373917202 cumulative IPC: 0.727846 (Simulation time: 3 hr 3 min 40 sec) 
Heartbeat CPU 1 instructions: 1220000000 cycles: 1468813962 heartbeat IPC: 0.903636 cumulative IPC: 0.727908 (Simulation time: 3 hr 3 min 44 sec) 
Heartbeat CPU 2 instructions: 910000002 cycles: 1469004532 heartbeat IPC: 0.497993 cumulative IPC: 0.479426 (Simulation time: 3 hr 3 min 46 sec) 
Heartbeat CPU 3 instructions: 500000000 cycles: 1473631838 heartbeat IPC: 0.186935 cumulative IPC: 0.204389 (Simulation time: 3 hr 4 min 16 sec) 
Heartbeat CPU 1 instructions: 1230000002 cycles: 1481385131 heartbeat IPC: 0.795471 cumulative IPC: 0.728521 (Simulation time: 3 hr 5 min 12 sec) 
Heartbeat CPU 2 instructions: 920000000 cycles: 1488805657 heartbeat IPC: 0.505022 cumulative IPC: 0.47979 (Simulation time: 3 hr 6 min 8 sec) 
Heartbeat CPU 0 instructions: 490000002 cycles: 1490305389 heartbeat IPC: 0.23313 cumulative IPC: 0.207768 (Simulation time: 3 hr 6 min 19 sec) 
Heartbeat CPU 1 instructions: 1240000000 cycles: 1493607099 heartbeat IPC: 0.818199 cumulative IPC: 0.729304 (Simulation time: 3 hr 6 min 42 sec) 
Heartbeat CPU 1 instructions: 1250000003 cycles: 1504676270 heartbeat IPC: 0.90341 cumulative IPC: 0.730671 (Simulation time: 3 hr 8 min 5 sec) 
Heartbeat CPU 2 instructions: 930000000 cycles: 1508921225 heartbeat IPC: 0.497127 cumulative IPC: 0.480036 (Simulation time: 3 hr 8 min 36 sec) 
Heartbeat CPU 1 instructions: 1260000000 cycles: 1517419887 heartbeat IPC: 0.784706 cumulative IPC: 0.731155 (Simulation time: 3 hr 9 min 36 sec) 
Heartbeat CPU 3 instructions: 510000000 cycles: 1527300170 heartbeat IPC: 0.18633 cumulative IPC: 0.203712 (Simulation time: 3 hr 10 min 42 sec) 
Heartbeat CPU 2 instructions: 940000000 cycles: 1528654092 heartbeat IPC: 0.506769 cumulative IPC: 0.480404 (Simulation time: 3 hr 10 min 50 sec) 
Heartbeat CPU 1 instructions: 1270000002 cycles: 1529812410 heartbeat IPC: 0.806938 cumulative IPC: 0.731809 (Simulation time: 3 hr 10 min 57 sec) 
Heartbeat CPU 0 instructions: 500000000 cycles: 1532348993 heartbeat IPC: 0.237848 cumulative IPC: 0.208648 (Simulation time: 3 hr 11 min 13 sec) 
Heartbeat CPU 1 instructions: 1280000000 cycles: 1540883258 heartbeat IPC: 0.903273 cumulative IPC: 0.733121 (Simulation time: 3 hr 12 min 10 sec) 
Heartbeat CPU 2 instructions: 950000001 cycles: 1549310471 heartbeat IPC: 0.484112 cumulative IPC: 0.480457 (Simulation time: 3 hr 13 min 6 sec) 
Heartbeat CPU 1 instructions: 1290000003 cycles: 1553642291 heartbeat IPC: 0.783759 cumulative IPC: 0.733564 (Simulation time: 3 hr 13 min 37 sec) 
Heartbeat CPU 1 instructions: 1300000000 cycles: 1566556592 heartbeat IPC: 0.774335 cumulative IPC: 0.733922 (Simulation time: 3 hr 15 min 3 sec) 
Heartbeat CPU 2 instructions: 960000000 cycles: 1571194093 heartbeat IPC: 0.456963 cumulative IPC: 0.480109 (Simulation time: 3 hr 15 min 36 sec) 
Heartbeat CPU 3 instructions: 520000000 cycles: 1572076770 heartbeat IPC: 0.223331 cumulative IPC: 0.204307 (Simulation time: 3 hr 15 min 42 sec) 
Heartbeat CPU 0 instructions: 510000000 cycles: 1575883482 heartbeat IPC: 0.229703 cumulative IPC: 0.209267 (Simulation time: 3 hr 16 min 9 sec) 
Heartbeat CPU 1 instructions: 1310000003 cycles: 1578251839 heartbeat IPC: 0.855048 cumulative IPC: 0.734877 (Simulation time: 3 hr 16 min 25 sec) 
Heartbeat CPU 1 instructions: 1320000000 cycles: 1591408958 heartbeat IPC: 0.760045 cumulative IPC: 0.735098 (Simulation time: 3 hr 17 min 54 sec) 
Heartbeat CPU 2 instructions: 970000001 cycles: 1592463041 heartbeat IPC: 0.470169 cumulative IPC: 0.479968 (Simulation time: 3 hr 18 min 1 sec) 
Heartbeat CPU 1 instructions: 1330000003 cycles: 1604507702 heartbeat IPC: 0.763432 cumulative IPC: 0.735344 (Simulation time: 3 hr 19 min 21 sec) 
Heartbeat CPU 2 instructions: 980000000 cycles: 1613041822 heartbeat IPC: 0.485937 cumulative IPC: 0.480049 (Simulation time: 3 hr 20 min 19 sec) 
Heartbeat CPU 1 instructions: 1340000000 cycles: 1615582903 heartbeat IPC: 0.902918 cumulative IPC: 0.736564 (Simulation time: 3 hr 20 min 36 sec) 
Heartbeat CPU 3 instructions: 530000001 cycles: 1616452790 heartbeat IPC: 0.225347 cumulative IPC: 0.204921 (Simulation time: 3 hr 20 min 41 sec) 
Heartbeat CPU 0 instructions: 520000000 cycles: 1619001658 heartbeat IPC: 0.231921 cumulative IPC: 0.209907 (Simulation time: 3 hr 20 min 58 sec) 
Heartbeat CPU 1 instructions: 1350000000 cycles: 1627660068 heartbeat IPC: 0.828009 cumulative IPC: 0.737284 (Simulation time: 3 hr 21 min 55 sec) 
Heartbeat CPU 2 instructions: 990000003 cycles: 1631850028 heartbeat IPC: 0.531683 cumulative IPC: 0.48068 (Simulation time: 3 hr 22 min 24 sec) 
Heartbeat CPU 1 instructions: 1360000000 cycles: 1639758594 heartbeat IPC: 0.826547 cumulative IPC: 0.737983 (Simulation time: 3 hr 23 min 15 sec) 
Heartbeat CPU 1 instructions: 1370000000 cycles: 1650732904 heartbeat IPC: 0.911219 cumulative IPC: 0.739205 (Simulation time: 3 hr 24 min 29 sec) 
Heartbeat CPU 2 instructions: 1000000000 cycles: 1650775749 heartbeat IPC: 0.528381 cumulative IPC: 0.48126 (Simulation time: 3 hr 24 min 29 sec) 
Heartbeat CPU 0 instructions: 530000000 cycles: 1659856860 heartbeat IPC: 0.244767 cumulative IPC: 0.210817 (Simulation time: 3 hr 25 min 28 sec) 
Heartbeat CPU 1 instructions: 1380000000 cycles: 1663058465 heartbeat IPC: 0.811322 cumulative IPC: 0.739771 (Simulation time: 3 hr 25 min 49 sec) 
Heartbeat CPU 3 instructions: 540000000 cycles: 1666189533 heartbeat IPC: 0.201059 cumulative IPC: 0.204798 (Simulation time: 3 hr 26 min 10 sec) 
Heartbeat CPU 2 instructions: 1010000000 cycles: 1669697214 heartbeat IPC: 0.5285 cumulative IPC: 0.481828 (Simulation time: 3 hr 26 min 34 sec) 
Heartbeat CPU 1 instructions: 1390000000 cycles: 1675281987 heartbeat IPC: 0.818095 cumulative IPC: 0.740377 (Simulation time: 3 hr 27 min 9 sec) 
Heartbeat CPU 1 instructions: 1400000000 cycles: 1686197829 heartbeat IPC: 0.9161 cumulative IPC: 0.741582 (Simulation time: 3 hr 28 min 23 sec) 
Heartbeat CPU 2 instructions: 1020000000 cycles: 1688855980 heartbeat IPC: 0.521954 cumulative IPC: 0.48231 (Simulation time: 3 hr 28 min 40 sec) 
Heartbeat CPU 1 instructions: 1410000002 cycles: 1698241003 heartbeat IPC: 0.830346 cumulative IPC: 0.742249 (Simulation time: 3 hr 29 min 43 sec) 
Heartbeat CPU 0 instructions: 540000000 cycles: 1700465484 heartbeat IPC: 0.246253 cumulative IPC: 0.211713 (Simulation time: 3 hr 29 min 58 sec) 
Heartbeat CPU 2 instructions: 1030000001 cycles: 1707928514 heartbeat IPC: 0.524314 cumulative IPC: 0.482807 (Simulation time: 3 hr 30 min 47 sec) 
Heartbeat CPU 1 instructions: 1420000000 cycles: 1710529780 heartbeat IPC: 0.81375 cumulative IPC: 0.742792 (Simulation time: 3 hr 31 min 4 sec) 
Heartbeat CPU 3 instructions: 550000000 cycles: 1716103247 heartbeat IPC: 0.200346 cumulative IPC: 0.204661 (Simulation time: 3 hr 31 min 42 sec) 
Heartbeat CPU 1 instructions: 1430000001 cycles: 1722279165 heartbeat IPC: 0.851108 cumulative IPC: 0.743574 (Simulation time: 3 hr 32 min 23 sec) 
Heartbeat CPU 2 instructions: 1040000000 cycles: 1729631787 heartbeat IPC: 0.46076 cumulative IPC: 0.482514 (Simulation time: 3 hr 33 min 12 sec) 
Heartbeat CPU 1 instructions: 1440000000 cycles: 1735684841 heartbeat IPC: 0.745953 cumulative IPC: 0.743594 (Simulation time: 3 hr 33 min 56 sec) 
Heartbeat CPU 0 instructions: 550000000 cycles: 1743695992 heartbeat IPC: 0.231318 cumulative IPC: 0.212227 (Simulation time: 3 hr 34 min 56 sec) 
Heartbeat CPU 1 instructions: 1450000001 cycles: 1749047030 heartbeat IPC: 0.74838 cumulative IPC: 0.743632 (Simulation time: 3 hr 35 min 36 sec) 
Heartbeat CPU 2 instructions: 1050000001 cycles: 1752972157 heartbeat IPC: 0.428442 cumulative IPC: 0.481753 (Simulation time: 3 hr 36 min 8 sec) 
Heartbeat CPU 1 instructions: 1460000000 cycles: 1761122577 heartbeat IPC: 0.82812 cumulative IPC: 0.744244 (Simulation time: 3 hr 37 min 13 sec) 
Heartbeat CPU 3 instructions: 560000000 cycles: 1763488148 heartbeat IPC: 0.211038 cumulative IPC: 0.204842 (Simulation time: 3 hr 37 min 30 sec) 
Heartbeat CPU 1 instructions: 1470000000 cycles: 1774056593 heartbeat IPC: 0.773155 cumulative IPC: 0.744467 (Simulation time: 3 hr 38 min 49 sec) 
Heartbeat CPU 2 instructions: 1060000000 cycles: 1775903096 heartbeat IPC: 0.436092 cumulative IPC: 0.48113 (Simulation time: 3 hr 39 min 1 sec) 
Heartbeat CPU 1 instructions: 1480000000 cycles: 1786941177 heartbeat IPC: 0.776121 cumulative IPC: 0.744708 (Simulation time: 3 hr 40 min 14 sec) 
Heartbeat CPU 2 instructions: 1070000002 cycles: 1796822640 heartbeat IPC: 0.478022 cumulative IPC: 0.481092 (Simulation time: 3 hr 41 min 16 sec) 
Heartbeat CPU 1 instructions: 1490000003 cycles: 1798094742 heartbeat IPC: 0.896575 cumulative IPC: 0.745702 (Simulation time: 3 hr 41 min 24 sec) 
Heartbeat CPU 0 instructions: 560000000 cycles: 1800363638 heartbeat IPC: 0.176468 cumulative IPC: 0.211039 (Simulation time: 3 hr 41 min 38 sec) 
Heartbeat CPU 3 instructions: 570000000 cycles: 1808587108 heartbeat IPC: 0.221735 cumulative IPC: 0.205287 (Simulation time: 3 hr 42 min 30 sec) 
Heartbeat CPU 1 instructions: 1500000000 cycles: 1810252350 heartbeat IPC: 0.82253 cumulative IPC: 0.746247 (Simulation time: 3 hr 42 min 40 sec) 
Heartbeat CPU 2 instructions: 1080000000 cycles: 1815774604 heartbeat IPC: 0.52765 cumulative IPC: 0.481605 (Simulation time: 3 hr 43 min 16 sec) 
Heartbeat CPU 1 instructions: 1510000001 cycles: 1822360928 heartbeat IPC: 0.825861 cumulative IPC: 0.746805 (Simulation time: 3 hr 43 min 55 sec) 
Heartbeat CPU 1 instructions: 1520000000 cycles: 1833251517 heartbeat IPC: 0.918224 cumulative IPC: 0.747878 (Simulation time: 3 hr 45 min 5 sec) 
Heartbeat CPU 2 instructions: 1090000003 cycles: 1834899200 heartbeat IPC: 0.522887 cumulative IPC: 0.482058 (Simulation time: 3 hr 45 min 15 sec) 
Heartbeat CPU 1 instructions: 1530000001 cycles: 1845036449 heartbeat IPC: 0.848541 cumulative IPC: 0.748556 (Simulation time: 3 hr 46 min 19 sec) 
Heartbeat CPU 2 instructions: 1100000000 cycles: 1853984457 heartbeat IPC: 0.523964 cumulative IPC: 0.482513 (Simulation time: 3 hr 47 min 14 sec) 
Heartbeat CPU 3 instructions: 580000000 cycles: 1854606195 heartbeat IPC: 0.217301 cumulative IPC: 0.205601 (Simulation time: 3 hr 47 min 18 sec) 
Heartbeat CPU 1 instructions: 1540000000 cycles: 1857337592 heartbeat IPC: 0.812932 cumulative IPC: 0.749005 (Simulation time: 3 hr 47 min 35 sec) 
Heartbeat CPU 0 instructions: 570000002 cycles: 1865973134 heartbeat IPC: 0.152417 cumulative IPC: 0.208868 (Simulation time: 3 hr 48 min 31 sec) 
Heartbeat CPU 1 instructions: 1550000000 cycles: 1868430196 heartbeat IPC: 0.901502 cumulative IPC: 0.749959 (Simulation time: 3 hr 48 min 45 sec) 
Heartbeat CPU 2 instructions: 1110000002 cycles: 1872863376 heartbeat IPC: 0.529691 cumulative IPC: 0.483014 (Simulation time: 3 hr 49 min 12 sec) 
Heartbeat CPU 1 instructions: 1560000000 cycles: 1880446180 heartbeat IPC: 0.832225 cumulative IPC: 0.750512 (Simulation time: 3 hr 50 min 0 sec) 
Heartbeat CPU 2 instructions: 1120000000 cycles: 1891720288 heartbeat IPC: 0.530309 cumulative IPC: 0.48351 (Simulation time: 3 hr 51 min 10 sec) 
Heartbeat CPU 1 instructions: 1570000002 cycles: 1892702082 heartbeat IPC: 0.815934 cumulative IPC: 0.750958 (Simulation time: 3 hr 51 min 16 sec) 
Heartbeat CPU 3 instructions: 590000002 cycles: 1899722482 heartbeat IPC: 0.221649 cumulative IPC: 0.206002 (Simulation time: 3 hr 52 min 3 sec) 
Heartbeat CPU 1 instructions: 1580000000 cycles: 1903861970 heartbeat IPC: 0.896066 cumulative IPC: 0.751853 (Simulation time: 3 hr 52 min 30 sec) 
Heartbeat CPU 2 instructions: 1130000003 cycles: 1910668742 heartbeat IPC: 0.527748 cumulative IPC: 0.483971 (Simulation time: 3 hr 53 min 18 sec) 
Heartbeat CPU 1 instructions: 1590000002 cycles: 1915674971 heartbeat IPC: 0.846525 cumulative IPC: 0.752467 (Simulation time: 3 hr 53 min 55 sec) 
Heartbeat CPU 0 instructions: 580000000 cycles: 1918482320 heartbeat IPC: 0.190443 cumulative IPC: 0.208338 (Simulation time: 3 hr 54 min 16 sec) 
Heartbeat CPU 1 instructions: 1600000000 cycles: 1928189509 heartbeat IPC: 0.79907 cumulative IPC: 0.752785 (Simulation time: 3 hr 55 min 21 sec) 
Heartbeat CPU 3 instructions: 600000000 cycles: 1936994444 heartbeat IPC: 0.268298 cumulative IPC: 0.207262 (Simulation time: 3 hr 56 min 19 sec) 
Heartbeat CPU 2 instructions: 1140000000 cycles: 1938895954 heartbeat IPC: 0.354268 cumulative IPC: 0.481986 (Simulation time: 3 hr 56 min 31 sec) 
Heartbeat CPU 1 instructions: 1610000002 cycles: 1940392546 heartbeat IPC: 0.819468 cumulative IPC: 0.753226 (Simulation time: 3 hr 56 min 41 sec) 
Heartbeat CPU 1 instructions: 1620000000 cycles: 1952504517 heartbeat IPC: 0.825629 cumulative IPC: 0.753698 (Simulation time: 3 hr 58 min 7 sec) 
Heartbeat CPU 0 instructions: 590000001 cycles: 1955681460 heartbeat IPC: 0.268823 cumulative IPC: 0.209547 (Simulation time: 3 hr 58 min 30 sec) 
Heartbeat CPU 2 instructions: 1150000003 cycles: 1958146423 heartbeat IPC: 0.519468 cumulative IPC: 0.482374 (Simulation time: 3 hr 58 min 48 sec) 
Heartbeat CPU 1 instructions: 1630000001 cycles: 1964945097 heartbeat IPC: 0.803821 cumulative IPC: 0.754032 (Simulation time: 3 hr 59 min 35 sec) 
Heartbeat CPU 3 instructions: 610000002 cycles: 1972851861 heartbeat IPC: 0.278882 cumulative IPC: 0.208629 (Simulation time: 4 hr 0 min 31 sec) 
Heartbeat CPU 1 instructions: 1640000000 cycles: 1976421321 heartbeat IPC: 0.871367 cumulative IPC: 0.754747 (Simulation time: 4 hr 0 min 55 sec) 
Heartbeat CPU 2 instructions: 1160000000 cycles: 1976612996 heartbeat IPC: 0.541519 cumulative IPC: 0.482954 (Simulation time: 4 hr 0 min 56 sec) 
Heartbeat CPU 1 instructions: 1650000002 cycles: 1988377846 heartbeat IPC: 0.836364 cumulative IPC: 0.755262 (Simulation time: 4 hr 2 min 17 sec) 
Heartbeat CPU 0 instructions: 600000000 cycles: 1993296161 heartbeat IPC: 0.265853 cumulative IPC: 0.210662 (Simulation time: 4 hr 2 min 48 sec) 
Heartbeat CPU 2 instructions: 1170000001 cycles: 1996776081 heartbeat IPC: 0.495956 cumulative IPC: 0.483092 (Simulation time: 4 hr 3 min 9 sec) 
Heartbeat CPU 1 instructions: 1660000000 cycles: 2001420348 heartbeat IPC: 0.766724 cumulative IPC: 0.755341 (Simulation time: 4 hr 3 min 39 sec) 
Heartbeat CPU 3 instructions: 620000000 cycles: 2012791019 heartbeat IPC: 0.250381 cumulative IPC: 0.209499 (Simulation time: 4 hr 4 min 52 sec) 
Heartbeat CPU 1 instructions: 1670000002 cycles: 2013755293 heartbeat IPC: 0.810705 cumulative IPC: 0.755697 (Simulation time: 4 hr 4 min 58 sec) 
Heartbeat CPU 2 instructions: 1180000000 cycles: 2018194419 heartbeat IPC: 0.46689 cumulative IPC: 0.482911 (Simulation time: 4 hr 5 min 26 sec) 
Heartbeat CPU 1 instructions: 1680000000 cycles: 2026174268 heartbeat IPC: 0.805219 cumulative IPC: 0.756015 (Simulation time: 4 hr 6 min 18 sec) 
Heartbeat CPU 1 instructions: 1690000003 cycles: 2039193103 heartbeat IPC: 0.768118 cumulative IPC: 0.756096 (Simulation time: 4 hr 7 min 40 sec) 
Heartbeat CPU 2 instructions: 1190000002 cycles: 2040130048 heartbeat IPC: 0.455879 cumulative IPC: 0.482607 (Simulation time: 4 hr 7 min 46 sec) 
Heartbeat CPU 0 instructions: 610000003 cycles: 2041350682 heartbeat IPC: 0.208097 cumulative IPC: 0.210599 (Simulation time: 4 hr 7 min 54 sec) 
Heartbeat CPU 1 instructions: 1700000000 cycles: 2051039086 heartbeat IPC: 0.844168 cumulative IPC: 0.756629 (Simulation time: 4 hr 8 min 56 sec) 
Heartbeat CPU 3 instructions: 630000000 cycles: 2054506103 heartbeat IPC: 0.239721 cumulative IPC: 0.210142 (Simulation time: 4 hr 9 min 17 sec) 
Heartbeat CPU 2 instructions: 1200000000 cycles: 2060542601 heartbeat IPC: 0.489895 cumulative IPC: 0.482682 (Simulation time: 4 hr 9 min 57 sec) 
Heartbeat CPU 1 instructions: 1710000003 cycles: 2062608475 heartbeat IPC: 0.86435 cumulative IPC: 0.757263 (Simulation time: 4 hr 10 min 10 sec) 
Heartbeat CPU 1 instructions: 1720000000 cycles: 2075037626 heartbeat IPC: 0.80456 cumulative IPC: 0.757559 (Simulation time: 4 hr 11 min 30 sec) 
Heartbeat CPU 2 instructions: 1210000001 cycles: 2080579366 heartbeat IPC: 0.499083 cumulative IPC: 0.482848 (Simulation time: 4 hr 12 min 6 sec) 
Heartbeat CPU 0 instructions: 620000000 cycles: 2083866348 heartbeat IPC: 0.235207 cumulative IPC: 0.211125 (Simulation time: 4 hr 12 min 28 sec) 
Heartbeat CPU 1 instructions: 1730000000 cycles: 2086990411 heartbeat IPC: 0.836625 cumulative IPC: 0.758034 (Simulation time: 4 hr 12 min 46 sec) 
Heartbeat CPU 3 instructions: 640000000 cycles: 2094170548 heartbeat IPC: 0.252115 cumulative IPC: 0.210974 (Simulation time: 4 hr 13 min 33 sec) 
Heartbeat CPU 1 instructions: 1740000000 cycles: 2098654015 heartbeat IPC: 0.857368 cumulative IPC: 0.758612 (Simulation time: 4 hr 14 min 3 sec) 
Heartbeat CPU 2 instructions: 1220000000 cycles: 2100687086 heartbeat IPC: 0.497321 cumulative IPC: 0.482993 (Simulation time: 4 hr 14 min 16 sec) 
Heartbeat CPU 1 instructions: 1750000000 cycles: 2111021392 heartbeat IPC: 0.808579 cumulative IPC: 0.758918 (Simulation time: 4 hr 15 min 23 sec) 
Heartbeat CPU 2 instructions: 1230000002 cycles: 2120787008 heartbeat IPC: 0.497514 cumulative IPC: 0.483137 (Simulation time: 4 hr 16 min 28 sec) 
Heartbeat CPU 0 instructions: 630000002 cycles: 2122855839 heartbeat IPC: 0.256479 cumulative IPC: 0.211996 (Simulation time: 4 hr 16 min 41 sec) 
Heartbeat CPU 1 instructions: 1760000000 cycles: 2122997279 heartbeat IPC: 0.835011 cumulative IPC: 0.759368 (Simulation time: 4 hr 16 min 42 sec) 
Heartbeat CPU 3 instructions: 650000001 cycles: 2133895425 heartbeat IPC: 0.251731 cumulative IPC: 0.211768 (Simulation time: 4 hr 17 min 54 sec) 
Heartbeat CPU 1 instructions: 1770000000 cycles: 2134405717 heartbeat IPC: 0.876544 cumulative IPC: 0.760023 (Simulation time: 4 hr 17 min 57 sec) 
Heartbeat CPU 2 instructions: 1240000000 cycles: 2141186475 heartbeat IPC: 0.490209 cumulative IPC: 0.483207 (Simulation time: 4 hr 18 min 42 sec) 
Heartbeat CPU 1 instructions: 1780000000 cycles: 2147424459 heartbeat IPC: 0.768123 cumulative IPC: 0.760074 (Simulation time: 4 hr 19 min 22 sec) 
Heartbeat CPU 1 instructions: 1790000000 cycles: 2160096035 heartbeat IPC: 0.789168 cumulative IPC: 0.760253 (Simulation time: 4 hr 20 min 45 sec) 
Heartbeat CPU 0 instructions: 640000000 cycles: 2164138888 heartbeat IPC: 0.24223 cumulative IPC: 0.2126 (Simulation time: 4 hr 21 min 12 sec) 
Heartbeat CPU 2 instructions: 1250000000 cycles: 2164604874 heartbeat IPC: 0.427015 cumulative IPC: 0.482572 (Simulation time: 4 hr 21 min 16 sec) 
Finished CPU 2 instructions: 1000000001 cycles: 2072364986 cumulative IPC: 0.48254 (Simulation time: 4 hr 21 min 32 sec) 
Heartbeat CPU 1 instructions: 1800000000 cycles: 2172092789 heartbeat IPC: 0.833559 cumulative IPC: 0.760676 (Simulation time: 4 hr 22 min 8 sec) 
Heartbeat CPU 3 instructions: 660000000 cycles: 2175805314 heartbeat IPC: 0.238607 cumulative IPC: 0.212309 (Simulation time: 4 hr 22 min 33 sec) 
Heartbeat CPU 1 instructions: 1810000001 cycles: 2185381564 heartbeat IPC: 0.752515 cumulative IPC: 0.760624 (Simulation time: 4 hr 23 min 37 sec) 
Heartbeat CPU 2 instructions: 1260000000 cycles: 2187578667 heartbeat IPC: 0.435279 cumulative IPC: 0.482053 (Simulation time: 4 hr 23 min 52 sec) 
Heartbeat CPU 1 instructions: 1820000000 cycles: 2198205145 heartbeat IPC: 0.779813 cumulative IPC: 0.760741 (Simulation time: 4 hr 25 min 3 sec) 
Heartbeat CPU 0 instructions: 650000001 cycles: 2208409122 heartbeat IPC: 0.225885 cumulative IPC: 0.212878 (Simulation time: 4 hr 26 min 14 sec) 
Heartbeat CPU 2 instructions: 1270000000 cycles: 2209338592 heartbeat IPC: 0.45956 cumulative IPC: 0.481821 (Simulation time: 4 hr 26 min 21 sec) 
Heartbeat CPU 1 instructions: 1830000003 cycles: 2209471656 heartbeat IPC: 0.887586 cumulative IPC: 0.761417 (Simulation time: 4 hr 26 min 22 sec) 
Heartbeat CPU 3 instructions: 670000002 cycles: 2214788107 heartbeat IPC: 0.256523 cumulative IPC: 0.213122 (Simulation time: 4 hr 27 min 6 sec) 
Heartbeat CPU 1 instructions: 1840000000 cycles: 2221985469 heartbeat IPC: 0.799117 cumulative IPC: 0.761639 (Simulation time: 4 hr 28 min 1 sec) 
Heartbeat CPU 2 instructions: 1280000000 cycles: 2229086912 heartbeat IPC: 0.506372 cumulative IPC: 0.482048 (Simulation time: 4 hr 28 min 58 sec) 
Heartbeat CPU 1 instructions: 1850000003 cycles: 2234244530 heartbeat IPC: 0.815723 cumulative IPC: 0.761948 (Simulation time: 4 hr 29 min 34 sec) 
Heartbeat CPU 1 instructions: 1860000000 cycles: 2245455857 heartbeat IPC: 0.891955 cumulative IPC: 0.762626 (Simulation time: 4 hr 31 min 2 sec) 
Heartbeat CPU 2 instructions: 1290000000 cycles: 2248466133 heartbeat IPC: 0.516017 cumulative IPC: 0.482354 (Simulation time: 4 hr 31 min 24 sec) 
Heartbeat CPU 3 instructions: 680000000 cycles: 2249075568 heartbeat IPC: 0.291652 cumulative IPC: 0.214371 (Simulation time: 4 hr 31 min 29 sec) 
Heartbeat CPU 0 instructions: 660000000 cycles: 2249920044 heartbeat IPC: 0.2409 cumulative IPC: 0.213417 (Simulation time: 4 hr 31 min 36 sec) 
Heartbeat CPU 1 instructions: 1870000003 cycles: 2257895579 heartbeat IPC: 0.803877 cumulative IPC: 0.762863 (Simulation time: 4 hr 32 min 34 sec) 
Heartbeat CPU 2 instructions: 1300000000 cycles: 2267333451 heartbeat IPC: 0.530017 cumulative IPC: 0.482768 (Simulation time: 4 hr 33 min 49 sec) 
Heartbeat CPU 1 instructions: 1880000000 cycles: 2270083293 heartbeat IPC: 0.820498 cumulative IPC: 0.763186 (Simulation time: 4 hr 34 min 10 sec) 
Heartbeat CPU 1 instructions: 1890000002 cycles: 2281133257 heartbeat IPC: 0.90498 cumulative IPC: 0.763903 (Simulation time: 4 hr 35 min 45 sec) 
Heartbeat CPU 3 instructions: 690000003 cycles: 2284107835 heartbeat IPC: 0.285451 cumulative IPC: 0.215509 (Simulation time: 4 hr 36 min 6 sec) 
Heartbeat CPU 2 instructions: 1310000000 cycles: 2287199805 heartbeat IPC: 0.503364 cumulative IPC: 0.482954 (Simulation time: 4 hr 36 min 28 sec) 
Heartbeat CPU 0 instructions: 670000003 cycles: 2292835973 heartbeat IPC: 0.233014 cumulative IPC: 0.2138 (Simulation time: 4 hr 37 min 11 sec) 
Heartbeat CPU 1 instructions: 1900000000 cycles: 2294144082 heartbeat IPC: 0.768591 cumulative IPC: 0.76393 (Simulation time: 4 hr 37 min 22 sec) 
Heartbeat CPU 1 instructions: 1910000002 cycles: 2307185466 heartbeat IPC: 0.76679 cumulative IPC: 0.763947 (Simulation time: 4 hr 38 min 54 sec) 
Heartbeat CPU 2 instructions: 1320000000 cycles: 2308871659 heartbeat IPC: 0.461428 cumulative IPC: 0.482744 (Simulation time: 4 hr 39 min 6 sec) 
Heartbeat CPU 1 instructions: 1920000000 cycles: 2318881804 heartbeat IPC: 0.854968 cumulative IPC: 0.764426 (Simulation time: 4 hr 40 min 15 sec) 
Heartbeat CPU 3 instructions: 700000000 cycles: 2325379912 heartbeat IPC: 0.242294 cumulative IPC: 0.216004 (Simulation time: 4 hr 40 min 58 sec) 
Heartbeat CPU 2 instructions: 1330000002 cycles: 2330827234 heartbeat IPC: 0.455465 cumulative IPC: 0.482476 (Simulation time: 4 hr 41 min 35 sec) 
Heartbeat CPU 1 instructions: 1930000000 cycles: 2331910944 heartbeat IPC: 0.76751 cumulative IPC: 0.764444 (Simulation time: 4 hr 41 min 42 sec) 
Heartbeat CPU 0 instructions: 680000000 cycles: 2338584097 heartbeat IPC: 0.218588 cumulative IPC: 0.213898 (Simulation time: 4 hr 42 min 28 sec) 
Heartbeat CPU 1 instructions: 1940000000 cycles: 2344644794 heartbeat IPC: 0.785308 cumulative IPC: 0.764562 (Simulation time: 4 hr 43 min 10 sec) 
Heartbeat CPU 2 instructions: 1340000000 cycles: 2350997852 heartbeat IPC: 0.495771 cumulative IPC: 0.482595 (Simulation time: 4 hr 43 min 58 sec) 
Heartbeat CPU 1 instructions: 1950000000 cycles: 2355675334 heartbeat IPC: 0.906574 cumulative IPC: 0.765255 (Simulation time: 4 hr 44 min 34 sec) 
Heartbeat CPU 3 instructions: 710000002 cycles: 2360100104 heartbeat IPC: 0.288017 cumulative IPC: 0.217108 (Simulation time: 4 hr 45 min 5 sec) 
Heartbeat CPU 1 instructions: 1960000000 cycles: 2368051463 heartbeat IPC: 0.808007 cumulative IPC: 0.765487 (Simulation time: 4 hr 46 min 4 sec) 
Heartbeat CPU 2 instructions: 1350000002 cycles: 2369012131 heartbeat IPC: 0.555115 cumulative IPC: 0.483169 (Simulation time: 4 hr 46 min 11 sec) 
Heartbeat CPU 0 instructions: 690000001 cycles: 2378568196 heartbeat IPC: 0.250099 cumulative IPC: 0.214531 (Simulation time: 4 hr 47 min 20 sec) 
Heartbeat CPU 1 instructions: 1970000002 cycles: 2380512115 heartbeat IPC: 0.802526 cumulative IPC: 0.765689 (Simulation time: 4 hr 47 min 34 sec) 
Heartbeat CPU 2 instructions: 1360000000 cycles: 2387434447 heartbeat IPC: 0.54282 cumulative IPC: 0.483648 (Simulation time: 4 hr 48 min 26 sec) 
Heartbeat CPU 3 instructions: 720000000 cycles: 2391215014 heartbeat IPC: 0.321389 cumulative IPC: 0.218521 (Simulation time: 4 hr 48 min 54 sec) 
Heartbeat CPU 1 instructions: 1980000000 cycles: 2391695012 heartbeat IPC: 0.894222 cumulative IPC: 0.766315 (Simulation time: 4 hr 48 min 57 sec) 
Heartbeat CPU 1 instructions: 1990000003 cycles: 2404039306 heartbeat IPC: 0.810091 cumulative IPC: 0.766549 (Simulation time: 4 hr 50 min 26 sec) 
Heartbeat CPU 2 instructions: 1370000000 cycles: 2405752771 heartbeat IPC: 0.545901 cumulative IPC: 0.484142 (Simulation time: 4 hr 50 min 39 sec) 
*** Reached end of trace for Core: 1 Repeating trace: /scratch/user/djimenez/champsim-traces/speccpu2006/xz//434.zeusmp-10B.champsimtrace.xz
Heartbeat CPU 1 instructions: 2000000000 cycles: 2416275000 heartbeat IPC: 0.817281 cumulative IPC: 0.766816 (Simulation time: 4 hr 51 min 55 sec) 
Heartbeat CPU 0 instructions: 700000000 cycles: 2419342034 heartbeat IPC: 0.245255 cumulative IPC: 0.21507 (Simulation time: 4 hr 52 min 17 sec) 
Heartbeat CPU 3 instructions: 730000000 cycles: 2422647209 heartbeat IPC: 0.318145 cumulative IPC: 0.219866 (Simulation time: 4 hr 52 min 40 sec) 
Heartbeat CPU 2 instructions: 1380000000 cycles: 2424178775 heartbeat IPC: 0.542711 cumulative IPC: 0.484605 (Simulation time: 4 hr 52 min 51 sec) 
Heartbeat CPU 1 instructions: 2010000001 cycles: 2429252531 heartbeat IPC: 0.770563 cumulative IPC: 0.766837 (Simulation time: 4 hr 53 min 27 sec) 
Heartbeat CPU 1 instructions: 2020000000 cycles: 2442285036 heartbeat IPC: 0.767312 cumulative IPC: 0.76684 (Simulation time: 4 hr 54 min 59 sec) 
Heartbeat CPU 2 instructions: 1390000000 cycles: 2442614134 heartbeat IPC: 0.542436 cumulative IPC: 0.485059 (Simulation time: 4 hr 55 min 2 sec) 
Heartbeat CPU 3 instructions: 740000000 cycles: 2454118097 heartbeat IPC: 0.317754 cumulative IPC: 0.221171 (Simulation time: 4 hr 56 min 23 sec) 
Heartbeat CPU 1 instructions: 2030000001 cycles: 2455509980 heartbeat IPC: 0.756147 cumulative IPC: 0.76678 (Simulation time: 4 hr 56 min 33 sec) 
Heartbeat CPU 0 instructions: 710000001 cycles: 2460298239 heartbeat IPC: 0.244163 cumulative IPC: 0.215574 (Simulation time: 4 hr 57 min 7 sec) 
Heartbeat CPU 2 instructions: 1400000000 cycles: 2461281801 heartbeat IPC: 0.535686 cumulative IPC: 0.485458 (Simulation time: 4 hr 57 min 14 sec) 
Heartbeat CPU 1 instructions: 2040000000 cycles: 2468339179 heartbeat IPC: 0.779472 cumulative IPC: 0.766849 (Simulation time: 4 hr 58 min 3 sec) 
Heartbeat CPU 2 instructions: 1410000003 cycles: 2479978850 heartbeat IPC: 0.534844 cumulative IPC: 0.485845 (Simulation time: 4 hr 59 min 26 sec) 
Heartbeat CPU 1 instructions: 2050000003 cycles: 2481357054 heartbeat IPC: 0.768175 cumulative IPC: 0.766856 (Simulation time: 4 hr 59 min 35 sec) 
Heartbeat CPU 3 instructions: 750000000 cycles: 2486326973 heartbeat IPC: 0.310473 cumulative IPC: 0.222374 (Simulation time: 5 hr 0 min 11 sec) 
Heartbeat CPU 1 instructions: 2060000000 cycles: 2495362378 heartbeat IPC: 0.714014 cumulative IPC: 0.766548 (Simulation time: 5 hr 1 min 11 sec) 
Heartbeat CPU 2 instructions: 1420000000 cycles: 2502076472 heartbeat IPC: 0.452537 cumulative IPC: 0.48554 (Simulation time: 5 hr 1 min 56 sec) 
Heartbeat CPU 0 instructions: 720000000 cycles: 2503283914 heartbeat IPC: 0.232636 cumulative IPC: 0.215878 (Simulation time: 5 hr 2 min 4 sec) 
Heartbeat CPU 1 instructions: 2070000001 cycles: 2509223753 heartbeat IPC: 0.721429 cumulative IPC: 0.766289 (Simulation time: 5 hr 2 min 44 sec) 
Heartbeat CPU 1 instructions: 2080000000 cycles: 2523423831 heartbeat IPC: 0.704221 cumulative IPC: 0.765926 (Simulation time: 5 hr 4 min 18 sec) 
Heartbeat CPU 2 instructions: 1430000001 cycles: 2525105945 heartbeat IPC: 0.434226 cumulative IPC: 0.485053 (Simulation time: 5 hr 4 min 29 sec) 
Heartbeat CPU 3 instructions: 760000000 cycles: 2532989977 heartbeat IPC: 0.214303 cumulative IPC: 0.222219 (Simulation time: 5 hr 5 min 21 sec) 
Heartbeat CPU 1 instructions: 2090000003 cycles: 2537726545 heartbeat IPC: 0.699168 cumulative IPC: 0.765535 (Simulation time: 5 hr 5 min 51 sec) 
Heartbeat CPU 2 instructions: 1440000000 cycles: 2548174758 heartbeat IPC: 0.433486 cumulative IPC: 0.484569 (Simulation time: 5 hr 6 min 58 sec) 
Heartbeat CPU 0 instructions: 730000003 cycles: 2550527944 heartbeat IPC: 0.211667 cumulative IPC: 0.215797 (Simulation time: 5 hr 7 min 13 sec) 
Heartbeat CPU 1 instructions: 2100000000 cycles: 2551582687 heartbeat IPC: 0.721701 cumulative IPC: 0.765288 (Simulation time: 5 hr 7 min 19 sec) 
Heartbeat CPU 1 instructions: 2110000001 cycles: 2564771480 heartbeat IPC: 0.75822 cumulative IPC: 0.76525 (Simulation time: 5 hr 8 min 44 sec) 
Heartbeat CPU 2 instructions: 1450000000 cycles: 2568124369 heartbeat IPC: 0.501263 cumulative IPC: 0.484703 (Simulation time: 5 hr 9 min 5 sec) 
Heartbeat CPU 3 instructions: 770000002 cycles: 2570492352 heartbeat IPC: 0.26665 cumulative IPC: 0.222892 (Simulation time: 5 hr 9 min 21 sec) 
Heartbeat CPU 1 instructions: 2120000000 cycles: 2577976410 heartbeat IPC: 0.757293 cumulative IPC: 0.765208 (Simulation time: 5 hr 10 min 9 sec) 
Heartbeat CPU 2 instructions: 1460000000 cycles: 2586671198 heartbeat IPC: 0.539176 cumulative IPC: 0.485109 (Simulation time: 5 hr 11 min 6 sec) 
Heartbeat CPU 1 instructions: 2130000001 cycles: 2590845796 heartbeat IPC: 0.777038 cumulative IPC: 0.765269 (Simulation time: 5 hr 11 min 33 sec) 
Heartbeat CPU 3 instructions: 780000000 cycles: 2601216781 heartbeat IPC: 0.325474 cumulative IPC: 0.22415 (Simulation time: 5 hr 12 min 41 sec) 
Heartbeat CPU 1 instructions: 2140000000 cycles: 2603860418 heartbeat IPC: 0.768366 cumulative IPC: 0.765285 (Simulation time: 5 hr 12 min 58 sec) 
Heartbeat CPU 2 instructions: 1470000002 cycles: 2605417627 heartbeat IPC: 0.533435 cumulative IPC: 0.485469 (Simulation time: 5 hr 13 min 8 sec) 
Heartbeat CPU 0 instructions: 740000000 cycles: 2611867820 heartbeat IPC: 0.163026 cumulative IPC: 0.214511 (Simulation time: 5 hr 13 min 50 sec) 
Heartbeat CPU 1 instructions: 2150000000 cycles: 2617145175 heartbeat IPC: 0.752742 cumulative IPC: 0.765219 (Simulation time: 5 hr 14 min 24 sec) 
Heartbeat CPU 2 instructions: 1480000000 cycles: 2623893846 heartbeat IPC: 0.541236 cumulative IPC: 0.485877 (Simulation time: 5 hr 15 min 8 sec) 
Heartbeat CPU 1 instructions: 2160000000 cycles: 2630266676 heartbeat IPC: 0.762108 cumulative IPC: 0.765203 (Simulation time: 5 hr 15 min 46 sec) 
Heartbeat CPU 3 instructions: 790000002 cycles: 2635110760 heartbeat IPC: 0.295038 cumulative IPC: 0.225095 (Simulation time: 5 hr 16 min 15 sec) 
Heartbeat CPU 1 instructions: 2170000001 cycles: 2643976084 heartbeat IPC: 0.729426 cumulative IPC: 0.76501 (Simulation time: 5 hr 17 min 8 sec) 
Heartbeat CPU 2 instructions: 1490000003 cycles: 2645261479 heartbeat IPC: 0.467998 cumulative IPC: 0.485727 (Simulation time: 5 hr 17 min 15 sec) 
Heartbeat CPU 1 instructions: 2180000000 cycles: 2657837720 heartbeat IPC: 0.721416 cumulative IPC: 0.764774 (Simulation time: 5 hr 18 min 33 sec) 
Heartbeat CPU 2 instructions: 1500000000 cycles: 2666840730 heartbeat IPC: 0.463408 cumulative IPC: 0.48554 (Simulation time: 5 hr 19 min 29 sec) 
Heartbeat CPU 1 instructions: 2190000003 cycles: 2671243083 heartbeat IPC: 0.74597 cumulative IPC: 0.764677 (Simulation time: 5 hr 19 min 57 sec) 
Heartbeat CPU 3 instructions: 800000000 cycles: 2677597976 heartbeat IPC: 0.235365 cumulative IPC: 0.225264 (Simulation time: 5 hr 20 min 35 sec) 
Heartbeat CPU 0 instructions: 750000001 cycles: 2678604756 heartbeat IPC: 0.149842 cumulative IPC: 0.212841 (Simulation time: 5 hr 20 min 41 sec) 
Heartbeat CPU 1 instructions: 2200000000 cycles: 2684915707 heartbeat IPC: 0.731388 cumulative IPC: 0.764501 (Simulation time: 5 hr 21 min 23 sec) 
Heartbeat CPU 2 instructions: 1510000000 cycles: 2688170755 heartbeat IPC: 0.468823 cumulative IPC: 0.485402 (Simulation time: 5 hr 21 min 46 sec) 
Heartbeat CPU 1 instructions: 2210000000 cycles: 2698300507 heartbeat IPC: 0.747116 cumulative IPC: 0.764412 (Simulation time: 5 hr 23 min 0 sec) 
Heartbeat CPU 2 instructions: 1520000000 cycles: 2706615627 heartbeat IPC: 0.542156 cumulative IPC: 0.485803 (Simulation time: 5 hr 24 min 2 sec) 
Heartbeat CPU 1 instructions: 2220000000 cycles: 2711069664 heartbeat IPC: 0.783137 cumulative IPC: 0.764503 (Simulation time: 5 hr 24 min 37 sec) 
Heartbeat CPU 3 instructions: 810000000 cycles: 2711236343 heartbeat IPC: 0.29728 cumulative IPC: 0.22619 (Simulation time: 5 hr 24 min 38 sec) 
Heartbeat CPU 0 instructions: 760000000 cycles: 2714452820 heartbeat IPC: 0.278955 cumulative IPC: 0.213746 (Simulation time: 5 hr 25 min 2 sec) 
Heartbeat CPU 1 instructions: 2230000001 cycles: 2724054528 heartbeat IPC: 0.770128 cumulative IPC: 0.764531 (Simulation time: 5 hr 26 min 13 sec) 
Heartbeat CPU 2 instructions: 1530000001 cycles: 2724836366 heartbeat IPC: 0.548825 cumulative IPC: 0.48624 (Simulation time: 5 hr 26 min 18 sec) 
Heartbeat CPU 1 instructions: 2240000000 cycles: 2737328058 heartbeat IPC: 0.753379 cumulative IPC: 0.764475 (Simulation time: 5 hr 27 min 49 sec) 
Heartbeat CPU 3 instructions: 820000000 cycles: 2742657302 heartbeat IPC: 0.318259 cumulative IPC: 0.227282 (Simulation time: 5 hr 28 min 29 sec) 
Heartbeat CPU 2 instructions: 1540000000 cycles: 2743324409 heartbeat IPC: 0.54089 cumulative IPC: 0.486621 (Simulation time: 5 hr 28 min 34 sec) 
Heartbeat CPU 0 instructions: 770000000 cycles: 2748934748 heartbeat IPC: 0.290007 cumulative IPC: 0.214737 (Simulation time: 5 hr 29 min 15 sec) 
Heartbeat CPU 1 instructions: 2250000003 cycles: 2750084264 heartbeat IPC: 0.783932 cumulative IPC: 0.764568 (Simulation time: 5 hr 29 min 23 sec) 
[...]
Heartbeat CPU 2 instructions: 2370000003 cycles: 4397105132 heartbeat IPC: 0.486867 cumulative IPC: 0.492486 (Simulation time: 8 hr 24 min 37 sec) 
Heartbeat CPU 1 instructions: 3490000003 cycles: 4402265583 heartbeat IPC: 0.849775 cumulative IPC: 0.759181 (Simulation time: 8 hr 25 min 7 sec) 
Heartbeat CPU 0 instructions: 1150000000 cycles: 4403070576 heartbeat IPC: 0.15609 cumulative IPC: 0.220492 (Simulation time: 8 hr 25 min 12 sec) 
Heartbeat CPU 1 instructions: 3500000000 cycles: 4415241215 heartbeat IPC: 0.770675 cumulative IPC: 0.759216 (Simulation time: 8 hr 26 min 22 sec) 
Heartbeat CPU 2 instructions: 2380000000 cycles: 4420538300 heartbeat IPC: 0.426745 cumulative IPC: 0.49213 (Simulation time: 8 hr 26 min 52 sec) 
Heartbeat CPU 1 instructions: 3510000001 cycles: 4428374041 heartbeat IPC: 0.761451 cumulative IPC: 0.759223 (Simulation time: 8 hr 27 min 37 sec) 
Heartbeat CPU 3 instructions: 1300000000 cycles: 4436346165 heartbeat IPC: 0.231767 cumulative IPC: 0.249175 (Simulation time: 8 hr 28 min 24 sec) 
Heartbeat CPU 1 instructions: 3520000000 cycles: 4440303711 heartbeat IPC: 0.838246 cumulative IPC: 0.759439 (Simulation time: 8 hr 28 min 48 sec) 
Heartbeat CPU 2 instructions: 2390000000 cycles: 4443894537 heartbeat IPC: 0.428151 cumulative IPC: 0.491787 (Simulation time: 8 hr 29 min 11 sec) 
Heartbeat CPU 1 instructions: 3530000001 cycles: 4452906108 heartbeat IPC: 0.7935 cumulative IPC: 0.759538 (Simulation time: 8 hr 30 min 9 sec) 
Heartbeat CPU 0 instructions: 1160000000 cycles: 4457281940 heartbeat IPC: 0.184463 cumulative IPC: 0.220044 (Simulation time: 8 hr 30 min 38 sec) 
Heartbeat CPU 1 instructions: 3540000000 cycles: 4465411634 heartbeat IPC: 0.799646 cumulative IPC: 0.759653 (Simulation time: 8 hr 31 min 31 sec) 
Heartbeat CPU 2 instructions: 2400000000 cycles: 4465440127 heartbeat IPC: 0.464132 cumulative IPC: 0.49165 (Simulation time: 8 hr 31 min 31 sec) 
Heartbeat CPU 3 instructions: 1310000000 cycles: 4474075386 heartbeat IPC: 0.265047 cumulative IPC: 0.249312 (Simulation time: 8 hr 32 min 31 sec) 
Heartbeat CPU 1 instructions: 3550000000 cycles: 4476783597 heartbeat IPC: 0.879356 cumulative IPC: 0.759963 (Simulation time: 8 hr 32 min 49 sec) 
Heartbeat CPU 2 instructions: 2410000001 cycles: 4485148084 heartbeat IPC: 0.507409 cumulative IPC: 0.491721 (Simulation time: 8 hr 33 min 44 sec) 
Heartbeat CPU 1 instructions: 3560000000 cycles: 4489149406 heartbeat IPC: 0.808681 cumulative IPC: 0.7601 (Simulation time: 8 hr 34 min 11 sec) 
Heartbeat CPU 0 instructions: 1170000002 cycles: 4490349346 heartbeat IPC: 0.302413 cumulative IPC: 0.220664 (Simulation time: 8 hr 34 min 19 sec) 
Heartbeat CPU 1 instructions: 3570000002 cycles: 4501720339 heartbeat IPC: 0.795486 cumulative IPC: 0.760201 (Simulation time: 8 hr 35 min 35 sec) 
Heartbeat CPU 2 instructions: 2420000000 cycles: 4504159331 heartbeat IPC: 0.526004 cumulative IPC: 0.491869 (Simulation time: 8 hr 35 min 52 sec) 
Heartbeat CPU 3 instructions: 1320000000 cycles: 4507882127 heartbeat IPC: 0.295799 cumulative IPC: 0.249668 (Simulation time: 8 hr 36 min 17 sec) 
Heartbeat CPU 1 instructions: 3580000000 cycles: 4513149680 heartbeat IPC: 0.874941 cumulative IPC: 0.760498 (Simulation time: 8 hr 36 min 53 sec) 
Heartbeat CPU 2 instructions: 2430000002 cycles: 4522899910 heartbeat IPC: 0.533602 cumulative IPC: 0.492045 (Simulation time: 8 hr 37 min 57 sec) 
Heartbeat CPU 0 instructions: 1180000000 cycles: 4524959622 heartbeat IPC: 0.288931 cumulative IPC: 0.221197 (Simulation time: 8 hr 38 min 10 sec) 
Heartbeat CPU 1 instructions: 3590000002 cycles: 4524959883 heartbeat IPC: 0.846726 cumulative IPC: 0.760728 (Simulation time: 8 hr 38 min 10 sec) 
Heartbeat CPU 1 instructions: 3600000000 cycles: 4537580764 heartbeat IPC: 0.792338 cumulative IPC: 0.760818 (Simulation time: 8 hr 39 min 30 sec) 
Heartbeat CPU 2 instructions: 2440000000 cycles: 4542915112 heartbeat IPC: 0.49962 cumulative IPC: 0.49208 (Simulation time: 8 hr 40 min 4 sec) 
Heartbeat CPU 3 instructions: 1330000000 cycles: 4543351312 heartbeat IPC: 0.281935 cumulative IPC: 0.249925 (Simulation time: 8 hr 40 min 7 sec) 
Heartbeat CPU 1 instructions: 3610000002 cycles: 4549767505 heartbeat IPC: 0.820564 cumulative IPC: 0.760981 (Simulation time: 8 hr 40 min 46 sec) 
Heartbeat CPU 1 instructions: 3620000000 cycles: 4562463482 heartbeat IPC: 0.787651 cumulative IPC: 0.761057 (Simulation time: 8 hr 42 min 4 sec) 
Heartbeat CPU 2 instructions: 2450000003 cycles: 4564745044 heartbeat IPC: 0.458087 cumulative IPC: 0.491914 (Simulation time: 8 hr 42 min 18 sec) 
Heartbeat CPU 0 instructions: 1190000000 cycles: 4569364299 heartbeat IPC: 0.225202 cumulative IPC: 0.221237 (Simulation time: 8 hr 42 min 46 sec) 
Heartbeat CPU 1 instructions: 3630000001 cycles: 4575622910 heartbeat IPC: 0.759912 cumulative IPC: 0.761054 (Simulation time: 8 hr 43 min 24 sec) 
Heartbeat CPU 3 instructions: 1340000000 cycles: 4584813540 heartbeat IPC: 0.241183 cumulative IPC: 0.249845 (Simulation time: 8 hr 44 min 22 sec) 
Heartbeat CPU 2 instructions: 2460000000 cycles: 4586794264 heartbeat IPC: 0.453531 cumulative IPC: 0.491725 (Simulation time: 8 hr 44 min 34 sec) 
Heartbeat CPU 1 instructions: 3640000000 cycles: 4587671665 heartbeat IPC: 0.829961 cumulative IPC: 0.761238 (Simulation time: 8 hr 44 min 39 sec) 
Heartbeat CPU 1 instructions: 3650000002 cycles: 4599604196 heartbeat IPC: 0.838045 cumulative IPC: 0.761442 (Simulation time: 8 hr 45 min 53 sec) 
Heartbeat CPU 2 instructions: 2470000003 cycles: 4606600979 heartbeat IPC: 0.504879 cumulative IPC: 0.491783 (Simulation time: 8 hr 46 min 36 sec) 
Heartbeat CPU 1 instructions: 3660000000 cycles: 4611959698 heartbeat IPC: 0.809356 cumulative IPC: 0.761573 (Simulation time: 8 hr 47 min 9 sec) 
Heartbeat CPU 0 instructions: 1200000000 cycles: 4613001358 heartbeat IPC: 0.229163 cumulative IPC: 0.221313 (Simulation time: 8 hr 47 min 16 sec) 
Finished CPU 0 instructions: 1000000000 cycles: 4518481251 cumulative IPC: 0.221313 (Simulation time: 8 hr 47 min 16 sec) 

CPU 0 Branch Prediction Accuracy: 96.4297% MPKI: 6.57086

CPU 1 Branch Prediction Accuracy: 99.6987% MPKI: 0.171042

CPU 2 Branch Prediction Accuracy: 99.7214% MPKI: 0.0383606

CPU 3 Branch Prediction Accuracy: 98.0425% MPKI: 3.27084

ChampSim completed all CPUs

Total Simulation Statistics (not including warmup)

CPU 0 cumulative IPC: 0.221313 instructions: 1000000000 cycles: 4518481251
L1D TOTAL     ACCESS:  130231915  HIT:  105653746  MISS:   24578169
L1D LOAD      ACCESS:  110273603  HIT:   85695609  MISS:   24577994
L1D RFO       ACCESS:   19958312  HIT:   19958137  MISS:        175
L1D PREFETCH  ACCESS:          0  HIT:          0  MISS:          0
L1D WRITEBACK ACCESS:          0  HIT:          0  MISS:          0
L1I TOTAL     ACCESS:  287619003  HIT:  287618978  MISS:         25
L1I LOAD      ACCESS:  287619003  HIT:  287618978  MISS:         25
L1I RFO       ACCESS:          0  HIT:          0  MISS:          0
L1I PREFETCH  ACCESS:          0  HIT:          0  MISS:          0
L1I WRITEBACK ACCESS:          0  HIT:          0  MISS:          0
L2C TOTAL     ACCESS:   32845524  HIT:    8267330  MISS:   24578194
L2C LOAD      ACCESS:   24578019  HIT:          0  MISS:   24578019
L2C RFO       ACCESS:        175  HIT:          0  MISS:        175
L2C PREFETCH  ACCESS:          0  HIT:          0  MISS:          0
L2C WRITEBACK ACCESS:    8267330  HIT:    8267330  MISS:          0
LLC TOTAL     ACCESS:   32845794  HIT:    8267600  MISS:   24578194
LLC LOAD      ACCESS:   24578019  HIT:          0  MISS:   24578019
LLC RFO       ACCESS:        175  HIT:          0  MISS:        175
LLC PREFETCH  ACCESS:          0  HIT:          0  MISS:          0
LLC WRITEBACK ACCESS:    8267600  HIT:    8267600  MISS:          0

CPU 1 cumulative IPC: 0.761625 instructions: 3441387496 cycles: 4518481252
L1D TOTAL     ACCESS:  788537265  HIT:  714442910  MISS:   74094355
L1D LOAD      ACCESS:  551100154  HIT:  502311726  MISS:   48788428
L1D RFO       ACCESS:  237437111  HIT:  212131184  MISS:   25305927
L1D PREFETCH  ACCESS:          0  HIT:          0  MISS:          0
L1D WRITEBACK ACCESS:          0  HIT:          0  MISS:          0
L1I TOTAL     ACCESS:  862393094  HIT:  862392854  MISS:        240
L1I LOAD      ACCESS:  862393094  HIT:  862392854  MISS:        240
L1I RFO       ACCESS:          0  HIT:          0  MISS:          0
L1I PREFETCH  ACCESS:          0  HIT:          0  MISS:          0
L1I WRITEBACK ACCESS:          0  HIT:          0  MISS:          0
L2C TOTAL     ACCESS:  108318222  HIT:   94268518  MISS:   14049704
L2C LOAD      ACCESS:   48788223  HIT:   38269572  MISS:   10518651
L2C RFO       ACCESS:   25258593  HIT:   21782100  MISS:    3476493
L2C PREFETCH  ACCESS:          0  HIT:          0  MISS:          0
L2C WRITEBACK ACCESS:   34271406  HIT:   34216846  MISS:      54560
LLC TOTAL     ACCESS:   18946759  HIT:    7699230  MISS:   11247529
LLC LOAD      ACCESS:   10518641  HIT:    1882378  MISS:    8636263
LLC RFO       ACCESS:    3476450  HIT:    1011945  MISS:    2464505
LLC PREFETCH  ACCESS:          0  HIT:          0  MISS:          0
LLC WRITEBACK ACCESS:    4951668  HIT:    4804907  MISS:     146761

CPU 2 cumulative IPC: 0.491844 instructions: 2222389080 cycles: 4518481252
L1D TOTAL     ACCESS:  377650061  HIT:  268389320  MISS:  109260741
L1D LOAD      ACCESS:  149096705  HIT:  132530622  MISS:   16566083
L1D RFO       ACCESS:  228553356  HIT:  135858698  MISS:   92694658
L1D PREFETCH  ACCESS:          0  HIT:          0  MISS:          0
L1D WRITEBACK ACCESS:          0  HIT:          0  MISS:          0
L1I TOTAL     ACCESS:  513262704  HIT:  513262696  MISS:          8
L1I LOAD      ACCESS:  513262704  HIT:  513262696  MISS:          8
L1I RFO       ACCESS:          0  HIT:          0  MISS:          0
L1I PREFETCH  ACCESS:          0  HIT:          0  MISS:          0
L1I WRITEBACK ACCESS:          0  HIT:          0  MISS:          0
L2C TOTAL     ACCESS:  201955390  HIT:  135302777  MISS:   66652613
L2C LOAD      ACCESS:   16566091  HIT:      13457  MISS:   16552634
L2C RFO       ACCESS:   92694632  HIT:   42597434  MISS:   50097198
L2C PREFETCH  ACCESS:          0  HIT:          0  MISS:          0
L2C WRITEBACK ACCESS:   92694667  HIT:   92691886  MISS:       2781
LLC TOTAL     ACCESS:  116749526  HIT:   51090761  MISS:   65658765
LLC LOAD      ACCESS:   16552634  HIT:       1010  MISS:   16551624
LLC RFO       ACCESS:   50097149  HIT:     991944  MISS:   49105205
LLC PREFETCH  ACCESS:          0  HIT:          0  MISS:          0
LLC WRITEBACK ACCESS:   50099743  HIT:   50097807  MISS:       1936

CPU 3 cumulative IPC: 0.249823 instructions: 1128819396 cycles: 4518481252
L1D TOTAL     ACCESS:  179639652  HIT:  149915843  MISS:   29723809
L1D LOAD      ACCESS:  124442375  HIT:   94718782  MISS:   29723593
L1D RFO       ACCESS:   55197277  HIT:   55197061  MISS:        216
L1D PREFETCH  ACCESS:          0  HIT:          0  MISS:          0
L1D WRITEBACK ACCESS:          0  HIT:          0  MISS:          0
L1I TOTAL     ACCESS:  326926325  HIT:  326926310  MISS:         15
L1I LOAD      ACCESS:  326926325  HIT:  326926310  MISS:         15
L1I RFO       ACCESS:          0  HIT:          0  MISS:          0
L1I PREFETCH  ACCESS:          0  HIT:          0  MISS:          0
L1I WRITEBACK ACCESS:          0  HIT:          0  MISS:          0
L2C TOTAL     ACCESS:   45107503  HIT:   15383679  MISS:   29723824
L2C LOAD      ACCESS:   29723608  HIT:          0  MISS:   29723608
L2C RFO       ACCESS:        216  HIT:          0  MISS:        216
L2C PREFETCH  ACCESS:          0  HIT:          0  MISS:          0
L2C WRITEBACK ACCESS:   15383679  HIT:   15383679  MISS:          0
LLC TOTAL     ACCESS:   45107280  HIT:   15383456  MISS:   29723824
LLC LOAD      ACCESS:   29723608  HIT:          0  MISS:   29723608
LLC RFO       ACCESS:        216  HIT:          0  MISS:        216
LLC PREFETCH  ACCESS:          0  HIT:          0  MISS:          0
LLC WRITEBACK ACCESS:   15383456  HIT:   15383456  MISS:          0

Region of Interest Statistics

CPU 0 cumulative IPC: 0.221313 instructions: 1000000000 cycles: 4518481251
L1D TOTAL     ACCESS:  130231915  HIT:  105653746  MISS:   24578169
L1D LOAD      ACCESS:  110273603  HIT:   85695609  MISS:   24577994
L1D RFO       ACCESS:   19958312  HIT:   19958137  MISS:        175
L1D PREFETCH  ACCESS:          0  HIT:          0  MISS:          0
L1D WRITEBACK ACCESS:          0  HIT:          0  MISS:          0
L1D PREFETCH  REQUESTED:          0  ISSUED:          0  USEFUL:          0  USELESS:          0
L1I TOTAL     ACCESS:  287619003  HIT:  287618978  MISS:         25
L1I LOAD      ACCESS:  287619003  HIT:  287618978  MISS:         25
L1I RFO       ACCESS:          0  HIT:          0  MISS:          0
L1I PREFETCH  ACCESS:          0  HIT:          0  MISS:          0
L1I WRITEBACK ACCESS:          0  HIT:          0  MISS:          0
L1I PREFETCH  REQUESTED:          0  ISSUED:          0  USEFUL:          0  USELESS:          0
L2C TOTAL     ACCESS:   32845524  HIT:    8267330  MISS:   24578194
L2C LOAD      ACCESS:   24578019  HIT:          0  MISS:   24578019
L2C RFO       ACCESS:        175  HIT:          0  MISS:        175
L2C PREFETCH  ACCESS:          0  HIT:          0  MISS:          0
L2C WRITEBACK ACCESS:    8267330  HIT:    8267330  MISS:          0
L2C PREFETCH  REQUESTED:          0  ISSUED:          0  USEFUL:          0  USELESS:          0
LLC TOTAL     ACCESS:   32845794  HIT:    8267600  MISS:   24578194
LLC LOAD      ACCESS:   24578019  HIT:          0  MISS:   24578019
LLC RFO       ACCESS:        175  HIT:          0  MISS:        175
LLC PREFETCH  ACCESS:          0  HIT:          0  MISS:          0
LLC WRITEBACK ACCESS:    8267600  HIT:    8267600  MISS:          0
LLC PREFETCH  REQUESTED:          0  ISSUED:          0  USEFUL:          0  USELESS:          0
Major fault: 0 Minor fault: 8200

CPU 1 cumulative IPC: 0.727846 instructions: 1000000001 cycles: 1373917202
L1D TOTAL     ACCESS:  227369784  HIT:  205372636  MISS:   21997148
L1D LOAD      ACCESS:  157950919  HIT:  143213958  MISS:   14736961
L1D RFO       ACCESS:   69418865  HIT:   62158678  MISS:    7260187
L1D PREFETCH  ACCESS:          0  HIT:          0  MISS:          0
L1D WRITEBACK ACCESS:          0  HIT:          0  MISS:          0
L1D PREFETCH  REQUESTED:          0  ISSUED:          0  USEFUL:          0  USELESS:          0
L1I TOTAL     ACCESS:  253325334  HIT:  253325094  MISS:        240
L1I LOAD      ACCESS:  253325334  HIT:  253325094  MISS:        240
L1I RFO       ACCESS:          0  HIT:          0  MISS:          0
L1I PREFETCH  ACCESS:          0  HIT:          0  MISS:          0
L1I WRITEBACK ACCESS:          0  HIT:          0  MISS:          0
L1I PREFETCH  REQUESTED:          0  ISSUED:          0  USEFUL:          0  USELESS:          0
L2C TOTAL     ACCESS:   32410075  HIT:   27942697  MISS:    4467378
L2C LOAD      ACCESS:   14737099  HIT:   11394022  MISS:    3343077
L2C RFO       ACCESS:    7241333  HIT:    6130703  MISS:    1110630
L2C PREFETCH  ACCESS:          0  HIT:          0  MISS:          0
L2C WRITEBACK ACCESS:   10431643  HIT:   10417972  MISS:      13671
L2C PREFETCH  REQUESTED:          0  ISSUED:          0  USEFUL:          0  USELESS:          0
LLC TOTAL     ACCESS:    6046983  HIT:    2434876  MISS:    3612107
LLC LOAD      ACCESS:    3343074  HIT:     566844  MISS:    2776230
LLC RFO       ACCESS:    1110623  HIT:     315458  MISS:     795165
LLC PREFETCH  ACCESS:          0  HIT:          0  MISS:          0
LLC WRITEBACK ACCESS:    1593286  HIT:    1552574  MISS:      40712
LLC PREFETCH  REQUESTED:          0  ISSUED:          0  USEFUL:          0  USELESS:          0
Major fault: 0 Minor fault: 41401

CPU 2 cumulative IPC: 0.48254 instructions: 1000000001 cycles: 2072364986
L1D TOTAL     ACCESS:  170626672  HIT:  120921047  MISS:   49705625
L1D LOAD      ACCESS:   67180034  HIT:   59642845  MISS:    7537189
L1D RFO       ACCESS:  103446638  HIT:   61278202  MISS:   42168436
L1D PREFETCH  ACCESS:          0  HIT:          0  MISS:          0
L1D WRITEBACK ACCESS:          0  HIT:          0  MISS:          0
L1D PREFETCH  REQUESTED:          0  ISSUED:          0  USEFUL:          0  USELESS:          0
L1I TOTAL     ACCESS:  231025993  HIT:  231025985  MISS:          8
L1I LOAD      ACCESS:  231025993  HIT:  231025985  MISS:          8
L1I RFO       ACCESS:          0  HIT:          0  MISS:          0
L1I PREFETCH  ACCESS:          0  HIT:          0  MISS:          0
L1I WRITEBACK ACCESS:          0  HIT:          0  MISS:          0
L1I PREFETCH  REQUESTED:          0  ISSUED:          0  USEFUL:          0  USELESS:          0
L2C TOTAL     ACCESS:   91874059  HIT:   61558918  MISS:   30315141
L2C LOAD      ACCESS:    7537197  HIT:       7243  MISS:    7529954
L2C RFO       ACCESS:   42168420  HIT:   19384554  MISS:   22783866
L2C PREFETCH  ACCESS:          0  HIT:          0  MISS:          0
L2C WRITEBACK ACCESS:   42168442  HIT:   42167121  MISS:       1321
L2C PREFETCH  REQUESTED:          0  ISSUED:          0  USEFUL:          0  USELESS:          0
LLC TOTAL     ACCESS:   53098759  HIT:   23370182  MISS:   29728577
LLC LOAD      ACCESS:    7529954  HIT:        532  MISS:    7529422
LLC RFO       ACCESS:   22783845  HIT:     585566  MISS:   22198279
LLC PREFETCH  ACCESS:          0  HIT:          0  MISS:          0
LLC WRITEBACK ACCESS:   22784960  HIT:   22784084  MISS:        876
LLC PREFETCH  REQUESTED:          0  ISSUED:          0  USEFUL:          0  USELESS:          0
Major fault: 0 Minor fault: 103151

CPU 3 cumulative IPC: 0.246616 instructions: 1000000001 cycles: 4054893562
L1D TOTAL     ACCESS:  159111243  HIT:  132882212  MISS:   26229031
L1D LOAD      ACCESS:  110313874  HIT:   84085034  MISS:   26228840
L1D RFO       ACCESS:   48797369  HIT:   48797178  MISS:        191
L1D PREFETCH  ACCESS:          0  HIT:          0  MISS:          0
L1D WRITEBACK ACCESS:          0  HIT:          0  MISS:          0
L1D PREFETCH  REQUESTED:          0  ISSUED:          0  USEFUL:          0  USELESS:          0
L1I TOTAL     ACCESS:  288908741  HIT:  288908726  MISS:         15
L1I LOAD      ACCESS:  288908741  HIT:  288908726  MISS:         15
L1I RFO       ACCESS:          0  HIT:          0  MISS:          0
L1I PREFETCH  ACCESS:          0  HIT:          0  MISS:          0
L1I WRITEBACK ACCESS:          0  HIT:          0  MISS:          0
L1I PREFETCH  REQUESTED:          0  ISSUED:          0  USEFUL:          0  USELESS:          0
L2C TOTAL     ACCESS:   39931572  HIT:   13702526  MISS:   26229046
L2C LOAD      ACCESS:   26228855  HIT:          0  MISS:   26228855
L2C RFO       ACCESS:        191  HIT:          0  MISS:        191
L2C PREFETCH  ACCESS:          0  HIT:          0  MISS:          0
L2C WRITEBACK ACCESS:   13702526  HIT:   13702526  MISS:          0
L2C PREFETCH  REQUESTED:          0  ISSUED:          0  USEFUL:          0  USELESS:          0
LLC TOTAL     ACCESS:   39932133  HIT:   13703087  MISS:   26229046
LLC LOAD      ACCESS:   26228855  HIT:          0  MISS:   26228855
LLC RFO       ACCESS:        191  HIT:          0  MISS:        191
LLC PREFETCH  ACCESS:          0  HIT:          0  MISS:          0
LLC WRITEBACK ACCESS:   13703087  HIT:   13703087  MISS:          0
LLC PREFETCH  REQUESTED:          0  ISSUED:          0  USEFUL:          0  USELESS:          0
Major fault: 0 Minor fault: 8200

DRAM Statistics
 CHANNEL 0
 RQ ROW_BUFFER_HIT:   14157050  ROW_BUFFER_MISS:   51371800
 DBUS_CONGESTED:  128192980
 WQ ROW_BUFFER_HIT:    4747988  ROW_BUFFER_MISS:   33952496  FULL:          0

 CHANNEL 1
 RQ ROW_BUFFER_HIT:   14177136  ROW_BUFFER_MISS:   51349383
 DBUS_CONGESTED:  128192980
 WQ ROW_BUFFER_HIT:    4732333  ROW_BUFFER_MISS:   33892105  FULL:          0

 AVG_CONGESTED_CYCLE: 13
