Initialize SIGNATURE TABLE
ST_SET: 1
ST_WAY: 256
ST_TAG_BIT: 16
ST_TAG_MASK: ffff

Initialize PATTERN TABLE
PT_SET: 512
PT_WAY: 4
SIG_DELTA_BIT: 7
C_SIG_BIT: 4
C_DELTA_BIT: 4

Initialize PREFETCH FILTER
FILTER_SET: 1024

Initialize PERCEPTRON
PERC_ENTRIES: 4096
PERC_FEATURES: 9

*** ChampSim Multicore Out-of-Order Simulator ***

Warmup Instructions: 20000000
Simulation Instructions: 100000000
Number of CPUs: 8
LLC sets: 16384
LLC ways: 16
Off-chip DRAM Size: 8192 MB Channels: 2 Width: 64-bit Data Rate: 1600 MT/s

CPU 0 runs /scratch/user/djimenez/champsim-traces/speccpu2017/xz/605.mcf_s/605.mcf_s-1644B.champsimtrace.xz
CPU 1 runs /scratch/user/djimenez/champsim-traces/speccpu2017/xz/605.mcf_s/605.mcf_s-1554B.champsimtrace.xz
CPU 2 runs /scratch/user/djimenez/champsim-traces/speccpu2017/xz/644.nab_s/644.nab_s-12459B.champsimtrace.xz
CPU 3 runs /scratch/user/djimenez/champsim-traces/speccpu2017/xz/605.mcf_s/605.mcf_s-472B.champsimtrace.xz
CPU 4 runs /scratch/user/djimenez/champsim-traces/speccpu2017/xz/621.wrf_s/621.wrf_s-6673B.champsimtrace.xz
CPU 5 runs /scratch/user/djimenez/champsim-traces/speccpu2017/xz/649.fotonik3d_s/649.fotonik3d_s-1176B.champsimtrace.xz
CPU 6 runs /scratch/user/djimenez/champsim-traces/speccpu2017/xz/605.mcf_s/605.mcf_s-1152B.champsimtrace.xz
CPU 7 runs /scratch/user/djimenez/champsim-traces/speccpu2017/xz/654.roms_s/654.roms_s-294B.champsimtrace.xz
Heartbeat CPU 5 instructions: 10000000 cycles: 4400204 heartbeat IPC: 2.27262 cumulative IPC: 2.27262 (Simulation time: 0 hr 3 min 23 sec) 
Heartbeat CPU 2 instructions: 10000000 cycles: 4636382 heartbeat IPC: 2.15685 cumulative IPC: 2.15685 (Simulation time: 0 hr 3 min 34 sec) 
Heartbeat CPU 7 instructions: 10000003 cycles: 4879972 heartbeat IPC: 2.04919 cumulative IPC: 2.04919 (Simulation time: 0 hr 3 min 45 sec) 
Heartbeat CPU 4 instructions: 10000001 cycles: 5375036 heartbeat IPC: 1.86045 cumulative IPC: 1.86045 (Simulation time: 0 hr 4 min 8 sec) 
Heartbeat CPU 1 instructions: 10000001 cycles: 5389148 heartbeat IPC: 1.85558 cumulative IPC: 1.85558 (Simulation time: 0 hr 4 min 8 sec) 
Heartbeat CPU 6 instructions: 10000001 cycles: 6554316 heartbeat IPC: 1.52571 cumulative IPC: 1.52571 (Simulation time: 0 hr 5 min 3 sec) 
Heartbeat CPU 3 instructions: 10000000 cycles: 6700492 heartbeat IPC: 1.49243 cumulative IPC: 1.49243 (Simulation time: 0 hr 5 min 10 sec) 
Heartbeat CPU 5 instructions: 20000000 cycles: 8799637 heartbeat IPC: 2.27302 cumulative IPC: 2.27282 (Simulation time: 0 hr 6 min 49 sec) 
Heartbeat CPU 2 instructions: 20000000 cycles: 9298896 heartbeat IPC: 2.14477 cumulative IPC: 2.15079 (Simulation time: 0 hr 7 min 13 sec) 
Heartbeat CPU 4 instructions: 20000000 cycles: 9446162 heartbeat IPC: 2.45632 cumulative IPC: 2.11726 (Simulation time: 0 hr 7 min 20 sec) 
Heartbeat CPU 7 instructions: 20000000 cycles: 9759545 heartbeat IPC: 2.04936 cumulative IPC: 2.04928 (Simulation time: 0 hr 7 min 35 sec) 
Heartbeat CPU 0 instructions: 10000002 cycles: 10558365 heartbeat IPC: 0.947117 cumulative IPC: 0.947117 (Simulation time: 0 hr 8 min 13 sec) 
Heartbeat CPU 1 instructions: 20000000 cycles: 10756142 heartbeat IPC: 1.86324 cumulative IPC: 1.8594 (Simulation time: 0 hr 8 min 22 sec) 
Heartbeat CPU 3 instructions: 20000000 cycles: 13072109 heartbeat IPC: 1.56946 cumulative IPC: 1.52998 (Simulation time: 0 hr 10 min 12 sec) 
Heartbeat CPU 6 instructions: 20000000 cycles: 13117345 heartbeat IPC: 1.52369 cumulative IPC: 1.5247 (Simulation time: 0 hr 10 min 14 sec) 
Heartbeat CPU 4 instructions: 30000000 cycles: 13182503 heartbeat IPC: 2.67642 cumulative IPC: 0.758581 (Simulation time: 0 hr 10 min 17 sec) 
Heartbeat CPU 5 instructions: 30000002 cycles: 13199621 heartbeat IPC: 2.27274 cumulative IPC: 0.757598 (Simulation time: 0 hr 10 min 18 sec) 
Heartbeat CPU 2 instructions: 30000001 cycles: 13993992 heartbeat IPC: 2.12988 cumulative IPC: 0.714592 (Simulation time: 0 hr 10 min 55 sec) 
Heartbeat CPU 7 instructions: 30000002 cycles: 14638988 heartbeat IPC: 2.04941 cumulative IPC: 0.683107 (Simulation time: 0 hr 11 min 25 sec) 
Heartbeat CPU 1 instructions: 30000003 cycles: 16164975 heartbeat IPC: 1.84883 cumulative IPC: 0.618622 (Simulation time: 0 hr 12 min 39 sec) 
Heartbeat CPU 4 instructions: 40000000 cycles: 17340111 heartbeat IPC: 2.40523 cumulative IPC: 1.1534 (Simulation time: 0 hr 13 min 37 sec) 
Heartbeat CPU 5 instructions: 40000000 cycles: 17600151 heartbeat IPC: 2.27245 cumulative IPC: 1.13635 (Simulation time: 0 hr 13 min 49 sec) 
Heartbeat CPU 2 instructions: 40000000 cycles: 18648561 heartbeat IPC: 2.14843 cumulative IPC: 1.07247 (Simulation time: 0 hr 14 min 37 sec) 
Heartbeat CPU 3 instructions: 30000002 cycles: 19293668 heartbeat IPC: 1.60731 cumulative IPC: 0.518305 (Simulation time: 0 hr 15 min 7 sec) 
Heartbeat CPU 7 instructions: 40000000 cycles: 19518688 heartbeat IPC: 2.04931 cumulative IPC: 1.02466 (Simulation time: 0 hr 15 min 17 sec) 
Heartbeat CPU 6 instructions: 30000001 cycles: 19676620 heartbeat IPC: 1.52456 cumulative IPC: 0.508217 (Simulation time: 0 hr 15 min 25 sec) 
Heartbeat CPU 0 instructions: 20000000 cycles: 21053821 heartbeat IPC: 0.952793 cumulative IPC: 0.949946 (Simulation time: 0 hr 16 min 28 sec) 

Warmup complete CPU 0 instructions: 20000001 cycles: 21053824 (Simulation time: 0 hr 16 min 28 sec) 
Warmup complete CPU 1 instructions: 39097073 cycles: 21053823 (Simulation time: 0 hr 16 min 28 sec) 
Warmup complete CPU 2 instructions: 45115960 cycles: 21053823 (Simulation time: 0 hr 16 min 28 sec) 
Warmup complete CPU 3 instructions: 32595203 cycles: 21053823 (Simulation time: 0 hr 16 min 28 sec) 
Warmup complete CPU 4 instructions: 49096253 cycles: 21053823 (Simulation time: 0 hr 16 min 28 sec) 
Warmup complete CPU 5 instructions: 47848836 cycles: 21053823 (Simulation time: 0 hr 16 min 28 sec) 
Warmup complete CPU 6 instructions: 32105358 cycles: 21053823 (Simulation time: 0 hr 16 min 28 sec) 
Warmup complete CPU 7 instructions: 43145370 cycles: 21053823 (Simulation time: 0 hr 16 min 28 sec) 

Heartbeat CPU 4 instructions: 50000003 cycles: 22554592 heartbeat IPC: 1.91774 cumulative IPC: 0.602191 (Simulation time: 0 hr 16 min 54 sec) 
Heartbeat CPU 1 instructions: 40000000 cycles: 23815516 heartbeat IPC: 1.3071 cumulative IPC: 0.326947 (Simulation time: 0 hr 17 min 19 sec) 
Heartbeat CPU 5 instructions: 50000001 cycles: 23887653 heartbeat IPC: 1.59046 cumulative IPC: 0.759102 (Simulation time: 0 hr 17 min 20 sec) 
Heartbeat CPU 7 instructions: 50000001 cycles: 28289664 heartbeat IPC: 1.14012 cumulative IPC: 0.947316 (Simulation time: 0 hr 18 min 50 sec) 
Heartbeat CPU 2 instructions: 50000002 cycles: 28377970 heartbeat IPC: 1.02781 cumulative IPC: 0.666841 (Simulation time: 0 hr 18 min 52 sec) 
Heartbeat CPU 5 instructions: 60000000 cycles: 35462199 heartbeat IPC: 0.863965 cumulative IPC: 0.84334 (Simulation time: 0 hr 21 min 8 sec) 
Heartbeat CPU 4 instructions: 60000000 cycles: 35539997 heartbeat IPC: 0.770095 cumulative IPC: 0.7527 (Simulation time: 0 hr 21 min 9 sec) 
Heartbeat CPU 7 instructions: 60000000 cycles: 38968649 heartbeat IPC: 0.936418 cumulative IPC: 0.94082 (Simulation time: 0 hr 22 min 19 sec) 
Heartbeat CPU 2 instructions: 60000000 cycles: 43695616 heartbeat IPC: 0.652842 cumulative IPC: 0.65737 (Simulation time: 0 hr 23 min 45 sec) 
Heartbeat CPU 5 instructions: 70000000 cycles: 47848527 heartbeat IPC: 0.807342 cumulative IPC: 0.826699 (Simulation time: 0 hr 24 min 54 sec) 
Heartbeat CPU 1 instructions: 50000000 cycles: 49509624 heartbeat IPC: 0.389194 cumulative IPC: 0.383153 (Simulation time: 0 hr 25 min 24 sec) 
Heartbeat CPU 7 instructions: 70000000 cycles: 49923790 heartbeat IPC: 0.912813 cumulative IPC: 0.930193 (Simulation time: 0 hr 25 min 32 sec) 
Heartbeat CPU 4 instructions: 70000003 cycles: 51721227 heartbeat IPC: 0.618 cumulative IPC: 0.681628 (Simulation time: 0 hr 26 min 7 sec) 
Heartbeat CPU 3 instructions: 40000000 cycles: 52257360 heartbeat IPC: 0.303364 cumulative IPC: 0.237306 (Simulation time: 0 hr 26 min 18 sec) 
Heartbeat CPU 6 instructions: 40000000 cycles: 57862904 heartbeat IPC: 0.261874 cumulative IPC: 0.214475 (Simulation time: 0 hr 28 min 5 sec) 
Heartbeat CPU 2 instructions: 70000002 cycles: 59242229 heartbeat IPC: 0.643227 cumulative IPC: 0.651612 (Simulation time: 0 hr 28 min 29 sec) 
Heartbeat CPU 5 instructions: 80000000 cycles: 59742701 heartbeat IPC: 0.840748 cumulative IPC: 0.831018 (Simulation time: 0 hr 28 min 39 sec) 
Heartbeat CPU 7 instructions: 80000000 cycles: 60613497 heartbeat IPC: 0.935479 cumulative IPC: 0.931621 (Simulation time: 0 hr 28 min 55 sec) 
Heartbeat CPU 4 instructions: 80000000 cycles: 64042064 heartbeat IPC: 0.811633 cumulative IPC: 0.718888 (Simulation time: 0 hr 30 min 6 sec) 
Heartbeat CPU 7 instructions: 90000001 cycles: 71280245 heartbeat IPC: 0.937493 cumulative IPC: 0.932868 (Simulation time: 0 hr 32 min 25 sec) 
Heartbeat CPU 5 instructions: 90000001 cycles: 71421767 heartbeat IPC: 0.856233 cumulative IPC: 0.836865 (Simulation time: 0 hr 32 min 28 sec) 
Heartbeat CPU 1 instructions: 60000000 cycles: 73978418 heartbeat IPC: 0.408684 cumulative IPC: 0.394957 (Simulation time: 0 hr 33 min 14 sec) 
Heartbeat CPU 2 instructions: 80000000 cycles: 74486151 heartbeat IPC: 0.655999 cumulative IPC: 0.652864 (Simulation time: 0 hr 33 min 24 sec) 
Heartbeat CPU 4 instructions: 90000002 cycles: 77017970 heartbeat IPC: 0.770659 cumulative IPC: 0.730892 (Simulation time: 0 hr 34 min 11 sec) 
Heartbeat CPU 7 instructions: 100000000 cycles: 81918691 heartbeat IPC: 0.939987 cumulative IPC: 0.934112 (Simulation time: 0 hr 35 min 48 sec) 
Heartbeat CPU 5 instructions: 100000000 cycles: 83636745 heartbeat IPC: 0.818667 cumulative IPC: 0.833313 (Simulation time: 0 hr 36 min 18 sec) 
Heartbeat CPU 0 instructions: 30000003 cycles: 85079245 heartbeat IPC: 0.156188 cumulative IPC: 0.156188 (Simulation time: 0 hr 36 min 44 sec) 
Heartbeat CPU 2 instructions: 90000000 cycles: 89807420 heartbeat IPC: 0.652687 cumulative IPC: 0.652825 (Simulation time: 0 hr 38 min 2 sec) 
Heartbeat CPU 7 instructions: 110000002 cycles: 92919615 heartbeat IPC: 0.909015 cumulative IPC: 0.930271 (Simulation time: 0 hr 38 min 55 sec) 
Heartbeat CPU 3 instructions: 50000001 cycles: 95222647 heartbeat IPC: 0.232746 cumulative IPC: 0.234665 (Simulation time: 0 hr 39 min 31 sec) 
Heartbeat CPU 4 instructions: 100000000 cycles: 97315741 heartbeat IPC: 0.492665 cumulative IPC: 0.667486 (Simulation time: 0 hr 40 min 9 sec) 
Heartbeat CPU 5 instructions: 110000001 cycles: 97422182 heartbeat IPC: 0.725403 cumulative IPC: 0.813834 (Simulation time: 0 hr 40 min 11 sec) 
Heartbeat CPU 1 instructions: 70000001 cycles: 102241157 heartbeat IPC: 0.353823 cumulative IPC: 0.380637 (Simulation time: 0 hr 41 min 51 sec) 
Heartbeat CPU 7 instructions: 120000000 cycles: 103839143 heartbeat IPC: 0.91579 cumulative IPC: 0.928361 (Simulation time: 0 hr 42 min 21 sec) 
Heartbeat CPU 2 instructions: 100000000 cycles: 105436380 heartbeat IPC: 0.639838 cumulative IPC: 0.650419 (Simulation time: 0 hr 42 min 54 sec) 
Heartbeat CPU 4 instructions: 110000001 cycles: 105585564 heartbeat IPC: 1.20922 cumulative IPC: 0.720484 (Simulation time: 0 hr 42 min 57 sec) 
Heartbeat CPU 6 instructions: 50000000 cycles: 105774889 heartbeat IPC: 0.208716 cumulative IPC: 0.211218 (Simulation time: 0 hr 43 min 1 sec) 
Heartbeat CPU 5 instructions: 120000000 cycles: 108699612 heartbeat IPC: 0.886727 cumulative IPC: 0.823213 (Simulation time: 0 hr 44 min 4 sec) 
Heartbeat CPU 7 instructions: 130000000 cycles: 114579683 heartbeat IPC: 0.931052 cumulative IPC: 0.92867 (Simulation time: 0 hr 45 min 46 sec) 
Heartbeat CPU 4 instructions: 120000000 cycles: 116585805 heartbeat IPC: 0.909071 cumulative IPC: 0.742199 (Simulation time: 0 hr 46 min 25 sec) 
Heartbeat CPU 2 instructions: 110000001 cycles: 121226280 heartbeat IPC: 0.633316 cumulative IPC: 0.647723 (Simulation time: 0 hr 47 min 56 sec) 
Heartbeat CPU 5 instructions: 130000003 cycles: 121393427 heartbeat IPC: 0.787785 cumulative IPC: 0.818731 (Simulation time: 0 hr 47 min 59 sec) 
Heartbeat CPU 4 instructions: 130000000 cycles: 124671604 heartbeat IPC: 1.23674 cumulative IPC: 0.78079 (Simulation time: 0 hr 49 min 12 sec) 
Heartbeat CPU 7 instructions: 140000000 cycles: 125277722 heartbeat IPC: 0.934751 cumulative IPC: 0.929294 (Simulation time: 0 hr 49 min 25 sec) 
Heartbeat CPU 1 instructions: 80000000 cycles: 126446640 heartbeat IPC: 0.41313 cumulative IPC: 0.3881 (Simulation time: 0 hr 49 min 47 sec) 
Finished CPU 7 instructions: 100000000 cycles: 107670876 cumulative IPC: 0.928756 (Simulation time: 0 hr 50 min 28 sec) 
Heartbeat CPU 5 instructions: 140000000 cycles: 133163040 heartbeat IPC: 0.849645 cumulative IPC: 0.821977 (Simulation time: 0 hr 51 min 48 sec) 
Heartbeat CPU 4 instructions: 140000000 cycles: 135604305 heartbeat IPC: 0.914687 cumulative IPC: 0.793569 (Simulation time: 0 hr 52 min 37 sec) 
Heartbeat CPU 3 instructions: 60000000 cycles: 135670663 heartbeat IPC: 0.247231 cumulative IPC: 0.239099 (Simulation time: 0 hr 52 min 39 sec) 
Heartbeat CPU 7 instructions: 150000000 cycles: 136148716 heartbeat IPC: 0.919879 cumulative IPC: 0.928405 (Simulation time: 0 hr 52 min 50 sec) 
Heartbeat CPU 2 instructions: 120000000 cycles: 137198980 heartbeat IPC: 0.626068 cumulative IPC: 0.644745 (Simulation time: 0 hr 53 min 13 sec) 
Finished CPU 5 instructions: 100000002 cycles: 120823006 cumulative IPC: 0.827657 (Simulation time: 0 hr 54 min 47 sec) 
Finished CPU 4 instructions: 100000001 cycles: 122348164 cumulative IPC: 0.81734 (Simulation time: 0 hr 55 min 16 sec) 
Heartbeat CPU 5 instructions: 150000001 cycles: 144219814 heartbeat IPC: 0.904423 cumulative IPC: 0.829378 (Simulation time: 0 hr 55 min 34 sec) 
Heartbeat CPU 4 instructions: 150000000 cycles: 144487193 heartbeat IPC: 1.12576 cumulative IPC: 0.817475 (Simulation time: 0 hr 55 min 39 sec) 
Heartbeat CPU 7 instructions: 160000000 cycles: 146835411 heartbeat IPC: 0.935743 cumulative IPC: 0.929028 (Simulation time: 0 hr 56 min 20 sec) 
Heartbeat CPU 0 instructions: 40000000 cycles: 150188487 heartbeat IPC: 0.153588 cumulative IPC: 0.154877 (Simulation time: 0 hr 57 min 27 sec) 
Heartbeat CPU 1 instructions: 90000003 cycles: 150731174 heartbeat IPC: 0.411785 cumulative IPC: 0.392535 (Simulation time: 0 hr 57 min 38 sec) 
Heartbeat CPU 6 instructions: 60000000 cycles: 151235954 heartbeat IPC: 0.219968 cumulative IPC: 0.214274 (Simulation time: 0 hr 57 min 50 sec) 
Heartbeat CPU 2 instructions: 130000000 cycles: 152701400 heartbeat IPC: 0.645061 cumulative IPC: 0.644782 (Simulation time: 0 hr 58 min 21 sec) 
Heartbeat CPU 4 instructions: 160000000 cycles: 153722798 heartbeat IPC: 1.08277 cumulative IPC: 0.835943 (Simulation time: 0 hr 58 min 43 sec) 
Heartbeat CPU 5 instructions: 160000000 cycles: 156083329 heartbeat IPC: 0.84292 cumulative IPC: 0.830568 (Simulation time: 0 hr 59 min 28 sec) 
Heartbeat CPU 7 instructions: 170000003 cycles: 157619279 heartbeat IPC: 0.927311 cumulative IPC: 0.928893 (Simulation time: 0 hr 59 min 59 sec) 
Heartbeat CPU 4 instructions: 170000000 cycles: 164337206 heartbeat IPC: 0.942116 cumulative IPC: 0.843809 (Simulation time: 1 hr 2 min 10 sec) 
Heartbeat CPU 2 instructions: 140000000 cycles: 168039006 heartbeat IPC: 0.651992 cumulative IPC: 0.645535 (Simulation time: 1 hr 3 min 24 sec) 
Heartbeat CPU 5 instructions: 170000002 cycles: 168063385 heartbeat IPC: 0.834721 cumulative IPC: 0.830906 (Simulation time: 1 hr 3 min 25 sec) 
Heartbeat CPU 7 instructions: 180000000 cycles: 168372141 heartbeat IPC: 0.929985 cumulative IPC: 0.928972 (Simulation time: 1 hr 3 min 32 sec) 
Heartbeat CPU 3 instructions: 70000002 cycles: 172128426 heartbeat IPC: 0.27429 cumulative IPC: 0.247592 (Simulation time: 1 hr 4 min 54 sec) 
Heartbeat CPU 4 instructions: 180000000 cycles: 172290092 heartbeat IPC: 1.25741 cumulative IPC: 0.865558 (Simulation time: 1 hr 4 min 57 sec) 
Heartbeat CPU 1 instructions: 100000000 cycles: 173242082 heartbeat IPC: 0.444229 cumulative IPC: 0.400182 (Simulation time: 1 hr 5 min 17 sec) 
Finished CPU 2 instructions: 100000000 cycles: 154490588 cumulative IPC: 0.647289 (Simulation time: 1 hr 6 min 1 sec) 
Heartbeat CPU 7 instructions: 190000001 cycles: 179029922 heartbeat IPC: 0.938282 cumulative IPC: 0.9296 (Simulation time: 1 hr 7 min 0 sec) 
Heartbeat CPU 5 instructions: 180000000 cycles: 179547710 heartbeat IPC: 0.870752 cumulative IPC: 0.833793 (Simulation time: 1 hr 7 min 11 sec) 
Heartbeat CPU 2 instructions: 150000000 cycles: 183018116 heartbeat IPC: 0.667596 cumulative IPC: 0.647575 (Simulation time: 1 hr 8 min 21 sec) 
Heartbeat CPU 4 instructions: 190000002 cycles: 186983977 heartbeat IPC: 0.680555 cumulative IPC: 0.849175 (Simulation time: 1 hr 9 min 36 sec) 
Heartbeat CPU 7 instructions: 200000000 cycles: 189593254 heartbeat IPC: 0.946671 cumulative IPC: 0.93067 (Simulation time: 1 hr 10 min 26 sec) 
Heartbeat CPU 5 instructions: 190000001 cycles: 190551192 heartbeat IPC: 0.908803 cumulative IPC: 0.838663 (Simulation time: 1 hr 10 min 45 sec) 
Heartbeat CPU 1 instructions: 110000000 cycles: 195516961 heartbeat IPC: 0.448936 cumulative IPC: 0.406406 (Simulation time: 1 hr 12 min 25 sec) 
Heartbeat CPU 6 instructions: 70000000 cycles: 195626778 heartbeat IPC: 0.225272 cumulative IPC: 0.217071 (Simulation time: 1 hr 12 min 27 sec) 
Heartbeat CPU 2 instructions: 160000000 cycles: 198239539 heartbeat IPC: 0.656969 cumulative IPC: 0.648382 (Simulation time: 1 hr 13 min 18 sec) 
Heartbeat CPU 7 instructions: 210000001 cycles: 200164253 heartbeat IPC: 0.945984 cumulative IPC: 0.931574 (Simulation time: 1 hr 13 min 55 sec) 
Heartbeat CPU 5 instructions: 200000000 cycles: 201383698 heartbeat IPC: 0.923147 cumulative IPC: 0.843738 (Simulation time: 1 hr 14 min 17 sec) 
Heartbeat CPU 4 instructions: 200000000 cycles: 202457105 heartbeat IPC: 0.646282 cumulative IPC: 0.831869 (Simulation time: 1 hr 14 min 39 sec) 
Heartbeat CPU 7 instructions: 220000000 cycles: 210710932 heartbeat IPC: 0.948166 cumulative IPC: 0.932497 (Simulation time: 1 hr 17 min 23 sec) 
Heartbeat CPU 5 instructions: 210000002 cycles: 212189118 heartbeat IPC: 0.925462 cumulative IPC: 0.848358 (Simulation time: 1 hr 17 min 51 sec) 
Heartbeat CPU 0 instructions: 50000001 cycles: 213460432 heartbeat IPC: 0.158048 cumulative IPC: 0.15592 (Simulation time: 1 hr 18 min 16 sec) 
Heartbeat CPU 2 instructions: 170000003 cycles: 213505297 heartbeat IPC: 0.655061 cumulative IPC: 0.648912 (Simulation time: 1 hr 18 min 17 sec) 
Heartbeat CPU 3 instructions: 80000000 cycles: 215183039 heartbeat IPC: 0.232263 cumulative IPC: 0.244192 (Simulation time: 1 hr 18 min 50 sec) 
Heartbeat CPU 1 instructions: 120000000 cycles: 216253831 heartbeat IPC: 0.482233 cumulative IPC: 0.414462 (Simulation time: 1 hr 19 min 13 sec) 
Heartbeat CPU 4 instructions: 210000003 cycles: 217893246 heartbeat IPC: 0.64783 cumulative IPC: 0.817437 (Simulation time: 1 hr 19 min 47 sec) 
Heartbeat CPU 7 instructions: 230000000 cycles: 221231761 heartbeat IPC: 0.950495 cumulative IPC: 0.933443 (Simulation time: 1 hr 20 min 54 sec) 
Heartbeat CPU 5 instructions: 220000000 cycles: 222894881 heartbeat IPC: 0.934076 cumulative IPC: 0.852905 (Simulation time: 1 hr 21 min 25 sec) 
Heartbeat CPU 2 instructions: 180000000 cycles: 228361622 heartbeat IPC: 0.673114 cumulative IPC: 0.650646 (Simulation time: 1 hr 23 min 15 sec) 
Heartbeat CPU 7 instructions: 240000000 cycles: 231859810 heartbeat IPC: 0.940906 cumulative IPC: 0.933819 (Simulation time: 1 hr 24 min 22 sec) 
Heartbeat CPU 4 instructions: 220000000 cycles: 233559345 heartbeat IPC: 0.638321 cumulative IPC: 0.804232 (Simulation time: 1 hr 24 min 55 sec) 
Heartbeat CPU 5 instructions: 230000002 cycles: 233750762 heartbeat IPC: 0.92116 cumulative IPC: 0.856388 (Simulation time: 1 hr 24 min 59 sec) 
Heartbeat CPU 6 instructions: 80000000 cycles: 238105051 heartbeat IPC: 0.235414 cumulative IPC: 0.220661 (Simulation time: 1 hr 26 min 15 sec) 
Heartbeat CPU 1 instructions: 130000001 cycles: 238284306 heartbeat IPC: 0.453917 cumulative IPC: 0.418463 (Simulation time: 1 hr 26 min 18 sec) 
Heartbeat CPU 7 instructions: 250000003 cycles: 242811271 heartbeat IPC: 0.91312 cumulative IPC: 0.932797 (Simulation time: 1 hr 27 min 40 sec) 
Heartbeat CPU 2 instructions: 190000000 cycles: 243773008 heartbeat IPC: 0.648871 cumulative IPC: 0.650523 (Simulation time: 1 hr 27 min 57 sec) 
Heartbeat CPU 5 instructions: 240000000 cycles: 246475822 heartbeat IPC: 0.785851 cumulative IPC: 0.852406 (Simulation time: 1 hr 28 min 49 sec) 
Heartbeat CPU 4 instructions: 230000003 cycles: 247469817 heartbeat IPC: 0.718883 cumulative IPC: 0.798988 (Simulation time: 1 hr 29 min 9 sec) 
Heartbeat CPU 3 instructions: 90000000 cycles: 250905604 heartbeat IPC: 0.279935 cumulative IPC: 0.249747 (Simulation time: 1 hr 30 min 18 sec) 
Heartbeat CPU 7 instructions: 260000000 cycles: 253663878 heartbeat IPC: 0.921437 cumulative IPC: 0.932267 (Simulation time: 1 hr 31 min 2 sec) 
Heartbeat CPU 5 instructions: 250000000 cycles: 258865249 heartbeat IPC: 0.80714 cumulative IPC: 0.850048 (Simulation time: 1 hr 32 min 35 sec) 
Heartbeat CPU 2 instructions: 200000000 cycles: 259435197 heartbeat IPC: 0.63848 cumulative IPC: 0.649732 (Simulation time: 1 hr 32 min 44 sec) 
Finished CPU 1 instructions: 100000003 cycles: 242409343 cumulative IPC: 0.412525 (Simulation time: 1 hr 33 min 59 sec) 
Heartbeat CPU 4 instructions: 240000000 cycles: 263609437 heartbeat IPC: 0.619593 cumulative IPC: 0.787051 (Simulation time: 1 hr 34 min 2 sec) 
Heartbeat CPU 7 instructions: 270000000 cycles: 264819711 heartbeat IPC: 0.896392 cumulative IPC: 0.930625 (Simulation time: 1 hr 34 min 27 sec) 
Heartbeat CPU 1 instructions: 140000000 cycles: 265447279 heartbeat IPC: 0.368148 cumulative IPC: 0.412871 (Simulation time: 1 hr 34 min 39 sec) 
Heartbeat CPU 5 instructions: 260000000 cycles: 271219334 heartbeat IPC: 0.809449 cumulative IPC: 0.848043 (Simulation time: 1 hr 36 min 36 sec) 
Heartbeat CPU 4 instructions: 250000003 cycles: 272378543 heartbeat IPC: 1.14037 cumulative IPC: 0.799379 (Simulation time: 1 hr 37 min 1 sec) 
Heartbeat CPU 2 instructions: 210000000 cycles: 275039441 heartbeat IPC: 0.640851 cumulative IPC: 0.649187 (Simulation time: 1 hr 37 min 55 sec) 
Heartbeat CPU 7 instructions: 280000000 cycles: 275490658 heartbeat IPC: 0.937124 cumulative IPC: 0.930898 (Simulation time: 1 hr 38 min 4 sec) 
Heartbeat CPU 0 instructions: 60000000 cycles: 277813227 heartbeat IPC: 0.155393 cumulative IPC: 0.155788 (Simulation time: 1 hr 38 min 50 sec) 
Heartbeat CPU 4 instructions: 260000000 cycles: 281247011 heartbeat IPC: 1.12759 cumulative IPC: 0.810566 (Simulation time: 1 hr 39 min 59 sec) 
Heartbeat CPU 5 instructions: 270000000 cycles: 283760911 heartbeat IPC: 0.797348 cumulative IPC: 0.845623 (Simulation time: 1 hr 40 min 48 sec) 
Heartbeat CPU 6 instructions: 90000002 cycles: 285161823 heartbeat IPC: 0.212509 cumulative IPC: 0.219208 (Simulation time: 1 hr 41 min 17 sec) 
Heartbeat CPU 7 instructions: 290000002 cycles: 286024375 heartbeat IPC: 0.949333 cumulative IPC: 0.93163 (Simulation time: 1 hr 41 min 34 sec) 
Heartbeat CPU 1 instructions: 150000001 cycles: 287137119 heartbeat IPC: 0.461045 cumulative IPC: 0.416798 (Simulation time: 1 hr 41 min 58 sec) 
Heartbeat CPU 4 instructions: 270000000 cycles: 289792920 heartbeat IPC: 1.17015 cumulative IPC: 0.822001 (Simulation time: 1 hr 42 min 56 sec) 
Heartbeat CPU 2 instructions: 220000000 cycles: 290407878 heartbeat IPC: 0.650684 cumulative IPC: 0.649272 (Simulation time: 1 hr 43 min 10 sec) 
Heartbeat CPU 3 instructions: 100000000 cycles: 294497806 heartbeat IPC: 0.229399 cumulative IPC: 0.246503 (Simulation time: 1 hr 44 min 33 sec) 
Heartbeat CPU 5 instructions: 280000000 cycles: 296140181 heartbeat IPC: 0.807802 cumulative IPC: 0.843921 (Simulation time: 1 hr 45 min 9 sec) 
Heartbeat CPU 7 instructions: 300000000 cycles: 296467274 heartbeat IPC: 0.957588 cumulative IPC: 0.932615 (Simulation time: 1 hr 45 min 16 sec) 
Heartbeat CPU 4 instructions: 280000000 cycles: 297845682 heartbeat IPC: 1.24181 cumulative IPC: 0.834214 (Simulation time: 1 hr 45 min 45 sec) 
Heartbeat CPU 2 instructions: 230000003 cycles: 305514852 heartbeat IPC: 0.661946 cumulative IPC: 0.649945 (Simulation time: 1 hr 48 min 22 sec) 
Heartbeat CPU 4 instructions: 290000003 cycles: 306477598 heartbeat IPC: 1.15849 cumulative IPC: 0.844021 (Simulation time: 1 hr 48 min 43 sec) 
Heartbeat CPU 7 instructions: 310000002 cycles: 307049220 heartbeat IPC: 0.945006 cumulative IPC: 0.933073 (Simulation time: 1 hr 48 min 55 sec) 
Heartbeat CPU 5 instructions: 290000002 cycles: 307168193 heartbeat IPC: 0.906782 cumulative IPC: 0.846344 (Simulation time: 1 hr 48 min 58 sec) 
Heartbeat CPU 1 instructions: 160000000 cycles: 307534123 heartbeat IPC: 0.490268 cumulative IPC: 0.422029 (Simulation time: 1 hr 49 min 5 sec) 
Heartbeat CPU 4 instructions: 300000000 cycles: 316224738 heartbeat IPC: 1.02594 cumulative IPC: 0.850029 (Simulation time: 1 hr 52 min 0 sec) 
Heartbeat CPU 7 instructions: 320000000 cycles: 317657801 heartbeat IPC: 0.942633 cumulative IPC: 0.933415 (Simulation time: 1 hr 52 min 32 sec) 
Heartbeat CPU 5 instructions: 300000000 cycles: 318575804 heartbeat IPC: 0.876608 cumulative IPC: 0.847504 (Simulation time: 1 hr 52 min 52 sec) 
Heartbeat CPU 2 instructions: 240000000 cycles: 321133806 heartbeat IPC: 0.640248 cumulative IPC: 0.64944 (Simulation time: 1 hr 53 min 41 sec) 
Heartbeat CPU 4 instructions: 310000000 cycles: 327194417 heartbeat IPC: 0.911604 cumulative IPC: 0.852235 (Simulation time: 1 hr 55 min 35 sec) 
Heartbeat CPU 7 instructions: 330000001 cycles: 328463651 heartbeat IPC: 0.925425 cumulative IPC: 0.933134 (Simulation time: 1 hr 56 min 3 sec) 
Heartbeat CPU 6 instructions: 100000000 cycles: 328973402 heartbeat IPC: 0.22825 cumulative IPC: 0.220495 (Simulation time: 1 hr 56 min 13 sec) 
Heartbeat CPU 3 instructions: 110000002 cycles: 330221605 heartbeat IPC: 0.279925 cumulative IPC: 0.250365 (Simulation time: 1 hr 56 min 39 sec) 
Heartbeat CPU 1 instructions: 170000002 cycles: 330525814 heartbeat IPC: 0.43494 cumulative IPC: 0.422988 (Simulation time: 1 hr 56 min 46 sec) 
Heartbeat CPU 5 instructions: 310000000 cycles: 330541139 heartbeat IPC: 0.835748 cumulative IPC: 0.84705 (Simulation time: 1 hr 56 min 46 sec) 
Heartbeat CPU 2 instructions: 250000001 cycles: 336763486 heartbeat IPC: 0.639808 cumulative IPC: 0.648963 (Simulation time: 1 hr 58 min 47 sec) 
Heartbeat CPU 7 instructions: 340000000 cycles: 339064274 heartbeat IPC: 0.943341 cumulative IPC: 0.933474 (Simulation time: 1 hr 59 min 34 sec) 
Heartbeat CPU 0 instructions: 70000000 cycles: 340660838 heartbeat IPC: 0.159115 cumulative IPC: 0.156442 (Simulation time: 2 hr 0 min 8 sec) 
Heartbeat CPU 4 instructions: 320000000 cycles: 341136827 heartbeat IPC: 0.717236 cumulative IPC: 0.846355 (Simulation time: 2 hr 0 min 17 sec) 
Heartbeat CPU 5 instructions: 320000000 cycles: 341525952 heartbeat IPC: 0.910348 cumulative IPC: 0.849219 (Simulation time: 2 hr 0 min 26 sec) 
Heartbeat CPU 7 instructions: 350000002 cycles: 349719411 heartbeat IPC: 0.938515 cumulative IPC: 0.933638 (Simulation time: 2 hr 3 min 5 sec) 
Heartbeat CPU 4 instructions: 330000000 cycles: 350667402 heartbeat IPC: 1.04925 cumulative IPC: 0.852221 (Simulation time: 2 hr 3 min 22 sec) 
Heartbeat CPU 2 instructions: 260000000 cycles: 352516017 heartbeat IPC: 0.634819 cumulative IPC: 0.648291 (Simulation time: 2 hr 3 min 56 sec) 
Heartbeat CPU 1 instructions: 180000000 cycles: 353243459 heartbeat IPC: 0.440186 cumulative IPC: 0.424164 (Simulation time: 2 hr 4 min 9 sec) 
Heartbeat CPU 5 instructions: 330000000 cycles: 353883094 heartbeat IPC: 0.809249 cumulative IPC: 0.847735 (Simulation time: 2 hr 4 min 20 sec) 
Heartbeat CPU 4 instructions: 340000000 cycles: 359900777 heartbeat IPC: 1.08303 cumulative IPC: 0.858511 (Simulation time: 2 hr 6 min 21 sec) 
Heartbeat CPU 7 instructions: 360000000 cycles: 360558827 heartbeat IPC: 0.922559 cumulative IPC: 0.933284 (Simulation time: 2 hr 6 min 33 sec) 
Heartbeat CPU 5 instructions: 340000000 cycles: 366198436 heartbeat IPC: 0.811995 cumulative IPC: 0.84646 (Simulation time: 2 hr 8 min 9 sec) 
Heartbeat CPU 2 instructions: 270000002 cycles: 368210562 heartbeat IPC: 0.637164 cumulative IPC: 0.647788 (Simulation time: 2 hr 8 min 44 sec) 
Heartbeat CPU 7 instructions: 370000001 cycles: 371561967 heartbeat IPC: 0.908832 cumulative IPC: 0.932517 (Simulation time: 2 hr 9 min 40 sec) 
Heartbeat CPU 3 instructions: 120000000 cycles: 373679902 heartbeat IPC: 0.230106 cumulative IPC: 0.247868 (Simulation time: 2 hr 10 min 18 sec) 
Heartbeat CPU 6 instructions: 110000000 cycles: 376190270 heartbeat IPC: 0.211789 cumulative IPC: 0.219337 (Simulation time: 2 hr 11 min 5 sec) 
Heartbeat CPU 4 instructions: 350000000 cycles: 376507892 heartbeat IPC: 0.602152 cumulative IPC: 0.846533 (Simulation time: 2 hr 11 min 11 sec) 
Heartbeat CPU 5 instructions: 350000003 cycles: 379233701 heartbeat IPC: 0.76715 cumulative IPC: 0.843574 (Simulation time: 2 hr 11 min 59 sec) 
Heartbeat CPU 1 instructions: 190000001 cycles: 379940892 heartbeat IPC: 0.374568 cumulative IPC: 0.420475 (Simulation time: 2 hr 12 min 10 sec) 
Heartbeat CPU 7 instructions: 380000000 cycles: 382742161 heartbeat IPC: 0.894439 cumulative IPC: 0.93134 (Simulation time: 2 hr 12 min 58 sec) 
Heartbeat CPU 2 instructions: 280000000 cycles: 384283572 heartbeat IPC: 0.622161 cumulative IPC: 0.646654 (Simulation time: 2 hr 13 min 26 sec) 
Heartbeat CPU 4 instructions: 360000000 cycles: 389572619 heartbeat IPC: 0.76542 cumulative IPC: 0.843658 (Simulation time: 2 hr 15 min 13 sec) 
Heartbeat CPU 5 instructions: 360000000 cycles: 391289406 heartbeat IPC: 0.829483 cumulative IPC: 0.843115 (Simulation time: 2 hr 15 min 44 sec) 
Heartbeat CPU 7 instructions: 390000001 cycles: 393452983 heartbeat IPC: 0.933635 cumulative IPC: 0.931405 (Simulation time: 2 hr 16 min 23 sec) 
Heartbeat CPU 2 instructions: 290000001 cycles: 400284610 heartbeat IPC: 0.62496 cumulative IPC: 0.645739 (Simulation time: 2 hr 18 min 27 sec) 
Heartbeat CPU 4 instructions: 370000001 cycles: 402898643 heartbeat IPC: 0.750411 cumulative IPC: 0.840404 (Simulation time: 2 hr 19 min 19 sec) 
Heartbeat CPU 5 instructions: 370000001 cycles: 403323138 heartbeat IPC: 0.830997 cumulative IPC: 0.842734 (Simulation time: 2 hr 19 min 28 sec) 
Heartbeat CPU 7 instructions: 400000000 cycles: 404123812 heartbeat IPC: 0.937134 cumulative IPC: 0.931565 (Simulation time: 2 hr 19 min 42 sec) 
Heartbeat CPU 1 instructions: 200000000 cycles: 404545336 heartbeat IPC: 0.406431 cumulative IPC: 0.419574 (Simulation time: 2 hr 19 min 51 sec) 
Heartbeat CPU 0 instructions: 80000000 cycles: 407249881 heartbeat IPC: 0.150175 cumulative IPC: 0.155362 (Simulation time: 2 hr 20 min 43 sec) 
Heartbeat CPU 7 instructions: 410000000 cycles: 414915885 heartbeat IPC: 0.926606 cumulative IPC: 0.931429 (Simulation time: 2 hr 22 min 56 sec) 
Heartbeat CPU 5 instructions: 380000000 cycles: 415968376 heartbeat IPC: 0.790811 cumulative IPC: 0.841071 (Simulation time: 2 hr 23 min 12 sec) 
Heartbeat CPU 2 instructions: 300000000 cycles: 416012232 heartbeat IPC: 0.635824 cumulative IPC: 0.645344 (Simulation time: 2 hr 23 min 13 sec) 
Heartbeat CPU 4 instructions: 380000000 cycles: 419747057 heartbeat IPC: 0.593528 cumulative IPC: 0.829971 (Simulation time: 2 hr 24 min 15 sec) 
Heartbeat CPU 3 instructions: 130000002 cycles: 420570102 heartbeat IPC: 0.213264 cumulative IPC: 0.243807 (Simulation time: 2 hr 24 min 31 sec) 
Heartbeat CPU 6 instructions: 120000000 cycles: 424660851 heartbeat IPC: 0.206311 cumulative IPC: 0.217773 (Simulation time: 2 hr 25 min 50 sec) 
Heartbeat CPU 7 instructions: 420000000 cycles: 425675328 heartbeat IPC: 0.929416 cumulative IPC: 0.931376 (Simulation time: 2 hr 26 min 8 sec) 
Heartbeat CPU 5 instructions: 390000003 cycles: 428335057 heartbeat IPC: 0.808625 cumulative IPC: 0.840086 (Simulation time: 2 hr 26 min 55 sec) 
Finished CPU 3 instructions: 100000000 cycles: 409715181 cumulative IPC: 0.244072 (Simulation time: 2 hr 27 min 43 sec) 
Heartbeat CPU 1 instructions: 210000000 cycles: 430811961 heartbeat IPC: 0.380711 cumulative IPC: 0.417082 (Simulation time: 2 hr 27 min 44 sec) 
Heartbeat CPU 2 instructions: 310000002 cycles: 431985154 heartbeat IPC: 0.62606 cumulative IPC: 0.644594 (Simulation time: 2 hr 28 min 8 sec) 
Heartbeat CPU 4 instructions: 390000000 cycles: 432007788 heartbeat IPC: 0.815612 cumulative IPC: 0.829542 (Simulation time: 2 hr 28 min 8 sec) 
Heartbeat CPU 7 instructions: 430000000 cycles: 436485150 heartbeat IPC: 0.925085 cumulative IPC: 0.931212 (Simulation time: 2 hr 29 min 23 sec) 
Heartbeat CPU 5 instructions: 400000000 cycles: 440882929 heartbeat IPC: 0.796948 cumulative IPC: 0.838796 (Simulation time: 2 hr 30 min 40 sec) 
Heartbeat CPU 4 instructions: 400000000 cycles: 445934581 heartbeat IPC: 0.71804 cumulative IPC: 0.825888 (Simulation time: 2 hr 32 min 15 sec) 
Heartbeat CPU 7 instructions: 440000000 cycles: 447253905 heartbeat IPC: 0.928612 cumulative IPC: 0.931146 (Simulation time: 2 hr 32 min 42 sec) 
Heartbeat CPU 2 instructions: 320000000 cycles: 448437379 heartbeat IPC: 0.60782 cumulative IPC: 0.643179 (Simulation time: 2 hr 33 min 6 sec) 
Heartbeat CPU 5 instructions: 410000001 cycles: 453554195 heartbeat IPC: 0.789187 cumulative IPC: 0.837343 (Simulation time: 2 hr 34 min 29 sec) 
Heartbeat CPU 7 instructions: 450000001 cycles: 458297684 heartbeat IPC: 0.905487 cumulative IPC: 0.930498 (Simulation time: 2 hr 35 min 49 sec) 
Heartbeat CPU 1 instructions: 220000000 cycles: 459843746 heartbeat IPC: 0.34445 cumulative IPC: 0.412277 (Simulation time: 2 hr 36 min 17 sec) 
Heartbeat CPU 4 instructions: 410000000 cycles: 462607496 heartbeat IPC: 0.599775 cumulative IPC: 0.81735 (Simulation time: 2 hr 37 min 8 sec) 
Heartbeat CPU 2 instructions: 330000003 cycles: 465278643 heartbeat IPC: 0.59378 cumulative IPC: 0.641306 (Simulation time: 2 hr 38 min 2 sec) 
Heartbeat CPU 5 instructions: 420000000 cycles: 465921597 heartbeat IPC: 0.808577 cumulative IPC: 0.836543 (Simulation time: 2 hr 38 min 15 sec) 
Heartbeat CPU 3 instructions: 140000000 cycles: 467785791 heartbeat IPC: 0.211794 cumulative IPC: 0.240423 (Simulation time: 2 hr 38 min 49 sec) 
Heartbeat CPU 7 instructions: 460000000 cycles: 469056935 heartbeat IPC: 0.929433 cumulative IPC: 0.930473 (Simulation time: 2 hr 39 min 10 sec) 
Heartbeat CPU 0 instructions: 90000003 cycles: 474218697 heartbeat IPC: 0.149323 cumulative IPC: 0.154469 (Simulation time: 2 hr 40 min 55 sec) 
Heartbeat CPU 6 instructions: 130000001 cycles: 474278838 heartbeat IPC: 0.20154 cumulative IPC: 0.215996 (Simulation time: 2 hr 40 min 56 sec) 
Heartbeat CPU 4 instructions: 420000000 cycles: 475704354 heartbeat IPC: 0.763542 cumulative IPC: 0.8158 (Simulation time: 2 hr 41 min 21 sec) 
Heartbeat CPU 5 instructions: 430000002 cycles: 478226366 heartbeat IPC: 0.812693 cumulative IPC: 0.835901 (Simulation time: 2 hr 42 min 5 sec) 
Heartbeat CPU 7 instructions: 470000001 cycles: 479875434 heartbeat IPC: 0.924343 cumulative IPC: 0.930328 (Simulation time: 2 hr 42 min 36 sec) 
Heartbeat CPU 2 instructions: 340000000 cycles: 481894775 heartbeat IPC: 0.601825 cumulative IPC: 0.639882 (Simulation time: 2 hr 43 min 11 sec) 
Heartbeat CPU 1 instructions: 230000000 cycles: 485161486 heartbeat IPC: 0.39498 cumulative IPC: 0.411333 (Simulation time: 2 hr 44 min 10 sec) 
Finished CPU 6 instructions: 100000001 cycles: 464281308 cumulative IPC: 0.215387 (Simulation time: 2 hr 44 min 14 sec) 
Heartbeat CPU 5 instructions: 440000000 cycles: 490486178 heartbeat IPC: 0.815673 cumulative IPC: 0.835373 (Simulation time: 2 hr 45 min 50 sec) 
Heartbeat CPU 7 instructions: 480000000 cycles: 490709033 heartbeat IPC: 0.923054 cumulative IPC: 0.93016 (Simulation time: 2 hr 45 min 54 sec) 
Heartbeat CPU 4 instructions: 430000000 cycles: 490777688 heartbeat IPC: 0.663423 cumulative IPC: 0.81091 (Simulation time: 2 hr 45 min 55 sec) 
Heartbeat CPU 2 instructions: 350000003 cycles: 498510078 heartbeat IPC: 0.601855 cumulative IPC: 0.638559 (Simulation time: 2 hr 48 min 3 sec) 
Heartbeat CPU 7 instructions: 490000000 cycles: 501593499 heartbeat IPC: 0.918741 cumulative IPC: 0.929902 (Simulation time: 2 hr 49 min 3 sec) 
Heartbeat CPU 5 instructions: 450000003 cycles: 503269973 heartbeat IPC: 0.782241 cumulative IPC: 0.833965 (Simulation time: 2 hr 49 min 37 sec) 
Heartbeat CPU 4 instructions: 440000000 cycles: 505173747 heartbeat IPC: 0.694635 cumulative IPC: 0.807452 (Simulation time: 2 hr 50 min 11 sec) 
Heartbeat CPU 1 instructions: 240000000 cycles: 511924683 heartbeat IPC: 0.373647 cumulative IPC: 0.409279 (Simulation time: 2 hr 52 min 14 sec) 
Heartbeat CPU 7 instructions: 500000000 cycles: 512427394 heartbeat IPC: 0.923029 cumulative IPC: 0.92975 (Simulation time: 2 hr 52 min 23 sec) 
Heartbeat CPU 2 instructions: 360000000 cycles: 514582814 heartbeat IPC: 0.622171 cumulative IPC: 0.638025 (Simulation time: 2 hr 53 min 6 sec) 
Heartbeat CPU 3 instructions: 150000001 cycles: 514815513 heartbeat IPC: 0.212632 cumulative IPC: 0.237776 (Simulation time: 2 hr 53 min 11 sec) 
Heartbeat CPU 5 instructions: 460000000 cycles: 515418324 heartbeat IPC: 0.823157 cumulative IPC: 0.833699 (Simulation time: 2 hr 53 min 23 sec) 
Heartbeat CPU 4 instructions: 450000000 cycles: 517987700 heartbeat IPC: 0.780399 cumulative IPC: 0.806755 (Simulation time: 2 hr 54 min 14 sec) 
Heartbeat CPU 7 instructions: 510000003 cycles: 523068183 heartbeat IPC: 0.93978 cumulative IPC: 0.929963 (Simulation time: 2 hr 55 min 45 sec) 
Heartbeat CPU 6 instructions: 140000000 cycles: 525611343 heartbeat IPC: 0.194808 cumulative IPC: 0.21384 (Simulation time: 2 hr 56 min 30 sec) 
Heartbeat CPU 5 instructions: 470000000 cycles: 528061960 heartbeat IPC: 0.790912 cumulative IPC: 0.832632 (Simulation time: 2 hr 57 min 11 sec) 
Heartbeat CPU 2 instructions: 370000001 cycles: 531019449 heartbeat IPC: 0.608397 cumulative IPC: 0.63707 (Simulation time: 2 hr 58 min 7 sec) 
Heartbeat CPU 7 instructions: 520000000 cycles: 534064180 heartbeat IPC: 0.909422 cumulative IPC: 0.929522 (Simulation time: 2 hr 58 min 55 sec) 
Heartbeat CPU 4 instructions: 460000000 cycles: 535618291 heartbeat IPC: 0.567196 cumulative IPC: 0.798547 (Simulation time: 2 hr 59 min 20 sec) 
Heartbeat CPU 1 instructions: 250000000 cycles: 540741885 heartbeat IPC: 0.347015 cumulative IPC: 0.405826 (Simulation time: 3 hr 0 min 41 sec) 
Heartbeat CPU 5 instructions: 480000000 cycles: 541816487 heartbeat IPC: 0.727033 cumulative IPC: 0.829843 (Simulation time: 3 hr 1 min 0 sec) 
Heartbeat CPU 0 instructions: 100000000 cycles: 542952744 heartbeat IPC: 0.145488 cumulative IPC: 0.153286 (Simulation time: 3 hr 1 min 21 sec) 
Heartbeat CPU 7 instructions: 530000003 cycles: 545068382 heartbeat IPC: 0.908744 cumulative IPC: 0.929086 (Simulation time: 3 hr 2 min 3 sec) 
Heartbeat CPU 2 instructions: 380000000 cycles: 547815357 heartbeat IPC: 0.595383 cumulative IPC: 0.635741 (Simulation time: 3 hr 2 min 49 sec) 
Heartbeat CPU 5 instructions: 490000002 cycles: 553748540 heartbeat IPC: 0.838079 cumulative IPC: 0.830027 (Simulation time: 3 hr 4 min 36 sec) 
Heartbeat CPU 4 instructions: 470000001 cycles: 555341477 heartbeat IPC: 0.507018 cumulative IPC: 0.787785 (Simulation time: 3 hr 5 min 8 sec) 
Heartbeat CPU 7 instructions: 540000000 cycles: 555965336 heartbeat IPC: 0.917687 cumulative IPC: 0.928854 (Simulation time: 3 hr 5 min 21 sec) 
Heartbeat CPU 3 instructions: 160000000 cycles: 560058064 heartbeat IPC: 0.221031 cumulative IPC: 0.236371 (Simulation time: 3 hr 6 min 45 sec) 
Heartbeat CPU 1 instructions: 260000000 cycles: 563020754 heartbeat IPC: 0.448856 cumulative IPC: 0.407595 (Simulation time: 3 hr 7 min 44 sec) 
Heartbeat CPU 2 instructions: 390000000 cycles: 563726533 heartbeat IPC: 0.628489 cumulative IPC: 0.635529 (Simulation time: 3 hr 7 min 58 sec) 
Heartbeat CPU 4 instructions: 480000000 cycles: 564053458 heartbeat IPC: 1.14784 cumulative IPC: 0.793562 (Simulation time: 3 hr 8 min 4 sec) 
Heartbeat CPU 5 instructions: 500000000 cycles: 565503490 heartbeat IPC: 0.850705 cumulative IPC: 0.830474 (Simulation time: 3 hr 8 min 32 sec) 
Heartbeat CPU 7 instructions: 550000000 cycles: 566693162 heartbeat IPC: 0.932155 cumulative IPC: 0.928919 (Simulation time: 3 hr 8 min 57 sec) 
Heartbeat CPU 4 instructions: 490000003 cycles: 573487726 heartbeat IPC: 1.05997 cumulative IPC: 0.798111 (Simulation time: 3 hr 11 min 13 sec) 
Heartbeat CPU 5 instructions: 510000000 cycles: 576474159 heartbeat IPC: 0.911521 cumulative IPC: 0.832075 (Simulation time: 3 hr 12 min 14 sec) 
Heartbeat CPU 6 instructions: 150000000 cycles: 576584542 heartbeat IPC: 0.196182 cumulative IPC: 0.21222 (Simulation time: 3 hr 12 min 17 sec) 
Heartbeat CPU 7 instructions: 560000000 cycles: 577284302 heartbeat IPC: 0.944185 cumulative IPC: 0.929209 (Simulation time: 3 hr 12 min 31 sec) 
Heartbeat CPU 2 instructions: 400000000 cycles: 579441191 heartbeat IPC: 0.636349 cumulative IPC: 0.635552 (Simulation time: 3 hr 13 min 12 sec) 
Heartbeat CPU 4 instructions: 500000000 cycles: 582873554 heartbeat IPC: 1.06544 cumulative IPC: 0.802577 (Simulation time: 3 hr 14 min 18 sec) 
Heartbeat CPU 1 instructions: 270000002 cycles: 584546547 heartbeat IPC: 0.464559 cumulative IPC: 0.409771 (Simulation time: 3 hr 14 min 53 sec) 
Heartbeat CPU 7 instructions: 570000003 cycles: 588001773 heartbeat IPC: 0.933056 cumulative IPC: 0.929282 (Simulation time: 3 hr 15 min 59 sec) 
Heartbeat CPU 5 instructions: 520000000 cycles: 588084657 heartbeat IPC: 0.86129 cumulative IPC: 0.832673 (Simulation time: 3 hr 16 min 1 sec) 
Heartbeat CPU 4 instructions: 510000001 cycles: 595064295 heartbeat IPC: 0.820295 cumulative IPC: 0.802954 (Simulation time: 3 hr 18 min 5 sec) 
Heartbeat CPU 2 instructions: 410000001 cycles: 595379596 heartbeat IPC: 0.627415 cumulative IPC: 0.635326 (Simulation time: 3 hr 18 min 12 sec) 
Heartbeat CPU 3 instructions: 170000000 cycles: 598848286 heartbeat IPC: 0.257797 cumulative IPC: 0.237809 (Simulation time: 3 hr 19 min 24 sec) 
Heartbeat CPU 7 instructions: 580000000 cycles: 598855711 heartbeat IPC: 0.921324 cumulative IPC: 0.929133 (Simulation time: 3 hr 19 min 24 sec) 
Heartbeat CPU 5 instructions: 530000001 cycles: 600306026 heartbeat IPC: 0.818239 cumulative IPC: 0.832368 (Simulation time: 3 hr 19 min 52 sec) 
Heartbeat CPU 4 instructions: 520000000 cycles: 603811486 heartbeat IPC: 1.14322 cumulative IPC: 0.808061 (Simulation time: 3 hr 21 min 6 sec) 
Heartbeat CPU 1 instructions: 280000000 cycles: 607005307 heartbeat IPC: 0.44526 cumulative IPC: 0.411131 (Simulation time: 3 hr 22 min 11 sec) 
Heartbeat CPU 7 instructions: 590000003 cycles: 609597245 heartbeat IPC: 0.930966 cumulative IPC: 0.929166 (Simulation time: 3 hr 23 min 2 sec) 
Heartbeat CPU 0 instructions: 110000002 cycles: 609613587 heartbeat IPC: 0.150013 cumulative IPC: 0.152916 (Simulation time: 3 hr 23 min 2 sec) 
Heartbeat CPU 2 instructions: 420000000 cycles: 611121597 heartbeat IPC: 0.635243 cumulative IPC: 0.635324 (Simulation time: 3 hr 23 min 35 sec) 
Heartbeat CPU 5 instructions: 540000000 cycles: 611295090 heartbeat IPC: 0.909995 cumulative IPC: 0.833814 (Simulation time: 3 hr 23 min 39 sec) 
Heartbeat CPU 4 instructions: 530000001 cycles: 613267580 heartbeat IPC: 1.05752 cumulative IPC: 0.812044 (Simulation time: 3 hr 24 min 18 sec) 
Heartbeat CPU 7 instructions: 600000000 cycles: 620190820 heartbeat IPC: 0.943968 cumulative IPC: 0.929428 (Simulation time: 3 hr 26 min 35 sec) 
Heartbeat CPU 5 instructions: 550000000 cycles: 623052127 heartbeat IPC: 0.850554 cumulative IPC: 0.83414 (Simulation time: 3 hr 27 min 25 sec) 
Heartbeat CPU 4 instructions: 540000000 cycles: 623730955 heartbeat IPC: 0.955714 cumulative IPC: 0.814539 (Simulation time: 3 hr 27 min 38 sec) 
Heartbeat CPU 6 instructions: 160000000 cycles: 626169812 heartbeat IPC: 0.201673 cumulative IPC: 0.211356 (Simulation time: 3 hr 28 min 28 sec) 
Heartbeat CPU 2 instructions: 430000001 cycles: 626759811 heartbeat IPC: 0.639459 cumulative IPC: 0.63543 (Simulation time: 3 hr 28 min 40 sec) 
Heartbeat CPU 1 instructions: 290000000 cycles: 629687898 heartbeat IPC: 0.440867 cumulative IPC: 0.412239 (Simulation time: 3 hr 29 min 30 sec) 
Heartbeat CPU 7 instructions: 610000002 cycles: 631010056 heartbeat IPC: 0.92428 cumulative IPC: 0.929337 (Simulation time: 3 hr 29 min 52 sec) 
Heartbeat CPU 3 instructions: 180000000 cycles: 633227677 heartbeat IPC: 0.290872 cumulative IPC: 0.240789 (Simulation time: 3 hr 30 min 35 sec) 
Heartbeat CPU 5 instructions: 560000000 cycles: 634615807 heartbeat IPC: 0.864777 cumulative IPC: 0.834718 (Simulation time: 3 hr 31 min 2 sec) 
Heartbeat CPU 4 instructions: 550000001 cycles: 636437482 heartbeat IPC: 0.786997 cumulative IPC: 0.81397 (Simulation time: 3 hr 31 min 39 sec) 
Heartbeat CPU 7 instructions: 620000000 cycles: 641802767 heartbeat IPC: 0.926551 cumulative IPC: 0.929288 (Simulation time: 3 hr 33 min 26 sec) 
Heartbeat CPU 2 instructions: 440000000 cycles: 643033339 heartbeat IPC: 0.614495 cumulative IPC: 0.634883 (Simulation time: 3 hr 33 min 51 sec) 
Heartbeat CPU 4 instructions: 560000000 cycles: 645296319 heartbeat IPC: 1.12882 cumulative IPC: 0.818438 (Simulation time: 3 hr 34 min 33 sec) 
Heartbeat CPU 5 instructions: 570000003 cycles: 646647906 heartbeat IPC: 0.83111 cumulative IPC: 0.834648 (Simulation time: 3 hr 34 min 58 sec) 
Heartbeat CPU 1 instructions: 300000000 cycles: 653987300 heartbeat IPC: 0.411533 cumulative IPC: 0.412212 (Simulation time: 3 hr 37 min 11 sec) 
Heartbeat CPU 4 instructions: 570000001 cycles: 654807244 heartbeat IPC: 1.05142 cumulative IPC: 0.821934 (Simulation time: 3 hr 37 min 28 sec) 
Heartbeat CPU 5 instructions: 580000000 cycles: 657788945 heartbeat IPC: 0.897582 cumulative IPC: 0.83575 (Simulation time: 3 hr 38 min 29 sec) 
Heartbeat CPU 7 instructions: 630000000 cycles: 657814485 heartbeat IPC: 0.624543 cumulative IPC: 0.921625 (Simulation time: 3 hr 38 min 29 sec) 
Heartbeat CPU 2 instructions: 450000002 cycles: 658834477 heartbeat IPC: 0.632866 cumulative IPC: 0.634833 (Simulation time: 3 hr 38 min 49 sec) 
Heartbeat CPU 4 instructions: 580000000 cycles: 664914198 heartbeat IPC: 0.989418 cumulative IPC: 0.824563 (Simulation time: 3 hr 40 min 44 sec) 
Heartbeat CPU 5 instructions: 590000001 cycles: 668494221 heartbeat IPC: 0.934119 cumulative IPC: 0.837376 (Simulation time: 3 hr 41 min 53 sec) 
Heartbeat CPU 7 instructions: 640000000 cycles: 673652133 heartbeat IPC: 0.631407 cumulative IPC: 0.914582 (Simulation time: 3 hr 43 min 25 sec) 
Heartbeat CPU 2 instructions: 460000000 cycles: 674098387 heartbeat IPC: 0.65514 cumulative IPC: 0.635307 (Simulation time: 3 hr 43 min 32 sec) 
Heartbeat CPU 1 instructions: 310000003 cycles: 674743113 heartbeat IPC: 0.481793 cumulative IPC: 0.414422 (Simulation time: 3 hr 43 min 43 sec) 
Heartbeat CPU 0 instructions: 120000000 cycles: 676656090 heartbeat IPC: 0.149159 cumulative IPC: 0.152532 (Simulation time: 3 hr 44 min 20 sec) 
Finished CPU 0 instructions: 100000000 cycles: 655602280 cumulative IPC: 0.152531 (Simulation time: 3 hr 44 min 20 sec) 

CPU 0 Branch Prediction Accuracy: 92.4261% MPKI: 6.09924

CPU 1 Branch Prediction Accuracy: 98.3105% MPKI: 2.88394

CPU 2 Branch Prediction Accuracy: 96.5966% MPKI: 4.26695

CPU 3 Branch Prediction Accuracy: 98.5095% MPKI: 1.56289

CPU 4 Branch Prediction Accuracy: 98.7803% MPKI: 0.571523

CPU 5 Branch Prediction Accuracy: 99.9025% MPKI: 0.0168881

CPU 6 Branch Prediction Accuracy: 91.801% MPKI: 15.8374

CPU 7 Branch Prediction Accuracy: 99.9244% MPKI: 0.0374014

ChampSim completed all CPUs

Total Simulation Statistics (not including warmup)

CPU 0 cumulative IPC: 0.152531 instructions: 100000000 cycles: 655602280
L1D TOTAL     ACCESS:   53623959  HIT:   44601149  MISS:    9022810
L1D LOAD      ACCESS:   33920546  HIT:   29271164  MISS:    4649382
L1D RFO       ACCESS:   19703413  HIT:   15329985  MISS:    4373428
L1D PREFETCH  ACCESS:          0  HIT:          0  MISS:          0
L1D WRITEBACK ACCESS:          0  HIT:          0  MISS:          0
L1I TOTAL     ACCESS:   24003444  HIT:   24003444  MISS:          0
L1I LOAD      ACCESS:   24003444  HIT:   24003444  MISS:          0
L1I RFO       ACCESS:          0  HIT:          0  MISS:          0
L1I PREFETCH  ACCESS:          0  HIT:          0  MISS:          0
L1I WRITEBACK ACCESS:          0  HIT:          0  MISS:          0
L2C TOTAL     ACCESS:   21741320  HIT:   12561800  MISS:    9179520
L2C LOAD      ACCESS:    4649313  HIT:    2580096  MISS:    2069217
L2C RFO       ACCESS:    4373428  HIT:         10  MISS:    4373418
L2C PREFETCH  ACCESS:    3695769  HIT:     963504  MISS:    2732265
L2C WRITEBACK ACCESS:    9022810  HIT:    9018190  MISS:       4620

Avg Lookahead Depth:	3.9905
TOTAL: 1.48333e+08	L2C: 1.22943e+08	LLC: 2.53902e+07	GOOD_L2C: 8.02544e+07
Printing all the perceptron weights to: perc_weights_0.csv
LLC TOTAL     ACCESS:   19133026  HIT:   11377596  MISS:    7755430
LLC LOAD      ACCESS:    1957289  HIT:    1524821  MISS:     432468
LLC RFO       ACCESS:    4373418  HIT:      19568  MISS:    4353850
LLC PREFETCH  ACCESS:    4039823  HIT:    1070995  MISS:    2968828
LLC WRITEBACK ACCESS:    8762496  HIT:    8762212  MISS:        284

CPU 1 cumulative IPC: 0.414581 instructions: 271800181 cycles: 655602281
L1D TOTAL     ACCESS:  108181986  HIT:   65998247  MISS:   42183739
L1D LOAD      ACCESS:   91709586  HIT:   50074948  MISS:   41634638
L1D RFO       ACCESS:   16472400  HIT:   15923299  MISS:     549101
L1D PREFETCH  ACCESS:          0  HIT:          0  MISS:          0
L1D WRITEBACK ACCESS:          0  HIT:          0  MISS:          0
L1I TOTAL     ACCESS:   97783439  HIT:   97783438  MISS:          1
L1I LOAD      ACCESS:   97783439  HIT:   97783438  MISS:          1
L1I RFO       ACCESS:          0  HIT:          0  MISS:          0
L1I PREFETCH  ACCESS:          0  HIT:          0  MISS:          0
L1I WRITEBACK ACCESS:          0  HIT:          0  MISS:          0
L2C TOTAL     ACCESS:   82028876  HIT:   32883333  MISS:   49145543
L2C LOAD      ACCESS:   41634624  HIT:   28115994  MISS:   13518630
L2C RFO       ACCESS:     549101  HIT:      26726  MISS:     522375
L2C PREFETCH  ACCESS:   39091662  HIT:    3989212  MISS:   35102450
L2C WRITEBACK ACCESS:     753489  HIT:     751401  MISS:       2088

Avg Lookahead Depth:	3.9905
TOTAL: 1.48333e+08	L2C: 1.22943e+08	LLC: 2.53902e+07	GOOD_L2C: 8.02544e+07
Printing all the perceptron weights to: perc_weights_0.csv
LLC TOTAL     ACCESS:   54818760  HIT:   52192212  MISS:    2626548
LLC LOAD      ACCESS:    5111650  HIT:    5061339  MISS:      50311
LLC RFO       ACCESS:     521561  HIT:       5227  MISS:     516334
LLC PREFETCH  ACCESS:   48436320  HIT:   46376499  MISS:    2059821
LLC WRITEBACK ACCESS:     749229  HIT:     749147  MISS:         82

CPU 2 cumulative IPC: 0.63536 instructions: 416543794 cycles: 655602281
L1D TOTAL     ACCESS:  108205100  HIT:  105312851  MISS:    2892249
L1D LOAD      ACCESS:   65751827  HIT:   62991280  MISS:    2760547
L1D RFO       ACCESS:   42453273  HIT:   42321571  MISS:     131702
L1D PREFETCH  ACCESS:          0  HIT:          0  MISS:          0
L1D WRITEBACK ACCESS:          0  HIT:          0  MISS:          0
L1I TOTAL     ACCESS:   91560383  HIT:   91560383  MISS:          0
L1I LOAD      ACCESS:   91560383  HIT:   91560383  MISS:          0
L1I RFO       ACCESS:          0  HIT:          0  MISS:          0
L1I PREFETCH  ACCESS:          0  HIT:          0  MISS:          0
L1I WRITEBACK ACCESS:          0  HIT:          0  MISS:          0
L2C TOTAL     ACCESS:    6675458  HIT:    3973235  MISS:    2702223
L2C LOAD      ACCESS:    2760547  HIT:    1389419  MISS:    1371128
L2C RFO       ACCESS:     131697  HIT:      55204  MISS:      76493
L2C PREFETCH  ACCESS:    3575736  HIT:    2323257  MISS:    1252479
L2C WRITEBACK ACCESS:     207478  HIT:     205355  MISS:       2123

Avg Lookahead Depth:	3.9905
TOTAL: 1.48333e+08	L2C: 1.22943e+08	LLC: 2.53902e+07	GOOD_L2C: 8.02544e+07
Printing all the perceptron weights to: perc_weights_0.csv
LLC TOTAL     ACCESS:    3831004  HIT:    3374129  MISS:     456875
LLC LOAD      ACCESS:    1311940  HIT:    1218615  MISS:      93325
LLC RFO       ACCESS:      76438  HIT:      16510  MISS:      59928
LLC PREFETCH  ACCESS:    2332068  HIT:    2037092  MISS:     294976
LLC WRITEBACK ACCESS:     110558  HIT:     101912  MISS:       8646

CPU 3 cumulative IPC: 0.238896 instructions: 156620805 cycles: 655602281
L1D TOTAL     ACCESS:   75874033  HIT:   68234163  MISS:    7639870
L1D LOAD      ACCESS:   37950676  HIT:   30676935  MISS:    7273741
L1D RFO       ACCESS:   37923357  HIT:   37557228  MISS:     366129
L1D PREFETCH  ACCESS:          0  HIT:          0  MISS:          0
L1D WRITEBACK ACCESS:          0  HIT:          0  MISS:          0
L1I TOTAL     ACCESS:   51667447  HIT:   51667447  MISS:          0
L1I LOAD      ACCESS:   51667447  HIT:   51667447  MISS:          0
L1I RFO       ACCESS:          0  HIT:          0  MISS:          0
L1I PREFETCH  ACCESS:          0  HIT:          0  MISS:          0
L1I WRITEBACK ACCESS:          0  HIT:          0  MISS:          0
L2C TOTAL     ACCESS:   15623712  HIT:    6671826  MISS:    8951886
L2C LOAD      ACCESS:    7273702  HIT:    3893749  MISS:    3379953
L2C RFO       ACCESS:     366097  HIT:      22184  MISS:     343913
L2C PREFETCH  ACCESS:    7101544  HIT:    1879556  MISS:    5221988
L2C WRITEBACK ACCESS:     882369  HIT:     876337  MISS:       6032

Avg Lookahead Depth:	3.9905
TOTAL: 1.48333e+08	L2C: 1.22943e+08	LLC: 2.53902e+07	GOOD_L2C: 8.02544e+07
Printing all the perceptron weights to: perc_weights_0.csv
LLC TOTAL     ACCESS:   10973680  HIT:    1565502  MISS:    9408178
LLC LOAD      ACCESS:    1389227  HIT:     149810  MISS:    1239417
LLC RFO       ACCESS:     342317  HIT:      10199  MISS:     332118
LLC PREFETCH  ACCESS:    8517436  HIT:     685872  MISS:    7831564
LLC WRITEBACK ACCESS:     724700  HIT:     719621  MISS:       5079

CPU 4 cumulative IPC: 0.824053 instructions: 540250843 cycles: 655602281
L1D TOTAL     ACCESS:  141337492  HIT:  130323120  MISS:   11014372
L1D LOAD      ACCESS:  120320067  HIT:  111083117  MISS:    9236950
L1D RFO       ACCESS:   21017425  HIT:   19240003  MISS:    1777422
L1D PREFETCH  ACCESS:          0  HIT:          0  MISS:          0
L1D WRITEBACK ACCESS:          0  HIT:          0  MISS:          0
L1I TOTAL     ACCESS:  141497015  HIT:  141479410  MISS:      17605
L1I LOAD      ACCESS:  141497015  HIT:  141479410  MISS:      17605
L1I RFO       ACCESS:          0  HIT:          0  MISS:          0
L1I PREFETCH  ACCESS:          0  HIT:          0  MISS:          0
L1I WRITEBACK ACCESS:          0  HIT:          0  MISS:          0
L2C TOTAL     ACCESS:   26375895  HIT:   18084844  MISS:    8291051
L2C LOAD      ACCESS:    9254210  HIT:    7796497  MISS:    1457713
L2C RFO       ACCESS:    1777409  HIT:     478462  MISS:    1298947
L2C PREFETCH  ACCESS:   11492203  HIT:    5961823  MISS:    5530380
L2C WRITEBACK ACCESS:    3852073  HIT:    3848062  MISS:       4011

Avg Lookahead Depth:	3.9905
TOTAL: 1.48333e+08	L2C: 1.22943e+08	LLC: 2.53902e+07	GOOD_L2C: 8.02544e+07
Printing all the perceptron weights to: perc_weights_0.csv
LLC TOTAL     ACCESS:   12061992  HIT:    5020639  MISS:    7041353
LLC LOAD      ACCESS:     605183  HIT:     172665  MISS:     432518
LLC RFO       ACCESS:    1298479  HIT:     182069  MISS:    1116410
LLC PREFETCH  ACCESS:    7108110  HIT:    1632859  MISS:    5475251
LLC WRITEBACK ACCESS:    3050220  HIT:    3033046  MISS:      17174

CPU 5 cumulative IPC: 0.83741 instructions: 549007639 cycles: 655602281
L1D TOTAL     ACCESS:  117060274  HIT:  109837388  MISS:    7222886
L1D LOAD      ACCESS:   78432924  HIT:   71220415  MISS:    7212509
L1D RFO       ACCESS:   38627350  HIT:   38616973  MISS:      10377
L1D PREFETCH  ACCESS:          0  HIT:          0  MISS:          0
L1D WRITEBACK ACCESS:          0  HIT:          0  MISS:          0
L1I TOTAL     ACCESS:  113821482  HIT:  113821205  MISS:        277
L1I LOAD      ACCESS:  113821482  HIT:  113821205  MISS:        277
L1I RFO       ACCESS:          0  HIT:          0  MISS:          0
L1I PREFETCH  ACCESS:          0  HIT:          0  MISS:          0
L1I WRITEBACK ACCESS:          0  HIT:          0  MISS:          0
L2C TOTAL     ACCESS:   20227592  HIT:   13211226  MISS:    7016366
L2C LOAD      ACCESS:    7212786  HIT:    6352554  MISS:     860232
L2C RFO       ACCESS:      10377  HIT:       2535  MISS:       7842
L2C PREFETCH  ACCESS:    8209736  HIT:    2061447  MISS:    6148289
L2C WRITEBACK ACCESS:    4794693  HIT:    4794690  MISS:          3

Avg Lookahead Depth:	3.9905
TOTAL: 1.48333e+08	L2C: 1.22943e+08	LLC: 2.53902e+07	GOOD_L2C: 8.02544e+07
Printing all the perceptron weights to: perc_weights_0.csv
LLC TOTAL     ACCESS:   12059984  HIT:    7254240  MISS:    4805744
LLC LOAD      ACCESS:     212405  HIT:      86431  MISS:     125974
LLC RFO       ACCESS:       7725  HIT:       6978  MISS:        747
LLC PREFETCH  ACCESS:    7048179  HIT:    2372874  MISS:    4675305
LLC WRITEBACK ACCESS:    4791675  HIT:    4787957  MISS:       3718

CPU 6 cumulative IPC: 0.209949 instructions: 137643349 cycles: 655602281
L1D TOTAL     ACCESS:   49251189  HIT:   40659007  MISS:    8592182
L1D LOAD      ACCESS:   36717116  HIT:   28597416  MISS:    8119700
L1D RFO       ACCESS:   12534073  HIT:   12061591  MISS:     472482
L1D PREFETCH  ACCESS:          0  HIT:          0  MISS:          0
L1D WRITEBACK ACCESS:          0  HIT:          0  MISS:          0
L1I TOTAL     ACCESS:   31521405  HIT:   31521405  MISS:          0
L1I LOAD      ACCESS:   31521405  HIT:   31521405  MISS:          0
L1I RFO       ACCESS:          0  HIT:          0  MISS:          0
L1I PREFETCH  ACCESS:          0  HIT:          0  MISS:          0
L1I WRITEBACK ACCESS:          0  HIT:          0  MISS:          0
L2C TOTAL     ACCESS:   12213049  HIT:    4671547  MISS:    7541502
L2C LOAD      ACCESS:    8119678  HIT:    2933366  MISS:    5186312
L2C RFO       ACCESS:     472475  HIT:     124863  MISS:     347612
L2C PREFETCH  ACCESS:    2912970  HIT:     906298  MISS:    2006672
L2C WRITEBACK ACCESS:     707926  HIT:     707020  MISS:        906

Avg Lookahead Depth:	3.9905
TOTAL: 1.48333e+08	L2C: 1.22943e+08	LLC: 2.53902e+07	GOOD_L2C: 8.02544e+07
Printing all the perceptron weights to: perc_weights_0.csv
LLC TOTAL     ACCESS:    9049380  HIT:    5035609  MISS:    4013771
LLC LOAD      ACCESS:    4771525  HIT:    3507941  MISS:    1263584
LLC RFO       ACCESS:     347595  HIT:     342200  MISS:       5395
LLC PREFETCH  ACCESS:    3365107  HIT:     621315  MISS:    2743792
LLC WRITEBACK ACCESS:     565153  HIT:     564153  MISS:       1000

CPU 7 cumulative IPC: 0.913253 instructions: 598730510 cycles: 655602281
L1D TOTAL     ACCESS:  181437813  HIT:  170389349  MISS:   11048464
L1D LOAD      ACCESS:  159649172  HIT:  148670829  MISS:   10978343
L1D RFO       ACCESS:   21788641  HIT:   21718520  MISS:      70121
L1D PREFETCH  ACCESS:          0  HIT:          0  MISS:          0
L1D WRITEBACK ACCESS:          0  HIT:          0  MISS:          0
L1I TOTAL     ACCESS:  152248384  HIT:  152246987  MISS:       1397
L1I LOAD      ACCESS:  152248384  HIT:  152246987  MISS:       1397
L1I RFO       ACCESS:          0  HIT:          0  MISS:          0
L1I PREFETCH  ACCESS:          0  HIT:          0  MISS:          0
L1I WRITEBACK ACCESS:          0  HIT:          0  MISS:          0
L2C TOTAL     ACCESS:   31995981  HIT:   23779686  MISS:    8216295
L2C LOAD      ACCESS:   10978905  HIT:   10390680  MISS:     588225
L2C RFO       ACCESS:      70121  HIT:      10666  MISS:      59455
L2C PREFETCH  ACCESS:   18656638  HIT:   11088843  MISS:    7567795
L2C WRITEBACK ACCESS:    2290317  HIT:    2289497  MISS:        820

Avg Lookahead Depth:	3.9905
TOTAL: 1.48333e+08	L2C: 1.22943e+08	LLC: 2.53902e+07	GOOD_L2C: 8.02544e+07
Printing all the perceptron weights to: perc_weights_0.csv
LLC TOTAL     ACCESS:   10509063  HIT:    3452244  MISS:    7056819
LLC LOAD      ACCESS:     533887  HIT:     105349  MISS:     428538
LLC RFO       ACCESS:      59427  HIT:       1810  MISS:      57617
LLC PREFETCH  ACCESS:    9851487  HIT:    3289449  MISS:    6562038
LLC WRITEBACK ACCESS:      64262  HIT:      55636  MISS:       8626

Region of Interest Statistics

CPU 0 cumulative IPC: 0.152531 instructions: 100000000 cycles: 655602280
L1D TOTAL     ACCESS:   53623959  HIT:   44601149  MISS:    9022810
L1D LOAD      ACCESS:   33920546  HIT:   29271164  MISS:    4649382
L1D RFO       ACCESS:   19703413  HIT:   15329985  MISS:    4373428
L1D PREFETCH  ACCESS:          0  HIT:          0  MISS:          0
L1D WRITEBACK ACCESS:          0  HIT:          0  MISS:          0
L1D PREFETCH  REQUESTED:          0  ISSUED:          0  USEFUL:          0  USELESS:          0
L1I TOTAL     ACCESS:   24003444  HIT:   24003444  MISS:          0
L1I LOAD      ACCESS:   24003444  HIT:   24003444  MISS:          0
L1I RFO       ACCESS:          0  HIT:          0  MISS:          0
L1I PREFETCH  ACCESS:          0  HIT:          0  MISS:          0
L1I WRITEBACK ACCESS:          0  HIT:          0  MISS:          0
L1I PREFETCH  REQUESTED:          0  ISSUED:          0  USEFUL:          0  USELESS:          0
L2C TOTAL     ACCESS:   21741320  HIT:   12561800  MISS:    9179520
L2C LOAD      ACCESS:    4649313  HIT:    2580096  MISS:    2069217
L2C RFO       ACCESS:    4373428  HIT:         10  MISS:    4373418
L2C PREFETCH  ACCESS:    3695769  HIT:     963504  MISS:    2732265
L2C WRITEBACK ACCESS:    9022810  HIT:    9018190  MISS:       4620
L2C PREFETCH  REQUESTED:    6267415  ISSUED:    6267415  USEFUL:    2799851  USELESS:     440369
LLC TOTAL     ACCESS:   19133026  HIT:   11377596  MISS:    7755430
LLC LOAD      ACCESS:    1957289  HIT:    1524821  MISS:     432468
LLC RFO       ACCESS:    4373418  HIT:      19568  MISS:    4353850
LLC PREFETCH  ACCESS:    4039823  HIT:    1070995  MISS:    2968828
LLC WRITEBACK ACCESS:    8762496  HIT:    8762212  MISS:        284
LLC PREFETCH  REQUESTED:          0  ISSUED:          0  USEFUL:     951197  USELESS:   35715548
Major fault: 0 Minor fault: 257383

CPU 1 cumulative IPC: 0.412525 instructions: 100000003 cycles: 242409343
L1D TOTAL     ACCESS:   39729816  HIT:   24356795  MISS:   15373021
L1D LOAD      ACCESS:   33587254  HIT:   18497172  MISS:   15090082
L1D RFO       ACCESS:    6142562  HIT:    5859623  MISS:     282939
L1D PREFETCH  ACCESS:          0  HIT:          0  MISS:          0
L1D WRITEBACK ACCESS:          0  HIT:          0  MISS:          0
L1D PREFETCH  REQUESTED:          0  ISSUED:          0  USEFUL:          0  USELESS:          0
L1I TOTAL     ACCESS:   35187142  HIT:   35187142  MISS:          0
L1I LOAD      ACCESS:   35187142  HIT:   35187142  MISS:          0
L1I RFO       ACCESS:          0  HIT:          0  MISS:          0
L1I PREFETCH  ACCESS:          0  HIT:          0  MISS:          0
L1I WRITEBACK ACCESS:          0  HIT:          0  MISS:          0
L1I PREFETCH  REQUESTED:          0  ISSUED:          0  USEFUL:          0  USELESS:          0
L2C TOTAL     ACCESS:   30066520  HIT:   12205340  MISS:   17861180
L2C LOAD      ACCESS:   15090082  HIT:   10366760  MISS:    4723322
L2C RFO       ACCESS:     282939  HIT:      10584  MISS:     272355
L2C PREFETCH  ACCESS:   14339265  HIT:    1474599  MISS:   12864666
L2C WRITEBACK ACCESS:     354234  HIT:     353397  MISS:        837
L2C PREFETCH  REQUESTED:   65635914  ISSUED:   65624234  USEFUL:   33547105  USELESS:    7543664
LLC TOTAL     ACCESS:   19974587  HIT:   18930067  MISS:    1044520
LLC LOAD      ACCESS:    1820679  HIT:    1798051  MISS:      22628
LLC RFO       ACCESS:     272172  HIT:       1956  MISS:     270216
LLC PREFETCH  ACCESS:   17528994  HIT:   16777338  MISS:     751656
LLC WRITEBACK ACCESS:     352742  HIT:     352722  MISS:         20
LLC PREFETCH  REQUESTED:          0  ISSUED:          0  USEFUL:     951197  USELESS:   35715548
Major fault: 0 Minor fault: 20075

CPU 2 cumulative IPC: 0.647289 instructions: 100000000 cycles: 154490588
L1D TOTAL     ACCESS:   25959852  HIT:   25278538  MISS:     681314
L1D LOAD      ACCESS:   15738609  HIT:   15089466  MISS:     649143
L1D RFO       ACCESS:   10221243  HIT:   10189072  MISS:      32171
L1D PREFETCH  ACCESS:          0  HIT:          0  MISS:          0
L1D WRITEBACK ACCESS:          0  HIT:          0  MISS:          0
L1D PREFETCH  REQUESTED:          0  ISSUED:          0  USEFUL:          0  USELESS:          0
L1I TOTAL     ACCESS:   21830605  HIT:   21830605  MISS:          0
L1I LOAD      ACCESS:   21830605  HIT:   21830605  MISS:          0
L1I RFO       ACCESS:          0  HIT:          0  MISS:          0
L1I PREFETCH  ACCESS:          0  HIT:          0  MISS:          0
L1I WRITEBACK ACCESS:          0  HIT:          0  MISS:          0
L1I PREFETCH  REQUESTED:          0  ISSUED:          0  USEFUL:          0  USELESS:          0
L2C TOTAL     ACCESS:    1615643  HIT:    1052358  MISS:     563285
L2C LOAD      ACCESS:     649143  HIT:     375450  MISS:     273693
L2C RFO       ACCESS:      32171  HIT:      13192  MISS:      18979
L2C PREFETCH  ACCESS:     882633  HIT:     612595  MISS:     270038
L2C WRITEBACK ACCESS:      51696  HIT:      51121  MISS:        575
L2C PREFETCH  REQUESTED:    5245793  ISSUED:    5245793  USEFUL:     999176  USELESS:     362044
LLC TOTAL     ACCESS:     794624  HIT:     712597  MISS:      82027
LLC LOAD      ACCESS:     260506  HIT:     245658  MISS:      14848
LLC RFO       ACCESS:      18965  HIT:       4203  MISS:      14762
LLC PREFETCH  ACCESS:     491934  HIT:     442131  MISS:      49803
LLC WRITEBACK ACCESS:      23219  HIT:      20605  MISS:       2614
LLC PREFETCH  REQUESTED:          0  ISSUED:          0  USEFUL:     951197  USELESS:   35715548
Major fault: 0 Minor fault: 1344

CPU 3 cumulative IPC: 0.244072 instructions: 100000000 cycles: 409715181
L1D TOTAL     ACCESS:   48573398  HIT:   43831788  MISS:    4741610
L1D LOAD      ACCESS:   24128940  HIT:   19611222  MISS:    4517718
L1D RFO       ACCESS:   24444458  HIT:   24220566  MISS:     223892
L1D PREFETCH  ACCESS:          0  HIT:          0  MISS:          0
L1D WRITEBACK ACCESS:          0  HIT:          0  MISS:          0
L1D PREFETCH  REQUESTED:          0  ISSUED:          0  USEFUL:          0  USELESS:          0
L1I TOTAL     ACCESS:   32983158  HIT:   32983158  MISS:          0
L1I LOAD      ACCESS:   32983158  HIT:   32983158  MISS:          0
L1I RFO       ACCESS:          0  HIT:          0  MISS:          0
L1I PREFETCH  ACCESS:          0  HIT:          0  MISS:          0
L1I WRITEBACK ACCESS:          0  HIT:          0  MISS:          0
L1I PREFETCH  REQUESTED:          0  ISSUED:          0  USEFUL:          0  USELESS:          0
L2C TOTAL     ACCESS:    9728283  HIT:    4170786  MISS:    5557497
L2C LOAD      ACCESS:    4517699  HIT:    2425667  MISS:    2092032
L2C RFO       ACCESS:     223870  HIT:      13242  MISS:     210628
L2C PREFETCH  ACCESS:    4431422  HIT:    1180405  MISS:    3251017
L2C WRITEBACK ACCESS:     555292  HIT:     551472  MISS:       3820
L2C PREFETCH  REQUESTED:   14420655  ISSUED:   14420305  USEFUL:    5226453  USELESS:    1731295
LLC TOTAL     ACCESS:    6825848  HIT:    1019678  MISS:    5806170
LLC LOAD      ACCESS:     872371  HIT:     100106  MISS:     772265
LLC RFO       ACCESS:     209622  HIT:       6563  MISS:     203059
LLC PREFETCH  ACCESS:    5286322  HIT:     458623  MISS:    4827699
LLC WRITEBACK ACCESS:     457533  HIT:     454386  MISS:       3147
LLC PREFETCH  REQUESTED:          0  ISSUED:          0  USEFUL:     951197  USELESS:   35715548
Major fault: 0 Minor fault: 36059

CPU 4 cumulative IPC: 0.81734 instructions: 100000001 cycles: 122348164
L1D TOTAL     ACCESS:   26804479  HIT:   24327822  MISS:    2476657
L1D LOAD      ACCESS:   22254514  HIT:   20161202  MISS:    2093312
L1D RFO       ACCESS:    4549965  HIT:    4166620  MISS:     383345
L1D PREFETCH  ACCESS:          0  HIT:          0  MISS:          0
L1D WRITEBACK ACCESS:          0  HIT:          0  MISS:          0
L1D PREFETCH  REQUESTED:          0  ISSUED:          0  USEFUL:          0  USELESS:          0
L1I TOTAL     ACCESS:   23845169  HIT:   23841290  MISS:       3879
L1I LOAD      ACCESS:   23845169  HIT:   23841290  MISS:       3879
L1I RFO       ACCESS:          0  HIT:          0  MISS:          0
L1I PREFETCH  ACCESS:          0  HIT:          0  MISS:          0
L1I WRITEBACK ACCESS:          0  HIT:          0  MISS:          0
L1I PREFETCH  REQUESTED:          0  ISSUED:          0  USEFUL:          0  USELESS:          0
L2C TOTAL     ACCESS:    5895975  HIT:    4063634  MISS:    1832341
L2C LOAD      ACCESS:    2097102  HIT:    1762304  MISS:     334798
L2C RFO       ACCESS:     383345  HIT:     128409  MISS:     254936
L2C PREFETCH  ACCESS:    2534925  HIT:    1293615  MISS:    1241310
L2C WRITEBACK ACCESS:     880603  HIT:     879306  MISS:       1297
L2C PREFETCH  REQUESTED:   16121826  ISSUED:   16058172  USEFUL:    5958926  USELESS:     290482
LLC TOTAL     ACCESS:    2612321  HIT:    1059913  MISS:    1552408
LLC LOAD      ACCESS:     139735  HIT:      43115  MISS:      96620
LLC RFO       ACCESS:     254833  HIT:      32365  MISS:     222468
LLC PREFETCH  ACCESS:    1544940  HIT:     314466  MISS:    1230474
LLC WRITEBACK ACCESS:     672813  HIT:     669967  MISS:       2846
LLC PREFETCH  REQUESTED:          0  ISSUED:          0  USEFUL:     951197  USELESS:   35715548
Major fault: 0 Minor fault: 11454

CPU 5 cumulative IPC: 0.827657 instructions: 100000002 cycles: 120823006
L1D TOTAL     ACCESS:   21296382  HIT:   19973008  MISS:    1323374
L1D LOAD      ACCESS:   14279015  HIT:   12957174  MISS:    1321841
L1D RFO       ACCESS:    7017367  HIT:    7015834  MISS:       1533
L1D PREFETCH  ACCESS:          0  HIT:          0  MISS:          0
L1D WRITEBACK ACCESS:          0  HIT:          0  MISS:          0
L1D PREFETCH  REQUESTED:          0  ISSUED:          0  USEFUL:          0  USELESS:          0
L1I TOTAL     ACCESS:   20644338  HIT:   20644338  MISS:          0
L1I LOAD      ACCESS:   20644338  HIT:   20644338  MISS:          0
L1I RFO       ACCESS:          0  HIT:          0  MISS:          0
L1I PREFETCH  ACCESS:          0  HIT:          0  MISS:          0
L1I WRITEBACK ACCESS:          0  HIT:          0  MISS:          0
L1I PREFETCH  REQUESTED:          0  ISSUED:          0  USEFUL:          0  USELESS:          0
L2C TOTAL     ACCESS:    3692118  HIT:    2404879  MISS:    1287239
L2C LOAD      ACCESS:    1321841  HIT:    1157431  MISS:     164410
L2C RFO       ACCESS:       1533  HIT:        343  MISS:       1190
L2C PREFETCH  ACCESS:    1490238  HIT:     368599  MISS:    1121639
L2C WRITEBACK ACCESS:     878506  HIT:     878506  MISS:          0
L2C PREFETCH  REQUESTED:   10939343  ISSUED:   10939343  USEFUL:    6716496  USELESS:      28087
LLC TOTAL     ACCESS:    2208509  HIT:    1328687  MISS:     879822
LLC LOAD      ACCESS:      38234  HIT:      15557  MISS:      22677
LLC RFO       ACCESS:       1160  HIT:       1153  MISS:          7
LLC PREFETCH  ACCESS:    1291082  HIT:     433975  MISS:     857107
LLC WRITEBACK ACCESS:     878033  HIT:     878002  MISS:         31
LLC PREFETCH  REQUESTED:          0  ISSUED:          0  USEFUL:     951197  USELESS:   35715548
Major fault: 0 Minor fault: 81507

CPU 6 cumulative IPC: 0.215387 instructions: 100000001 cycles: 464281308
L1D TOTAL     ACCESS:   36584875  HIT:   30851906  MISS:    5732969
L1D LOAD      ACCESS:   27081492  HIT:   21706587  MISS:    5374905
L1D RFO       ACCESS:    9503383  HIT:    9145319  MISS:     358064
L1D PREFETCH  ACCESS:          0  HIT:          0  MISS:          0
L1D WRITEBACK ACCESS:          0  HIT:          0  MISS:          0
L1D PREFETCH  REQUESTED:          0  ISSUED:          0  USEFUL:          0  USELESS:          0
L1I TOTAL     ACCESS:   22848561  HIT:   22848561  MISS:          0
L1I LOAD      ACCESS:   22848561  HIT:   22848561  MISS:          0
L1I RFO       ACCESS:          0  HIT:          0  MISS:          0
L1I PREFETCH  ACCESS:          0  HIT:          0  MISS:          0
L1I WRITEBACK ACCESS:          0  HIT:          0  MISS:          0
L1I PREFETCH  REQUESTED:          0  ISSUED:          0  USEFUL:          0  USELESS:          0
L2C TOTAL     ACCESS:    8262030  HIT:    3312344  MISS:    4949686
L2C LOAD      ACCESS:    5374893  HIT:    2018015  MISS:    3356878
L2C RFO       ACCESS:     358059  HIT:     102217  MISS:     255842
L2C PREFETCH  ACCESS:    2001501  HIT:     665175  MISS:    1336326
L2C WRITEBACK ACCESS:     527577  HIT:     526937  MISS:        640
L2C PREFETCH  REQUESTED:    5606084  ISSUED:    5605727  USEFUL:    2228893  USELESS:     259928
LLC TOTAL     ACCESS:    6010818  HIT:    3369920  MISS:    2640898
LLC LOAD      ACCESS:    3122940  HIT:    2263921  MISS:     859019
LLC RFO       ACCESS:     255833  HIT:     251707  MISS:       4126
LLC PREFETCH  ACCESS:    2220121  HIT:     443247  MISS:    1776874
LLC WRITEBACK ACCESS:     411924  HIT:     411045  MISS:        879
LLC PREFETCH  REQUESTED:          0  ISSUED:          0  USEFUL:     951197  USELESS:   35715548
Major fault: 0 Minor fault: 46475

CPU 7 cumulative IPC: 0.928756 instructions: 100000000 cycles: 107670876
L1D TOTAL     ACCESS:   30235229  HIT:   28362698  MISS:    1872531
L1D LOAD      ACCESS:   26884357  HIT:   25022377  MISS:    1861980
L1D RFO       ACCESS:    3350872  HIT:    3340321  MISS:      10551
L1D PREFETCH  ACCESS:          0  HIT:          0  MISS:          0
L1D WRITEBACK ACCESS:          0  HIT:          0  MISS:          0
L1D PREFETCH  REQUESTED:          0  ISSUED:          0  USEFUL:          0  USELESS:          0
L1I TOTAL     ACCESS:   25028010  HIT:   25028010  MISS:          0
L1I LOAD      ACCESS:   25028010  HIT:   25028010  MISS:          0
L1I RFO       ACCESS:          0  HIT:          0  MISS:          0
L1I PREFETCH  ACCESS:          0  HIT:          0  MISS:          0
L1I WRITEBACK ACCESS:          0  HIT:          0  MISS:          0
L1I PREFETCH  REQUESTED:          0  ISSUED:          0  USEFUL:          0  USELESS:          0
L2C TOTAL     ACCESS:    5417390  HIT:    4027833  MISS:    1389557
L2C LOAD      ACCESS:    1861892  HIT:    1765971  MISS:      95921
L2C RFO       ACCESS:      10551  HIT:        826  MISS:       9725
L2C PREFETCH  ACCESS:    3154223  HIT:    1870312  MISS:    1283911
L2C WRITEBACK ACCESS:     390724  HIT:     390724  MISS:          0
L2C PREFETCH  REQUESTED:   24095823  ISSUED:   24095785  USEFUL:    7462124  USELESS:     648954
LLC TOTAL     ACCESS:    1744572  HIT:     556144  MISS:    1188428
LLC LOAD      ACCESS:      87252  HIT:      17364  MISS:      69888
LLC RFO       ACCESS:       9720  HIT:        287  MISS:       9433
LLC PREFETCH  ACCESS:    1637030  HIT:     529396  MISS:    1107634
LLC WRITEBACK ACCESS:      10570  HIT:       9097  MISS:       1473
LLC PREFETCH  REQUESTED:          0  ISSUED:          0  USEFUL:     951197  USELESS:   35715548
Major fault: 0 Minor fault: 205638

Avg Lookahead Depth:	3.9905
TOTAL: 1.48333e+08	L2C: 1.22943e+08	LLC: 2.53902e+07	GOOD_L2C: 8.02544e+07
Printing all the perceptron weights to: perc_weights_0.csv

Avg Lookahead Depth:	3.9905
TOTAL: 1.48333e+08	L2C: 1.22943e+08	LLC: 2.53902e+07	GOOD_L2C: 8.02544e+07
Printing all the perceptron weights to: perc_weights_0.csv

Avg Lookahead Depth:	3.9905
TOTAL: 1.48333e+08	L2C: 1.22943e+08	LLC: 2.53902e+07	GOOD_L2C: 8.02544e+07
Printing all the perceptron weights to: perc_weights_0.csv

Avg Lookahead Depth:	3.9905
TOTAL: 1.48333e+08	L2C: 1.22943e+08	LLC: 2.53902e+07	GOOD_L2C: 8.02544e+07
Printing all the perceptron weights to: perc_weights_0.csv

Avg Lookahead Depth:	3.9905
TOTAL: 1.48333e+08	L2C: 1.22943e+08	LLC: 2.53902e+07	GOOD_L2C: 8.02544e+07
Printing all the perceptron weights to: perc_weights_0.csv

Avg Lookahead Depth:	3.9905
TOTAL: 1.48333e+08	L2C: 1.22943e+08	LLC: 2.53902e+07	GOOD_L2C: 8.02544e+07
Printing all the perceptron weights to: perc_weights_0.csv

Avg Lookahead Depth:	3.9905
TOTAL: 1.48333e+08	L2C: 1.22943e+08	LLC: 2.53902e+07	GOOD_L2C: 8.02544e+07
Printing all the perceptron weights to: perc_weights_0.csv

Avg Lookahead Depth:	3.9905
TOTAL: 1.48333e+08	L2C: 1.22943e+08	LLC: 2.53902e+07	GOOD_L2C: 8.02544e+07
Printing all the perceptron weights to: perc_weights_0.csv

DRAM Statistics
 CHANNEL 0
 RQ ROW_BUFFER_HIT:    7714843  ROW_BUFFER_MISS:   13859759
 DBUS_CONGESTED:   50052179
 WQ ROW_BUFFER_HIT:     514133  ROW_BUFFER_MISS:    7525994  FULL:          0

 CHANNEL 1
 RQ ROW_BUFFER_HIT:    7692752  ROW_BUFFER_MISS:   13851679
 DBUS_CONGESTED:   50052179
 WQ ROW_BUFFER_HIT:     513978  ROW_BUFFER_MISS:    7524922  FULL:          0

 AVG_CONGESTED_CYCLE: 14
