Initialize SIGNATURE TABLE
ST_SET: 1
ST_WAY: 256
ST_TAG_BIT: 16
ST_TAG_MASK: ffff

Initialize PATTERN TABLE
PT_SET: 512
PT_WAY: 4
SIG_DELTA_BIT: 7
C_SIG_BIT: 4
C_DELTA_BIT: 4

Initialize PREFETCH FILTER
FILTER_SET: 1024

Initialize PERCEPTRON
PERC_ENTRIES: 4096
PERC_FEATURES: 9

*** ChampSim Multicore Out-of-Order Simulator ***

Warmup Instructions: 20000000
Simulation Instructions: 100000000
Number of CPUs: 8
LLC sets: 16384
LLC ways: 16
Off-chip DRAM Size: 8192 MB Channels: 2 Width: 64-bit Data Rate: 1600 MT/s

CPU 0 runs /scratch/user/djimenez/champsim-traces/speccpu2017/xz/605.mcf_s/605.mcf_s-1644B.champsimtrace.xz
CPU 1 runs /scratch/user/djimenez/champsim-traces/speccpu2017/xz/654.roms_s/654.roms_s-1390B.champsimtrace.xz
CPU 2 runs /scratch/user/djimenez/champsim-traces/speccpu2017/xz/607.cactuBSSN_s/607.cactuBSSN_s-4004B.champsimtrace.xz
CPU 3 runs /scratch/user/djimenez/champsim-traces/speccpu2017/xz/649.fotonik3d_s/649.fotonik3d_s-10881B.champsimtrace.xz
CPU 4 runs /scratch/user/djimenez/champsim-traces/speccpu2017/xz/603.bwaves_s/603.bwaves_s-2931B.champsimtrace.xz
CPU 5 runs /scratch/user/djimenez/champsim-traces/speccpu2017/xz/602.gcc_s/602.gcc_s-2226B.champsimtrace.xz
CPU 6 runs /scratch/user/djimenez/champsim-traces/speccpu2017/xz/649.fotonik3d_s/649.fotonik3d_s-7084B.champsimtrace.xz
CPU 7 runs /scratch/user/djimenez/champsim-traces/speccpu2017/xz/605.mcf_s/605.mcf_s-1554B.champsimtrace.xz
Heartbeat CPU 6 instructions: 10000000 cycles: 4192335 heartbeat IPC: 2.38531 cumulative IPC: 2.38531 (Simulation time: 0 hr 3 min 31 sec) 
Heartbeat CPU 5 instructions: 10000000 cycles: 4859525 heartbeat IPC: 2.05781 cumulative IPC: 2.05781 (Simulation time: 0 hr 4 min 4 sec) 
Heartbeat CPU 4 instructions: 10000000 cycles: 5228440 heartbeat IPC: 1.91262 cumulative IPC: 1.91262 (Simulation time: 0 hr 4 min 23 sec) 
Heartbeat CPU 7 instructions: 10000001 cycles: 5415151 heartbeat IPC: 1.84667 cumulative IPC: 1.84667 (Simulation time: 0 hr 4 min 32 sec) 
Heartbeat CPU 2 instructions: 10000000 cycles: 5803217 heartbeat IPC: 1.72318 cumulative IPC: 1.72318 (Simulation time: 0 hr 4 min 52 sec) 
Heartbeat CPU 1 instructions: 10000001 cycles: 6744551 heartbeat IPC: 1.48268 cumulative IPC: 1.48268 (Simulation time: 0 hr 5 min 38 sec) 
Heartbeat CPU 6 instructions: 20000000 cycles: 8382405 heartbeat IPC: 2.3866 cumulative IPC: 2.38595 (Simulation time: 0 hr 7 min 0 sec) 
Heartbeat CPU 3 instructions: 10000001 cycles: 8411641 heartbeat IPC: 1.18883 cumulative IPC: 1.18883 (Simulation time: 0 hr 7 min 2 sec) 
Heartbeat CPU 5 instructions: 20000000 cycles: 9713193 heartbeat IPC: 2.0603 cumulative IPC: 2.05906 (Simulation time: 0 hr 8 min 7 sec) 
Heartbeat CPU 4 instructions: 20000000 cycles: 10456183 heartbeat IPC: 1.91287 cumulative IPC: 1.91274 (Simulation time: 0 hr 8 min 44 sec) 
Heartbeat CPU 0 instructions: 10000002 cycles: 10557239 heartbeat IPC: 0.947218 cumulative IPC: 0.947218 (Simulation time: 0 hr 8 min 50 sec) 
Heartbeat CPU 7 instructions: 20000000 cycles: 10786239 heartbeat IPC: 1.86182 cumulative IPC: 1.85421 (Simulation time: 0 hr 9 min 2 sec) 
Heartbeat CPU 2 instructions: 20000000 cycles: 11605942 heartbeat IPC: 1.72333 cumulative IPC: 1.72326 (Simulation time: 0 hr 9 min 44 sec) 
Heartbeat CPU 1 instructions: 20000000 cycles: 11882789 heartbeat IPC: 1.94619 cumulative IPC: 1.68311 (Simulation time: 0 hr 9 min 57 sec) 
Heartbeat CPU 6 instructions: 30000000 cycles: 12562263 heartbeat IPC: 2.39243 cumulative IPC: 0.796035 (Simulation time: 0 hr 10 min 33 sec) 
Heartbeat CPU 5 instructions: 30000000 cycles: 14563617 heartbeat IPC: 2.06168 cumulative IPC: 0.686643 (Simulation time: 0 hr 12 min 14 sec) 
Heartbeat CPU 4 instructions: 30000002 cycles: 15684177 heartbeat IPC: 1.91278 cumulative IPC: 0.637585 (Simulation time: 0 hr 13 min 12 sec) 
Heartbeat CPU 7 instructions: 30000003 cycles: 16130325 heartbeat IPC: 1.87123 cumulative IPC: 0.61995 (Simulation time: 0 hr 13 min 35 sec) 
Heartbeat CPU 1 instructions: 30000003 cycles: 16406194 heartbeat IPC: 2.21072 cumulative IPC: 0.609526 (Simulation time: 0 hr 13 min 49 sec) 
Heartbeat CPU 6 instructions: 40000000 cycles: 16736292 heartbeat IPC: 2.39577 cumulative IPC: 1.19501 (Simulation time: 0 hr 14 min 6 sec) 
Heartbeat CPU 3 instructions: 20000000 cycles: 16790212 heartbeat IPC: 1.19352 cumulative IPC: 1.19117 (Simulation time: 0 hr 14 min 9 sec) 
Heartbeat CPU 2 instructions: 30000001 cycles: 17408928 heartbeat IPC: 1.72325 cumulative IPC: 0.574418 (Simulation time: 0 hr 14 min 41 sec) 
Heartbeat CPU 5 instructions: 40000000 cycles: 19414117 heartbeat IPC: 2.06164 cumulative IPC: 1.03018 (Simulation time: 0 hr 16 min 22 sec) 
Heartbeat CPU 6 instructions: 50000001 cycles: 20906821 heartbeat IPC: 2.39778 cumulative IPC: 1.43494 (Simulation time: 0 hr 17 min 36 sec) 
Heartbeat CPU 4 instructions: 40000000 cycles: 20911855 heartbeat IPC: 1.91289 cumulative IPC: 0.956395 (Simulation time: 0 hr 17 min 36 sec) 
Heartbeat CPU 0 instructions: 20000000 cycles: 21053382 heartbeat IPC: 0.952731 cumulative IPC: 0.949966 (Simulation time: 0 hr 17 min 43 sec) 

Warmup complete CPU 0 instructions: 20000001 cycles: 21053385 (Simulation time: 0 hr 17 min 43 sec) 
Warmup complete CPU 1 instructions: 38023880 cycles: 21053384 (Simulation time: 0 hr 17 min 43 sec) 
Warmup complete CPU 2 instructions: 36281114 cycles: 21053384 (Simulation time: 0 hr 17 min 43 sec) 
Warmup complete CPU 3 instructions: 25091796 cycles: 21053384 (Simulation time: 0 hr 17 min 43 sec) 
Warmup complete CPU 4 instructions: 40270856 cycles: 21053384 (Simulation time: 0 hr 17 min 43 sec) 
Warmup complete CPU 5 instructions: 43370432 cycles: 21053384 (Simulation time: 0 hr 17 min 43 sec) 
Warmup complete CPU 6 instructions: 50351537 cycles: 21053384 (Simulation time: 0 hr 17 min 43 sec) 
Warmup complete CPU 7 instructions: 39178150 cycles: 21053384 (Simulation time: 0 hr 17 min 43 sec) 

Heartbeat CPU 1 instructions: 40000000 cycles: 25396135 heartbeat IPC: 1.11235 cumulative IPC: 0.455039 (Simulation time: 0 hr 19 min 4 sec) 
Heartbeat CPU 2 instructions: 40000000 cycles: 26654253 heartbeat IPC: 1.08163 cumulative IPC: 0.663984 (Simulation time: 0 hr 19 min 27 sec) 
Heartbeat CPU 7 instructions: 40000000 cycles: 31502987 heartbeat IPC: 0.650505 cumulative IPC: 0.0786489 (Simulation time: 0 hr 20 min 53 sec) 
Heartbeat CPU 4 instructions: 50000002 cycles: 32061764 heartbeat IPC: 0.896868 cumulative IPC: 0.883795 (Simulation time: 0 hr 21 min 3 sec) 
Heartbeat CPU 6 instructions: 60000000 cycles: 34044102 heartbeat IPC: 0.761192 cumulative IPC: 0.74272 (Simulation time: 0 hr 21 min 39 sec) 
Heartbeat CPU 3 instructions: 30000000 cycles: 38469495 heartbeat IPC: 0.46127 cumulative IPC: 0.28182 (Simulation time: 0 hr 22 min 58 sec) 
Heartbeat CPU 2 instructions: 50000000 cycles: 42349772 heartbeat IPC: 0.637125 cumulative IPC: 0.644188 (Simulation time: 0 hr 24 min 7 sec) 
Heartbeat CPU 4 instructions: 60000000 cycles: 43540706 heartbeat IPC: 0.87116 cumulative IPC: 0.877345 (Simulation time: 0 hr 24 min 29 sec) 
Heartbeat CPU 6 instructions: 70000001 cycles: 47565263 heartbeat IPC: 0.739582 cumulative IPC: 0.741119 (Simulation time: 0 hr 25 min 40 sec) 
Heartbeat CPU 1 instructions: 50000003 cycles: 52453438 heartbeat IPC: 0.369586 cumulative IPC: 0.381405 (Simulation time: 0 hr 27 min 5 sec) 
Heartbeat CPU 4 instructions: 70000001 cycles: 54433771 heartbeat IPC: 0.918015 cumulative IPC: 0.890617 (Simulation time: 0 hr 27 min 41 sec) 
Heartbeat CPU 2 instructions: 60000000 cycles: 56033658 heartbeat IPC: 0.730787 cumulative IPC: 0.678065 (Simulation time: 0 hr 28 min 9 sec) 
Heartbeat CPU 6 instructions: 80000000 cycles: 59371481 heartbeat IPC: 0.847011 cumulative IPC: 0.773746 (Simulation time: 0 hr 29 min 13 sec) 
Heartbeat CPU 4 instructions: 80000000 cycles: 65055886 heartbeat IPC: 0.941432 cumulative IPC: 0.902884 (Simulation time: 0 hr 31 min 11 sec) 
Heartbeat CPU 1 instructions: 60000000 cycles: 65520880 heartbeat IPC: 0.76526 cumulative IPC: 0.494206 (Simulation time: 0 hr 31 min 21 sec) 
Heartbeat CPU 2 instructions: 70000002 cycles: 68940097 heartbeat IPC: 0.774807 cumulative IPC: 0.704139 (Simulation time: 0 hr 32 min 34 sec) 
Heartbeat CPU 6 instructions: 90000003 cycles: 70140432 heartbeat IPC: 0.928596 cumulative IPC: 0.807717 (Simulation time: 0 hr 33 min 0 sec) 
Heartbeat CPU 3 instructions: 40000000 cycles: 71086656 heartbeat IPC: 0.306587 cumulative IPC: 0.297966 (Simulation time: 0 hr 33 min 20 sec) 
Heartbeat CPU 1 instructions: 70000002 cycles: 75069805 heartbeat IPC: 1.04724 cumulative IPC: 0.59197 (Simulation time: 0 hr 34 min 44 sec) 
Heartbeat CPU 4 instructions: 90000002 cycles: 75405485 heartbeat IPC: 0.966221 cumulative IPC: 0.914944 (Simulation time: 0 hr 34 min 51 sec) 
Heartbeat CPU 6 instructions: 100000000 cycles: 80913182 heartbeat IPC: 0.928268 cumulative IPC: 0.829412 (Simulation time: 0 hr 36 min 46 sec) 
Heartbeat CPU 2 instructions: 80000000 cycles: 81581376 heartbeat IPC: 0.791059 cumulative IPC: 0.722292 (Simulation time: 0 hr 37 min 0 sec) 
Heartbeat CPU 1 instructions: 80000000 cycles: 84730124 heartbeat IPC: 1.03516 cumulative IPC: 0.659207 (Simulation time: 0 hr 38 min 6 sec) 
Heartbeat CPU 4 instructions: 100000000 cycles: 85800292 heartbeat IPC: 0.962019 cumulative IPC: 0.922502 (Simulation time: 0 hr 38 min 29 sec) 
Heartbeat CPU 6 instructions: 110000002 cycles: 91954103 heartbeat IPC: 0.905722 cumulative IPC: 0.841296 (Simulation time: 0 hr 40 min 30 sec) 
Heartbeat CPU 2 instructions: 90000000 cycles: 94012762 heartbeat IPC: 0.804416 cumulative IPC: 0.736285 (Simulation time: 0 hr 41 min 8 sec) 
Heartbeat CPU 4 instructions: 110000000 cycles: 96501483 heartbeat IPC: 0.934475 cumulative IPC: 0.9242 (Simulation time: 0 hr 41 min 55 sec) 
Heartbeat CPU 0 instructions: 30000003 cycles: 97820531 heartbeat IPC: 0.130264 cumulative IPC: 0.130264 (Simulation time: 0 hr 42 min 20 sec) 
Heartbeat CPU 6 instructions: 120000000 cycles: 103648058 heartbeat IPC: 0.855143 cumulative IPC: 0.843256 (Simulation time: 0 hr 44 min 12 sec) 
Heartbeat CPU 3 instructions: 50000001 cycles: 104098662 heartbeat IPC: 0.30292 cumulative IPC: 0.299935 (Simulation time: 0 hr 44 min 20 sec) 
Heartbeat CPU 1 instructions: 90000003 cycles: 104537712 heartbeat IPC: 0.504857 cumulative IPC: 0.622585 (Simulation time: 0 hr 44 min 29 sec) 
Heartbeat CPU 2 instructions: 100000000 cycles: 106532148 heartbeat IPC: 0.798761 cumulative IPC: 0.745435 (Simulation time: 0 hr 45 min 6 sec) 
Heartbeat CPU 4 instructions: 120000000 cycles: 107148137 heartbeat IPC: 0.939262 cumulative IPC: 0.926063 (Simulation time: 0 hr 45 min 18 sec) 
Heartbeat CPU 7 instructions: 50000000 cycles: 109286518 heartbeat IPC: 0.128562 cumulative IPC: 0.122651 (Simulation time: 0 hr 45 min 57 sec) 
Heartbeat CPU 6 instructions: 130000001 cycles: 115056863 heartbeat IPC: 0.876516 cumulative IPC: 0.847293 (Simulation time: 0 hr 47 min 44 sec) 
Heartbeat CPU 4 instructions: 130000001 cycles: 117809509 heartbeat IPC: 0.937966 cumulative IPC: 0.927374 (Simulation time: 0 hr 48 min 38 sec) 
Heartbeat CPU 5 instructions: 50000003 cycles: 117880240 heartbeat IPC: 0.101558 cumulative IPC: 0.0684683 (Simulation time: 0 hr 48 min 40 sec) 
Heartbeat CPU 2 instructions: 110000001 cycles: 119273848 heartbeat IPC: 0.784825 cumulative IPC: 0.750545 (Simulation time: 0 hr 49 min 7 sec) 
Heartbeat CPU 6 instructions: 140000000 cycles: 126056691 heartbeat IPC: 0.909105 cumulative IPC: 0.853768 (Simulation time: 0 hr 51 min 18 sec) 
Heartbeat CPU 1 instructions: 100000000 cycles: 126638117 heartbeat IPC: 0.45248 cumulative IPC: 0.58698 (Simulation time: 0 hr 51 min 30 sec) 
Heartbeat CPU 4 instructions: 140000000 cycles: 128368978 heartbeat IPC: 0.947017 cumulative IPC: 0.929307 (Simulation time: 0 hr 52 min 3 sec) 
Finished CPU 4 instructions: 100000000 cycles: 107604893 cumulative IPC: 0.929326 (Simulation time: 0 hr 52 min 9 sec) 
Heartbeat CPU 2 instructions: 120000000 cycles: 132265186 heartbeat IPC: 0.769744 cumulative IPC: 0.752788 (Simulation time: 0 hr 53 min 17 sec) 
Heartbeat CPU 6 instructions: 150000002 cycles: 137202818 heartbeat IPC: 0.897173 cumulative IPC: 0.857933 (Simulation time: 0 hr 54 min 48 sec) 
Heartbeat CPU 3 instructions: 60000000 cycles: 137250982 heartbeat IPC: 0.301638 cumulative IPC: 0.300421 (Simulation time: 0 hr 54 min 49 sec) 
Finished CPU 6 instructions: 100000000 cycles: 116534633 cumulative IPC: 0.858114 (Simulation time: 0 hr 54 min 56 sec) 
Heartbeat CPU 4 instructions: 150000002 cycles: 138920364 heartbeat IPC: 0.947743 cumulative IPC: 0.930957 (Simulation time: 0 hr 55 min 21 sec) 
Heartbeat CPU 2 instructions: 130000003 cycles: 144818602 heartbeat IPC: 0.796596 cumulative IPC: 0.757231 (Simulation time: 0 hr 57 min 11 sec) 
Heartbeat CPU 6 instructions: 160000000 cycles: 148382752 heartbeat IPC: 0.894459 cumulative IPC: 0.86114 (Simulation time: 0 hr 58 min 20 sec) 
Heartbeat CPU 1 instructions: 110000000 cycles: 148447392 heartbeat IPC: 0.458521 cumulative IPC: 0.564988 (Simulation time: 0 hr 58 min 21 sec) 
Heartbeat CPU 4 instructions: 160000000 cycles: 149602718 heartbeat IPC: 0.936123 cumulative IPC: 0.931387 (Simulation time: 0 hr 58 min 44 sec) 
Finished CPU 2 instructions: 100000001 cycles: 131654667 cumulative IPC: 0.759563 (Simulation time: 0 hr 59 min 46 sec) 
Heartbeat CPU 2 instructions: 140000000 cycles: 157279675 heartbeat IPC: 0.802499 cumulative IPC: 0.761372 (Simulation time: 1 hr 1 min 18 sec) 
Heartbeat CPU 6 instructions: 170000001 cycles: 159370537 heartbeat IPC: 0.910102 cumulative IPC: 0.86503 (Simulation time: 1 hr 1 min 59 sec) 
Heartbeat CPU 4 instructions: 170000002 cycles: 160083692 heartbeat IPC: 0.95411 cumulative IPC: 0.9331 (Simulation time: 1 hr 2 min 13 sec) 
Heartbeat CPU 1 instructions: 120000000 cycles: 162292628 heartbeat IPC: 0.72227 cumulative IPC: 0.580406 (Simulation time: 1 hr 2 min 54 sec) 
Heartbeat CPU 2 instructions: 150000001 cycles: 170558847 heartbeat IPC: 0.753059 cumulative IPC: 0.760634 (Simulation time: 1 hr 5 min 28 sec) 
Heartbeat CPU 4 instructions: 180000000 cycles: 170923592 heartbeat IPC: 0.922518 cumulative IPC: 0.932334 (Simulation time: 1 hr 5 min 34 sec) 
Heartbeat CPU 6 instructions: 180000000 cycles: 171174383 heartbeat IPC: 0.847181 cumulative IPC: 0.863626 (Simulation time: 1 hr 5 min 39 sec) 
Heartbeat CPU 3 instructions: 70000000 cycles: 171522960 heartbeat IPC: 0.291784 cumulative IPC: 0.298454 (Simulation time: 1 hr 5 min 45 sec) 
Heartbeat CPU 0 instructions: 40000000 cycles: 173412935 heartbeat IPC: 0.132288 cumulative IPC: 0.131268 (Simulation time: 1 hr 6 min 19 sec) 
Heartbeat CPU 1 instructions: 130000001 cycles: 178992382 heartbeat IPC: 0.598811 cumulative IPC: 0.582352 (Simulation time: 1 hr 8 min 1 sec) 
Heartbeat CPU 7 instructions: 60000000 cycles: 180684468 heartbeat IPC: 0.14006 cumulative IPC: 0.130437 (Simulation time: 1 hr 8 min 32 sec) 
Heartbeat CPU 4 instructions: 190000003 cycles: 181747232 heartbeat IPC: 0.923904 cumulative IPC: 0.931767 (Simulation time: 1 hr 8 min 51 sec) 
Heartbeat CPU 6 instructions: 190000001 cycles: 183093582 heartbeat IPC: 0.838983 cumulative IPC: 0.861814 (Simulation time: 1 hr 9 min 15 sec) 
Heartbeat CPU 2 instructions: 160000000 cycles: 184779047 heartbeat IPC: 0.703225 cumulative IPC: 0.755647 (Simulation time: 1 hr 9 min 46 sec) 
Heartbeat CPU 4 instructions: 200000000 cycles: 192422786 heartbeat IPC: 0.936719 cumulative IPC: 0.932075 (Simulation time: 1 hr 12 min 5 sec) 
Heartbeat CPU 6 instructions: 200000000 cycles: 194498806 heartbeat IPC: 0.876791 cumulative IPC: 0.862799 (Simulation time: 1 hr 12 min 43 sec) 
Heartbeat CPU 2 instructions: 170000000 cycles: 198191469 heartbeat IPC: 0.745578 cumulative IPC: 0.754885 (Simulation time: 1 hr 13 min 52 sec) 
Heartbeat CPU 4 instructions: 210000003 cycles: 203248002 heartbeat IPC: 0.923769 cumulative IPC: 0.931582 (Simulation time: 1 hr 15 min 27 sec) 
Finished CPU 1 instructions: 100000000 cycles: 182233063 cumulative IPC: 0.548748 (Simulation time: 1 hr 15 min 27 sec) 
Heartbeat CPU 3 instructions: 80000000 cycles: 205650609 heartbeat IPC: 0.293018 cumulative IPC: 0.297449 (Simulation time: 1 hr 16 min 11 sec) 
Heartbeat CPU 6 instructions: 210000002 cycles: 206848180 heartbeat IPC: 0.809758 cumulative IPC: 0.859273 (Simulation time: 1 hr 16 min 33 sec) 
Heartbeat CPU 1 instructions: 140000000 cycles: 207910091 heartbeat IPC: 0.345809 cumulative IPC: 0.545745 (Simulation time: 1 hr 16 min 53 sec) 
Heartbeat CPU 2 instructions: 180000000 cycles: 212465304 heartbeat IPC: 0.700583 cumulative IPC: 0.750836 (Simulation time: 1 hr 18 min 16 sec) 
Heartbeat CPU 4 instructions: 220000000 cycles: 214131457 heartbeat IPC: 0.918826 cumulative IPC: 0.930863 (Simulation time: 1 hr 18 min 45 sec) 
Heartbeat CPU 6 instructions: 220000000 cycles: 218829909 heartbeat IPC: 0.834604 cumulative IPC: 0.857779 (Simulation time: 1 hr 20 min 10 sec) 
Heartbeat CPU 4 instructions: 230000003 cycles: 224760965 heartbeat IPC: 0.940778 cumulative IPC: 0.93138 (Simulation time: 1 hr 22 min 1 sec) 
Heartbeat CPU 2 instructions: 190000002 cycles: 225781057 heartbeat IPC: 0.75099 cumulative IPC: 0.750846 (Simulation time: 1 hr 22 min 21 sec) 
Heartbeat CPU 6 instructions: 230000003 cycles: 229580418 heartbeat IPC: 0.930189 cumulative IPC: 0.861512 (Simulation time: 1 hr 23 min 35 sec) 
Heartbeat CPU 1 instructions: 150000000 cycles: 233794500 heartbeat IPC: 0.386333 cumulative IPC: 0.526349 (Simulation time: 1 hr 24 min 56 sec) 
Heartbeat CPU 4 instructions: 240000000 cycles: 235422770 heartbeat IPC: 0.937927 cumulative IPC: 0.931706 (Simulation time: 1 hr 25 min 28 sec) 
Heartbeat CPU 2 instructions: 200000000 cycles: 239136319 heartbeat IPC: 0.748768 cumulative IPC: 0.750718 (Simulation time: 1 hr 26 min 41 sec) 
Heartbeat CPU 3 instructions: 90000000 cycles: 239417978 heartbeat IPC: 0.296144 cumulative IPC: 0.297247 (Simulation time: 1 hr 26 min 46 sec) 
Heartbeat CPU 6 instructions: 240000000 cycles: 241241058 heartbeat IPC: 0.857586 cumulative IPC: 0.861304 (Simulation time: 1 hr 27 min 21 sec) 
Heartbeat CPU 4 instructions: 250000003 cycles: 246047802 heartbeat IPC: 0.941174 cumulative IPC: 0.932153 (Simulation time: 1 hr 28 min 56 sec) 
Heartbeat CPU 0 instructions: 50000001 cycles: 250501937 heartbeat IPC: 0.12972 cumulative IPC: 0.130748 (Simulation time: 1 hr 30 min 23 sec) 
Heartbeat CPU 1 instructions: 160000000 cycles: 252171476 heartbeat IPC: 0.544159 cumulative IPC: 0.527765 (Simulation time: 1 hr 30 min 55 sec) 
Heartbeat CPU 2 instructions: 210000002 cycles: 252566799 heartbeat IPC: 0.744575 cumulative IPC: 0.750362 (Simulation time: 1 hr 31 min 3 sec) 
Heartbeat CPU 6 instructions: 250000000 cycles: 252738925 heartbeat IPC: 0.869727 cumulative IPC: 0.861722 (Simulation time: 1 hr 31 min 6 sec) 
Heartbeat CPU 4 instructions: 260000000 cycles: 256669213 heartbeat IPC: 0.941494 cumulative IPC: 0.932574 (Simulation time: 1 hr 32 min 21 sec) 
Heartbeat CPU 5 instructions: 60000000 cycles: 260100162 heartbeat IPC: 0.0703136 cumulative IPC: 0.0695662 (Simulation time: 1 hr 33 min 25 sec) 
Heartbeat CPU 6 instructions: 260000000 cycles: 264924571 heartbeat IPC: 0.820638 cumulative IPC: 0.859669 (Simulation time: 1 hr 34 min 57 sec) 
Heartbeat CPU 2 instructions: 220000000 cycles: 266371066 heartbeat IPC: 0.724414 cumulative IPC: 0.748902 (Simulation time: 1 hr 35 min 24 sec) 
Heartbeat CPU 4 instructions: 270000000 cycles: 267531110 heartbeat IPC: 0.920649 cumulative IPC: 0.932048 (Simulation time: 1 hr 35 min 46 sec) 
Heartbeat CPU 7 instructions: 70000000 cycles: 269436353 heartbeat IPC: 0.112674 cumulative IPC: 0.12409 (Simulation time: 1 hr 36 min 22 sec) 
Heartbeat CPU 1 instructions: 170000003 cycles: 270676474 heartbeat IPC: 0.540395 cumulative IPC: 0.528702 (Simulation time: 1 hr 36 min 46 sec) 
Heartbeat CPU 3 instructions: 100000000 cycles: 272627161 heartbeat IPC: 0.301122 cumulative IPC: 0.297758 (Simulation time: 1 hr 37 min 24 sec) 
Heartbeat CPU 6 instructions: 270000000 cycles: 277266073 heartbeat IPC: 0.810274 cumulative IPC: 0.85729 (Simulation time: 1 hr 38 min 53 sec) 
Heartbeat CPU 4 instructions: 280000000 cycles: 278429078 heartbeat IPC: 0.917602 cumulative IPC: 0.931437 (Simulation time: 1 hr 39 min 15 sec) 
Heartbeat CPU 2 instructions: 230000002 cycles: 279472279 heartbeat IPC: 0.763288 cumulative IPC: 0.749631 (Simulation time: 1 hr 39 min 35 sec) 
Heartbeat CPU 4 instructions: 290000002 cycles: 289317276 heartbeat IPC: 0.918426 cumulative IPC: 0.930909 (Simulation time: 1 hr 42 min 42 sec) 
Heartbeat CPU 1 instructions: 180000000 cycles: 289416310 heartbeat IPC: 0.533622 cumulative IPC: 0.529045 (Simulation time: 1 hr 42 min 44 sec) 
Heartbeat CPU 6 instructions: 280000000 cycles: 289875436 heartbeat IPC: 0.793061 cumulative IPC: 0.854277 (Simulation time: 1 hr 42 min 53 sec) 
Heartbeat CPU 2 instructions: 240000000 cycles: 292430644 heartbeat IPC: 0.771702 cumulative IPC: 0.750685 (Simulation time: 1 hr 43 min 41 sec) 
Heartbeat CPU 4 instructions: 300000000 cycles: 299963897 heartbeat IPC: 0.939265 cumulative IPC: 0.931228 (Simulation time: 1 hr 46 min 1 sec) 
Heartbeat CPU 6 instructions: 290000001 cycles: 301692549 heartbeat IPC: 0.84623 cumulative IPC: 0.853938 (Simulation time: 1 hr 46 min 32 sec) 
Heartbeat CPU 3 instructions: 110000002 cycles: 304259568 heartbeat IPC: 0.316132 cumulative IPC: 0.299811 (Simulation time: 1 hr 47 min 21 sec) 
Heartbeat CPU 2 instructions: 250000003 cycles: 305320408 heartbeat IPC: 0.77581 cumulative IPC: 0.751824 (Simulation time: 1 hr 47 min 41 sec) 
Heartbeat CPU 1 instructions: 190000000 cycles: 309601588 heartbeat IPC: 0.495411 cumulative IPC: 0.526692 (Simulation time: 1 hr 49 min 2 sec) 
Heartbeat CPU 4 instructions: 310000003 cycles: 310685845 heartbeat IPC: 0.932667 cumulative IPC: 0.931281 (Simulation time: 1 hr 49 min 23 sec) 
Heartbeat CPU 6 instructions: 300000000 cycles: 313591360 heartbeat IPC: 0.84042 cumulative IPC: 0.853388 (Simulation time: 1 hr 50 min 18 sec) 
Heartbeat CPU 2 instructions: 260000000 cycles: 317964440 heartbeat IPC: 0.790887 cumulative IPC: 0.753488 (Simulation time: 1 hr 51 min 42 sec) 
Heartbeat CPU 4 instructions: 320000000 cycles: 321222979 heartbeat IPC: 0.949024 cumulative IPC: 0.931904 (Simulation time: 1 hr 52 min 44 sec) 
Heartbeat CPU 6 instructions: 310000003 cycles: 324412619 heartbeat IPC: 0.924107 cumulative IPC: 0.855911 (Simulation time: 1 hr 53 min 42 sec) 
Heartbeat CPU 0 instructions: 60000000 cycles: 328109307 heartbeat IPC: 0.128854 cumulative IPC: 0.130269 (Simulation time: 1 hr 54 min 51 sec) 
Heartbeat CPU 2 instructions: 270000003 cycles: 330640083 heartbeat IPC: 0.788915 cumulative IPC: 0.754938 (Simulation time: 1 hr 55 min 38 sec) 
Heartbeat CPU 4 instructions: 330000000 cycles: 331729235 heartbeat IPC: 0.951814 cumulative IPC: 0.932577 (Simulation time: 1 hr 55 min 58 sec) 
Heartbeat CPU 6 instructions: 320000000 cycles: 335467899 heartbeat IPC: 0.904545 cumulative IPC: 0.857621 (Simulation time: 1 hr 57 min 6 sec) 
Heartbeat CPU 1 instructions: 200000000 cycles: 337240329 heartbeat IPC: 0.361811 cumulative IPC: 0.51228 (Simulation time: 1 hr 57 min 39 sec) 
Heartbeat CPU 3 instructions: 120000000 cycles: 338208512 heartbeat IPC: 0.29456 cumulative IPC: 0.299249 (Simulation time: 1 hr 57 min 58 sec) 
Heartbeat CPU 4 instructions: 340000000 cycles: 342336253 heartbeat IPC: 0.942772 cumulative IPC: 0.932914 (Simulation time: 1 hr 59 min 18 sec) 
Heartbeat CPU 2 instructions: 280000000 cycles: 343384801 heartbeat IPC: 0.784639 cumulative IPC: 0.756113 (Simulation time: 1 hr 59 min 39 sec) 
Heartbeat CPU 6 instructions: 330000001 cycles: 346949445 heartbeat IPC: 0.870963 cumulative IPC: 0.858091 (Simulation time: 2 hr 0 min 50 sec) 
Heartbeat CPU 4 instructions: 350000000 cycles: 352857638 heartbeat IPC: 0.950445 cumulative IPC: 0.933469 (Simulation time: 2 hr 2 min 49 sec) 
Heartbeat CPU 1 instructions: 210000000 cycles: 355088587 heartbeat IPC: 0.560279 cumulative IPC: 0.514844 (Simulation time: 2 hr 3 min 34 sec) 
Finished CPU 3 instructions: 100000003 cycles: 334310401 cumulative IPC: 0.299123 (Simulation time: 2 hr 3 min 39 sec) 
Heartbeat CPU 2 instructions: 290000001 cycles: 355756873 heartbeat IPC: 0.808272 cumulative IPC: 0.758041 (Simulation time: 2 hr 3 min 47 sec) 
Heartbeat CPU 6 instructions: 340000000 cycles: 358032836 heartbeat IPC: 0.902251 cumulative IPC: 0.859543 (Simulation time: 2 hr 4 min 31 sec) 
Heartbeat CPU 7 instructions: 80000000 cycles: 358120803 heartbeat IPC: 0.112759 cumulative IPC: 0.121109 (Simulation time: 2 hr 4 min 33 sec) 
Heartbeat CPU 4 instructions: 360000000 cycles: 363490190 heartbeat IPC: 0.940508 cumulative IPC: 0.933688 (Simulation time: 2 hr 6 min 14 sec) 
Heartbeat CPU 2 instructions: 300000000 cycles: 368878967 heartbeat IPC: 0.762073 cumulative IPC: 0.758193 (Simulation time: 2 hr 7 min 56 sec) 
Heartbeat CPU 6 instructions: 350000003 cycles: 369759620 heartbeat IPC: 0.852749 cumulative IPC: 0.859315 (Simulation time: 2 hr 8 min 12 sec) 
Heartbeat CPU 3 instructions: 130000001 cycles: 371936613 heartbeat IPC: 0.296489 cumulative IPC: 0.298983 (Simulation time: 2 hr 8 min 52 sec) 
Heartbeat CPU 4 instructions: 370000000 cycles: 374122353 heartbeat IPC: 0.940542 cumulative IPC: 0.933894 (Simulation time: 2 hr 9 min 31 sec) 
Heartbeat CPU 1 instructions: 220000000 cycles: 380810648 heartbeat IPC: 0.388771 cumulative IPC: 0.50583 (Simulation time: 2 hr 11 min 32 sec) 
Heartbeat CPU 6 instructions: 360000000 cycles: 381054475 heartbeat IPC: 0.885359 cumulative IPC: 0.860132 (Simulation time: 2 hr 11 min 36 sec) 
Heartbeat CPU 2 instructions: 310000003 cycles: 382200700 heartbeat IPC: 0.750653 cumulative IPC: 0.757915 (Simulation time: 2 hr 11 min 57 sec) 
Heartbeat CPU 4 instructions: 380000000 cycles: 384789419 heartbeat IPC: 0.937465 cumulative IPC: 0.933999 (Simulation time: 2 hr 12 min 44 sec) 
Heartbeat CPU 6 instructions: 370000002 cycles: 392043860 heartbeat IPC: 0.909969 cumulative IPC: 0.861608 (Simulation time: 2 hr 15 min 1 sec) 
Heartbeat CPU 2 instructions: 320000000 cycles: 395051206 heartbeat IPC: 0.778179 cumulative IPC: 0.758611 (Simulation time: 2 hr 15 min 59 sec) 
Heartbeat CPU 4 instructions: 390000001 cycles: 395354641 heartbeat IPC: 0.946502 cumulative IPC: 0.934352 (Simulation time: 2 hr 16 min 5 sec) 
Heartbeat CPU 5 instructions: 70000000 cycles: 402549720 heartbeat IPC: 0.0702003 cumulative IPC: 0.0698029 (Simulation time: 2 hr 18 min 20 sec) 
Heartbeat CPU 6 instructions: 380000000 cycles: 403041514 heartbeat IPC: 0.909285 cumulative IPC: 0.862981 (Simulation time: 2 hr 18 min 29 sec) 
Heartbeat CPU 0 instructions: 70000000 cycles: 403704324 heartbeat IPC: 0.132284 cumulative IPC: 0.130667 (Simulation time: 2 hr 18 min 41 sec) 
Heartbeat CPU 4 instructions: 400000000 cycles: 405929181 heartbeat IPC: 0.945668 cumulative IPC: 0.934663 (Simulation time: 2 hr 19 min 22 sec) 
Heartbeat CPU 3 instructions: 140000000 cycles: 406356395 heartbeat IPC: 0.290531 cumulative IPC: 0.298228 (Simulation time: 2 hr 19 min 30 sec) 
Heartbeat CPU 2 instructions: 330000000 cycles: 407795486 heartbeat IPC: 0.784666 cumulative IPC: 0.75947 (Simulation time: 2 hr 19 min 56 sec) 
Heartbeat CPU 1 instructions: 230000001 cycles: 409979218 heartbeat IPC: 0.342835 cumulative IPC: 0.493606 (Simulation time: 2 hr 20 min 36 sec) 
Heartbeat CPU 6 instructions: 390000003 cycles: 414226092 heartbeat IPC: 0.894089 cumulative IPC: 0.863866 (Simulation time: 2 hr 21 min 55 sec) 
Heartbeat CPU 4 instructions: 410000002 cycles: 416419575 heartbeat IPC: 0.953253 cumulative IPC: 0.935156 (Simulation time: 2 hr 22 min 35 sec) 
Heartbeat CPU 2 instructions: 340000000 cycles: 420672631 heartbeat IPC: 0.77657 cumulative IPC: 0.760021 (Simulation time: 2 hr 23 min 57 sec) 
Heartbeat CPU 7 instructions: 90000003 cycles: 424877825 heartbeat IPC: 0.149797 cumulative IPC: 0.125851 (Simulation time: 2 hr 25 min 19 sec) 
Heartbeat CPU 6 instructions: 400000000 cycles: 425420736 heartbeat IPC: 0.893284 cumulative IPC: 0.86468 (Simulation time: 2 hr 25 min 30 sec) 
Heartbeat CPU 4 instructions: 420000000 cycles: 427133054 heartbeat IPC: 0.933403 cumulative IPC: 0.93511 (Simulation time: 2 hr 26 min 3 sec) 
Heartbeat CPU 1 instructions: 240000000 cycles: 432044064 heartbeat IPC: 0.45321 cumulative IPC: 0.491437 (Simulation time: 2 hr 27 min 38 sec) 
Heartbeat CPU 2 instructions: 350000002 cycles: 434490203 heartbeat IPC: 0.723716 cumulative IPC: 0.758807 (Simulation time: 2 hr 28 min 24 sec) 
Heartbeat CPU 6 instructions: 410000001 cycles: 438136590 heartbeat IPC: 0.78642 cumulative IPC: 0.862294 (Simulation time: 2 hr 29 min 32 sec) 
Heartbeat CPU 4 instructions: 430000001 cycles: 438266661 heartbeat IPC: 0.898182 cumulative IPC: 0.934125 (Simulation time: 2 hr 29 min 35 sec) 
Heartbeat CPU 3 instructions: 150000001 cycles: 439651062 heartbeat IPC: 0.300348 cumulative IPC: 0.298397 (Simulation time: 2 hr 30 min 1 sec) 
Heartbeat CPU 1 instructions: 250000003 cycles: 448723349 heartbeat IPC: 0.599546 cumulative IPC: 0.495654 (Simulation time: 2 hr 32 min 54 sec) 
Heartbeat CPU 2 instructions: 360000000 cycles: 448808652 heartbeat IPC: 0.6984 cumulative IPC: 0.756785 (Simulation time: 2 hr 32 min 56 sec) 
Heartbeat CPU 4 instructions: 440000000 cycles: 449491411 heartbeat IPC: 0.890888 cumulative IPC: 0.932992 (Simulation time: 2 hr 33 min 9 sec) 
Heartbeat CPU 6 instructions: 420000000 cycles: 451019934 heartbeat IPC: 0.776196 cumulative IPC: 0.859714 (Simulation time: 2 hr 33 min 38 sec) 
Heartbeat CPU 4 instructions: 450000000 cycles: 460711048 heartbeat IPC: 0.891294 cumulative IPC: 0.931928 (Simulation time: 2 hr 36 min 38 sec) 
Heartbeat CPU 2 instructions: 370000003 cycles: 462597979 heartbeat IPC: 0.725199 cumulative IPC: 0.755799 (Simulation time: 2 hr 37 min 12 sec) 
Heartbeat CPU 6 instructions: 430000003 cycles: 463652829 heartbeat IPC: 0.791584 cumulative IPC: 0.85777 (Simulation time: 2 hr 37 min 30 sec) 
Heartbeat CPU 1 instructions: 260000000 cycles: 467445995 heartbeat IPC: 0.534112 cumulative IPC: 0.497267 (Simulation time: 2 hr 38 min 41 sec) 
Heartbeat CPU 4 instructions: 460000000 cycles: 471492284 heartbeat IPC: 0.927537 cumulative IPC: 0.931823 (Simulation time: 2 hr 40 min 4 sec) 
Heartbeat CPU 3 instructions: 160000000 cycles: 473564474 heartbeat IPC: 0.294869 cumulative IPC: 0.298132 (Simulation time: 2 hr 40 min 48 sec) 
Heartbeat CPU 6 instructions: 440000000 cycles: 474886373 heartbeat IPC: 0.890191 cumulative IPC: 0.858572 (Simulation time: 2 hr 41 min 16 sec) 
Heartbeat CPU 2 instructions: 380000000 cycles: 475161713 heartbeat IPC: 0.795941 cumulative IPC: 0.756909 (Simulation time: 2 hr 41 min 22 sec) 
Heartbeat CPU 1 instructions: 270000000 cycles: 477000682 heartbeat IPC: 1.04661 cumulative IPC: 0.508778 (Simulation time: 2 hr 42 min 2 sec) 
Heartbeat CPU 4 instructions: 470000001 cycles: 481792674 heartbeat IPC: 0.970837 cumulative IPC: 0.932695 (Simulation time: 2 hr 43 min 40 sec) 
Heartbeat CPU 0 instructions: 80000000 cycles: 482173945 heartbeat IPC: 0.127438 cumulative IPC: 0.130118 (Simulation time: 2 hr 43 min 48 sec) 
Heartbeat CPU 6 instructions: 450000002 cycles: 485528908 heartbeat IPC: 0.939626 cumulative IPC: 0.86043 (Simulation time: 2 hr 44 min 59 sec) 
Heartbeat CPU 1 instructions: 280000000 cycles: 486596973 heartbeat IPC: 1.04207 cumulative IPC: 0.519771 (Simulation time: 2 hr 45 min 21 sec) 
Heartbeat CPU 2 instructions: 390000001 cycles: 487744020 heartbeat IPC: 0.794767 cumulative IPC: 0.75793 (Simulation time: 2 hr 45 min 46 sec) 
Heartbeat CPU 4 instructions: 480000000 cycles: 492159055 heartbeat IPC: 0.964657 cumulative IPC: 0.933398 (Simulation time: 2 hr 47 min 19 sec) 
Heartbeat CPU 6 instructions: 460000000 cycles: 496227549 heartbeat IPC: 0.934698 cumulative IPC: 0.862102 (Simulation time: 2 hr 48 min 40 sec) 
Heartbeat CPU 1 instructions: 290000003 cycles: 498027677 heartbeat IPC: 0.874837 cumulative IPC: 0.52828 (Simulation time: 2 hr 49 min 15 sec) 
Heartbeat CPU 2 instructions: 400000000 cycles: 500548248 heartbeat IPC: 0.780992 cumulative IPC: 0.758546 (Simulation time: 2 hr 50 min 3 sec) 
Heartbeat CPU 4 instructions: 490000001 cycles: 502828808 heartbeat IPC: 0.937229 cumulative IPC: 0.933483 (Simulation time: 2 hr 50 min 44 sec) 
Heartbeat CPU 7 instructions: 100000000 cycles: 505887836 heartbeat IPC: 0.123441 cumulative IPC: 0.125449 (Simulation time: 2 hr 51 min 40 sec) 
Heartbeat CPU 3 instructions: 170000000 cycles: 507029837 heartbeat IPC: 0.298816 cumulative IPC: 0.298179 (Simulation time: 2 hr 52 min 2 sec) 
Heartbeat CPU 6 instructions: 470000002 cycles: 508158818 heartbeat IPC: 0.838134 cumulative IPC: 0.861515 (Simulation time: 2 hr 52 min 23 sec) 
Heartbeat CPU 4 instructions: 500000000 cycles: 513601769 heartbeat IPC: 0.92825 cumulative IPC: 0.933369 (Simulation time: 2 hr 54 min 4 sec) 
Heartbeat CPU 2 instructions: 410000002 cycles: 513900721 heartbeat IPC: 0.748925 cumulative IPC: 0.758285 (Simulation time: 2 hr 54 min 10 sec) 
Heartbeat CPU 6 instructions: 480000000 cycles: 519829554 heartbeat IPC: 0.856844 cumulative IPC: 0.861405 (Simulation time: 2 hr 55 min 59 sec) 
Heartbeat CPU 1 instructions: 300000000 cycles: 521658416 heartbeat IPC: 0.423178 cumulative IPC: 0.523319 (Simulation time: 2 hr 56 min 33 sec) 
Heartbeat CPU 4 instructions: 510000001 cycles: 524285849 heartbeat IPC: 0.935972 cumulative IPC: 0.933424 (Simulation time: 2 hr 57 min 22 sec) 
Heartbeat CPU 2 instructions: 420000000 cycles: 526951955 heartbeat IPC: 0.766211 cumulative IPC: 0.75849 (Simulation time: 2 hr 58 min 13 sec) 
Heartbeat CPU 6 instructions: 490000003 cycles: 530921195 heartbeat IPC: 0.90158 cumulative IPC: 0.862279 (Simulation time: 2 hr 59 min 30 sec) 
Heartbeat CPU 4 instructions: 520000000 cycles: 534989213 heartbeat IPC: 0.934286 cumulative IPC: 0.933442 (Simulation time: 3 hr 0 min 46 sec) 
Heartbeat CPU 2 instructions: 430000001 cycles: 540056383 heartbeat IPC: 0.763101 cumulative IPC: 0.758606 (Simulation time: 3 hr 2 min 21 sec) 
Heartbeat CPU 3 instructions: 180000000 cycles: 540769085 heartbeat IPC: 0.296391 cumulative IPC: 0.298063 (Simulation time: 3 hr 2 min 35 sec) 
Heartbeat CPU 1 instructions: 310000002 cycles: 541062780 heartbeat IPC: 0.515348 cumulative IPC: 0.523022 (Simulation time: 3 hr 2 min 41 sec) 
Heartbeat CPU 6 instructions: 500000000 cycles: 542448137 heartbeat IPC: 0.867532 cumulative IPC: 0.862395 (Simulation time: 3 hr 3 min 8 sec) 
Heartbeat CPU 5 instructions: 80000000 cycles: 543415621 heartbeat IPC: 0.0709895 cumulative IPC: 0.0701229 (Simulation time: 3 hr 3 min 27 sec) 
Heartbeat CPU 4 instructions: 530000001 cycles: 545494730 heartbeat IPC: 0.951881 cumulative IPC: 0.933811 (Simulation time: 3 hr 4 min 7 sec) 
Heartbeat CPU 2 instructions: 440000000 cycles: 552478726 heartbeat IPC: 0.805001 cumulative IPC: 0.759691 (Simulation time: 3 hr 6 min 17 sec) 
Heartbeat CPU 6 instructions: 510000002 cycles: 553499633 heartbeat IPC: 0.904855 cumulative IPC: 0.863277 (Simulation time: 3 hr 6 min 36 sec) 
Heartbeat CPU 4 instructions: 540000000 cycles: 556194619 heartbeat IPC: 0.934589 cumulative IPC: 0.933827 (Simulation time: 3 hr 7 min 28 sec) 
Heartbeat CPU 0 instructions: 90000003 cycles: 558553854 heartbeat IPC: 0.130925 cumulative IPC: 0.130232 (Simulation time: 3 hr 8 min 15 sec) 
Heartbeat CPU 1 instructions: 320000000 cycles: 561224719 heartbeat IPC: 0.495984 cumulative IPC: 0.522012 (Simulation time: 3 hr 9 min 8 sec) 
Heartbeat CPU 6 instructions: 520000000 cycles: 564690953 heartbeat IPC: 0.893549 cumulative IPC: 0.8639 (Simulation time: 3 hr 10 min 16 sec) 
Heartbeat CPU 2 instructions: 450000001 cycles: 565220744 heartbeat IPC: 0.784805 cumulative IPC: 0.760279 (Simulation time: 3 hr 10 min 26 sec) 
Heartbeat CPU 4 instructions: 550000000 cycles: 566654165 heartbeat IPC: 0.956064 cumulative IPC: 0.934253 (Simulation time: 3 hr 10 min 54 sec) 
Heartbeat CPU 3 instructions: 190000000 cycles: 574013251 heartbeat IPC: 0.300805 cumulative IPC: 0.298228 (Simulation time: 3 hr 13 min 12 sec) 
Heartbeat CPU 1 instructions: 330000003 cycles: 575249403 heartbeat IPC: 0.713029 cumulative IPC: 0.526846 (Simulation time: 3 hr 13 min 35 sec) 
Heartbeat CPU 6 instructions: 530000001 cycles: 576450896 heartbeat IPC: 0.850344 cumulative IPC: 0.863613 (Simulation time: 3 hr 13 min 58 sec) 
Heartbeat CPU 4 instructions: 560000000 cycles: 577472715 heartbeat IPC: 0.924338 cumulative IPC: 0.93406 (Simulation time: 3 hr 14 min 17 sec) 
Heartbeat CPU 7 instructions: 110000000 cycles: 577950969 heartbeat IPC: 0.138767 cumulative IPC: 0.127172 (Simulation time: 3 hr 14 min 26 sec) 
Heartbeat CPU 2 instructions: 460000000 cycles: 578809110 heartbeat IPC: 0.735924 cumulative IPC: 0.759685 (Simulation time: 3 hr 14 min 43 sec) 
Heartbeat CPU 6 instructions: 540000000 cycles: 587606065 heartbeat IPC: 0.896445 cumulative IPC: 0.864259 (Simulation time: 3 hr 17 min 34 sec) 
Heartbeat CPU 4 instructions: 570000001 cycles: 587976358 heartbeat IPC: 0.952051 cumulative IPC: 0.934394 (Simulation time: 3 hr 17 min 41 sec) 
Heartbeat CPU 2 instructions: 470000002 cycles: 591579675 heartbeat IPC: 0.783051 cumulative IPC: 0.760208 (Simulation time: 3 hr 18 min 48 sec) 
Heartbeat CPU 4 instructions: 580000000 cycles: 598657031 heartbeat IPC: 0.93627 cumulative IPC: 0.934428 (Simulation time: 3 hr 20 min 55 sec) 
Heartbeat CPU 1 instructions: 340000000 cycles: 598818019 heartbeat IPC: 0.424293 cumulative IPC: 0.522663 (Simulation time: 3 hr 20 min 58 sec) 
Heartbeat CPU 6 instructions: 550000003 cycles: 599126079 heartbeat IPC: 0.868055 cumulative IPC: 0.864335 (Simulation time: 3 hr 21 min 3 sec) 
Heartbeat CPU 2 instructions: 480000000 cycles: 604501079 heartbeat IPC: 0.77391 cumulative IPC: 0.760512 (Simulation time: 3 hr 22 min 45 sec) 
Heartbeat CPU 3 instructions: 200000000 cycles: 608094995 heartbeat IPC: 0.293412 cumulative IPC: 0.297949 (Simulation time: 3 hr 23 min 53 sec) 
Heartbeat CPU 4 instructions: 590000002 cycles: 609392978 heartbeat IPC: 0.93145 cumulative IPC: 0.934374 (Simulation time: 3 hr 24 min 17 sec) 
Heartbeat CPU 6 instructions: 560000000 cycles: 611055634 heartbeat IPC: 0.838254 cumulative IPC: 0.863808 (Simulation time: 3 hr 24 min 49 sec) 
Heartbeat CPU 2 instructions: 490000001 cycles: 617895680 heartbeat IPC: 0.74657 cumulative IPC: 0.760199 (Simulation time: 3 hr 27 min 1 sec) 
Heartbeat CPU 4 instructions: 600000000 cycles: 620034597 heartbeat IPC: 0.939706 cumulative IPC: 0.934469 (Simulation time: 3 hr 27 min 42 sec) 
Heartbeat CPU 6 instructions: 570000001 cycles: 622238465 heartbeat IPC: 0.894228 cumulative IPC: 0.864374 (Simulation time: 3 hr 28 min 24 sec) 
Heartbeat CPU 1 instructions: 350000003 cycles: 624193248 heartbeat IPC: 0.394085 cumulative IPC: 0.517253 (Simulation time: 3 hr 29 min 0 sec) 
Heartbeat CPU 2 instructions: 500000000 cycles: 630538895 heartbeat IPC: 0.790938 cumulative IPC: 0.760837 (Simulation time: 3 hr 30 min 58 sec) 
Heartbeat CPU 4 instructions: 610000002 cycles: 630621328 heartbeat IPC: 0.944579 cumulative IPC: 0.934644 (Simulation time: 3 hr 31 min 0 sec) 
Heartbeat CPU 6 instructions: 580000000 cycles: 633171200 heartbeat IPC: 0.914684 cumulative IPC: 0.865272 (Simulation time: 3 hr 31 min 51 sec) 
Heartbeat CPU 0 instructions: 100000000 cycles: 636314410 heartbeat IPC: 0.1286 cumulative IPC: 0.130026 (Simulation time: 3 hr 32 min 53 sec) 
Heartbeat CPU 4 instructions: 620000000 cycles: 641206262 heartbeat IPC: 0.944739 cumulative IPC: 0.934816 (Simulation time: 3 hr 34 min 29 sec) 
Heartbeat CPU 3 instructions: 210000002 cycles: 642612990 heartbeat IPC: 0.289704 cumulative IPC: 0.297491 (Simulation time: 3 hr 34 min 56 sec) 
Heartbeat CPU 2 instructions: 510000002 cycles: 643246260 heartbeat IPC: 0.786945 cumulative IPC: 0.76137 (Simulation time: 3 hr 35 min 8 sec) 
Heartbeat CPU 6 instructions: 590000002 cycles: 644764325 heartbeat IPC: 0.86258 cumulative IPC: 0.865222 (Simulation time: 3 hr 35 min 37 sec) 
Heartbeat CPU 1 instructions: 360000000 cycles: 645521983 heartbeat IPC: 0.468851 cumulative IPC: 0.5156 (Simulation time: 3 hr 35 min 51 sec) 
Heartbeat CPU 7 instructions: 120000000 cycles: 645661129 heartbeat IPC: 0.147688 cumulative IPC: 0.129396 (Simulation time: 3 hr 35 min 54 sec) 
Heartbeat CPU 4 instructions: 630000000 cycles: 652063187 heartbeat IPC: 0.921071 cumulative IPC: 0.93458 (Simulation time: 3 hr 37 min 55 sec) 
Heartbeat CPU 2 instructions: 520000000 cycles: 656798974 heartbeat IPC: 0.737859 cumulative IPC: 0.760869 (Simulation time: 3 hr 39 min 26 sec) 
Heartbeat CPU 6 instructions: 600000000 cycles: 656947698 heartbeat IPC: 0.820791 cumulative IPC: 0.864371 (Simulation time: 3 hr 39 min 29 sec) 
Heartbeat CPU 4 instructions: 640000000 cycles: 662879332 heartbeat IPC: 0.924544 cumulative IPC: 0.934411 (Simulation time: 3 hr 41 min 19 sec) 
Heartbeat CPU 1 instructions: 370000000 cycles: 664716348 heartbeat IPC: 0.520986 cumulative IPC: 0.515761 (Simulation time: 3 hr 41 min 54 sec) 
Heartbeat CPU 6 instructions: 610000003 cycles: 669332743 heartbeat IPC: 0.807426 cumulative IPC: 0.863283 (Simulation time: 3 hr 43 min 22 sec) 
Heartbeat CPU 2 instructions: 530000000 cycles: 670420456 heartbeat IPC: 0.734134 cumulative IPC: 0.760308 (Simulation time: 3 hr 43 min 43 sec) 
Heartbeat CPU 4 instructions: 650000000 cycles: 673736672 heartbeat IPC: 0.921036 cumulative IPC: 0.934188 (Simulation time: 3 hr 44 min 48 sec) 
Heartbeat CPU 3 instructions: 220000000 cycles: 675783656 heartbeat IPC: 0.301471 cumulative IPC: 0.297692 (Simulation time: 3 hr 45 min 26 sec) 
Heartbeat CPU 6 instructions: 620000000 cycles: 681218315 heartbeat IPC: 0.841356 cumulative IPC: 0.862888 (Simulation time: 3 hr 47 min 11 sec) 
Heartbeat CPU 1 instructions: 380000000 cycles: 682561490 heartbeat IPC: 0.560377 cumulative IPC: 0.516964 (Simulation time: 3 hr 47 min 37 sec) 
Heartbeat CPU 2 instructions: 540000000 cycles: 684147159 heartbeat IPC: 0.728507 cumulative IPC: 0.75965 (Simulation time: 3 hr 48 min 7 sec) 
Heartbeat CPU 4 instructions: 660000000 cycles: 684434428 heartbeat IPC: 0.934775 cumulative IPC: 0.934198 (Simulation time: 3 hr 48 min 13 sec) 
Heartbeat CPU 5 instructions: 90000000 cycles: 685778204 heartbeat IPC: 0.0702432 cumulative IPC: 0.0701487 (Simulation time: 3 hr 48 min 39 sec) 
Heartbeat CPU 6 instructions: 630000001 cycles: 693232111 heartbeat IPC: 0.832376 cumulative IPC: 0.862343 (Simulation time: 3 hr 51 min 2 sec) 
Heartbeat CPU 4 instructions: 670000001 cycles: 695124808 heartbeat IPC: 0.935421 cumulative IPC: 0.934217 (Simulation time: 3 hr 51 min 37 sec) 
Heartbeat CPU 2 instructions: 550000000 cycles: 697512800 heartbeat IPC: 0.748187 cumulative IPC: 0.759423 (Simulation time: 3 hr 52 min 21 sec) 
Heartbeat CPU 1 instructions: 390000000 cycles: 703134046 heartbeat IPC: 0.486084 cumulative IPC: 0.516033 (Simulation time: 3 hr 54 min 6 sec) 
Heartbeat CPU 6 instructions: 640000000 cycles: 704859895 heartbeat IPC: 0.860009 cumulative IPC: 0.862303 (Simulation time: 3 hr 54 min 37 sec) 
Heartbeat CPU 4 instructions: 680000000 cycles: 705705982 heartbeat IPC: 0.945075 cumulative IPC: 0.934385 (Simulation time: 3 hr 54 min 53 sec) 
Heartbeat CPU 3 instructions: 230000002 cycles: 709373194 heartbeat IPC: 0.297712 cumulative IPC: 0.297693 (Simulation time: 3 hr 56 min 5 sec) 
Heartbeat CPU 2 instructions: 560000000 cycles: 710380711 heartbeat IPC: 0.777127 cumulative IPC: 0.759754 (Simulation time: 3 hr 56 min 24 sec) 
Heartbeat CPU 6 instructions: 650000000 cycles: 715774491 heartbeat IPC: 0.916204 cumulative IPC: 0.86315 (Simulation time: 3 hr 58 min 9 sec) 
Heartbeat CPU 4 instructions: 690000002 cycles: 716159553 heartbeat IPC: 0.956611 cumulative IPC: 0.934719 (Simulation time: 3 hr 58 min 16 sec) 
Heartbeat CPU 0 instructions: 110000003 cycles: 717171164 heartbeat IPC: 0.123676 cumulative IPC: 0.129288 (Simulation time: 3 hr 58 min 35 sec) 
Heartbeat CPU 1 instructions: 400000000 cycles: 718373166 heartbeat IPC: 0.656206 cumulative IPC: 0.519096 (Simulation time: 3 hr 58 min 58 sec) 
Heartbeat CPU 2 instructions: 570000000 cycles: 723057293 heartbeat IPC: 0.788856 cumulative IPC: 0.760279 (Simulation time: 4 hr 0 min 23 sec) 
Heartbeat CPU 4 instructions: 700000000 cycles: 726701460 heartbeat IPC: 0.948595 cumulative IPC: 0.934927 (Simulation time: 4 hr 1 min 30 sec) 
Heartbeat CPU 6 instructions: 660000000 cycles: 726817434 heartbeat IPC: 0.905556 cumulative IPC: 0.863813 (Simulation time: 4 hr 1 min 32 sec) 
Heartbeat CPU 7 instructions: 130000001 cycles: 735658669 heartbeat IPC: 0.111114 cumulative IPC: 0.127094 (Simulation time: 4 hr 4 min 15 sec) 
Heartbeat CPU 2 instructions: 580000000 cycles: 735802032 heartbeat IPC: 0.784638 cumulative IPC: 0.760713 (Simulation time: 4 hr 4 min 17 sec) 
Heartbeat CPU 4 instructions: 710000001 cycles: 737231449 heartbeat IPC: 0.949669 cumulative IPC: 0.935143 (Simulation time: 4 hr 4 min 44 sec) 
Heartbeat CPU 6 instructions: 670000001 cycles: 737600831 heartbeat IPC: 0.927352 cumulative IPC: 0.86477 (Simulation time: 4 hr 4 min 50 sec) 
Heartbeat CPU 3 instructions: 240000000 cycles: 743203418 heartbeat IPC: 0.295594 cumulative IPC: 0.297595 (Simulation time: 4 hr 6 min 35 sec) 
Heartbeat CPU 1 instructions: 410000000 cycles: 746036864 heartbeat IPC: 0.361485 cumulative IPC: 0.513082 (Simulation time: 4 hr 7 min 28 sec) 
Heartbeat CPU 4 instructions: 720000000 cycles: 747799375 heartbeat IPC: 0.946259 cumulative IPC: 0.935305 (Simulation time: 4 hr 8 min 1 sec) 
Heartbeat CPU 2 instructions: 590000003 cycles: 748849401 heartbeat IPC: 0.766438 cumulative IPC: 0.760816 (Simulation time: 4 hr 8 min 20 sec) 
Heartbeat CPU 6 instructions: 680000000 cycles: 749251165 heartbeat IPC: 0.858344 cumulative IPC: 0.864667 (Simulation time: 4 hr 8 min 27 sec) 
Heartbeat CPU 4 instructions: 730000000 cycles: 758612589 heartbeat IPC: 0.924794 cumulative IPC: 0.935151 (Simulation time: 4 hr 11 min 21 sec) 
Heartbeat CPU 6 instructions: 690000001 cycles: 761516270 heartbeat IPC: 0.815321 cumulative IPC: 0.863849 (Simulation time: 4 hr 12 min 14 sec) 
Heartbeat CPU 2 instructions: 600000000 cycles: 762245995 heartbeat IPC: 0.746458 cumulative IPC: 0.760557 (Simulation time: 4 hr 12 min 28 sec) 
Heartbeat CPU 1 instructions: 420000000 cycles: 764953672 heartbeat IPC: 0.52863 cumulative IPC: 0.513478 (Simulation time: 4 hr 13 min 17 sec) 
Heartbeat CPU 4 instructions: 740000000 cycles: 769403864 heartbeat IPC: 0.926675 cumulative IPC: 0.935029 (Simulation time: 4 hr 14 min 39 sec) 
Heartbeat CPU 6 instructions: 700000000 cycles: 773711686 heartbeat IPC: 0.81998 cumulative IPC: 0.863139 (Simulation time: 4 hr 15 min 58 sec) 
Heartbeat CPU 2 instructions: 610000000 cycles: 775798091 heartbeat IPC: 0.737893 cumulative IPC: 0.76015 (Simulation time: 4 hr 16 min 36 sec) 
Heartbeat CPU 3 instructions: 250000001 cycles: 776575601 heartbeat IPC: 0.299651 cumulative IPC: 0.297686 (Simulation time: 4 hr 16 min 51 sec) 
Heartbeat CPU 4 instructions: 750000003 cycles: 780301071 heartbeat IPC: 0.917667 cumulative IPC: 0.934779 (Simulation time: 4 hr 17 min 58 sec) 
Heartbeat CPU 6 instructions: 710000002 cycles: 786041825 heartbeat IPC: 0.811021 cumulative IPC: 0.862299 (Simulation time: 4 hr 19 min 37 sec) 
Heartbeat CPU 1 instructions: 430000003 cycles: 787998112 heartbeat IPC: 0.433944 cumulative IPC: 0.511088 (Simulation time: 4 hr 20 min 11 sec) 
Heartbeat CPU 2 instructions: 620000000 cycles: 789749420 heartbeat IPC: 0.716778 cumulative IPC: 0.759362 (Simulation time: 4 hr 20 min 41 sec) 
Heartbeat CPU 4 instructions: 760000000 cycles: 791072711 heartbeat IPC: 0.928363 cumulative IPC: 0.93469 (Simulation time: 4 hr 21 min 5 sec) 
Heartbeat CPU 6 instructions: 720000000 cycles: 797684659 heartbeat IPC: 0.858897 cumulative IPC: 0.862248 (Simulation time: 4 hr 23 min 5 sec) 
Heartbeat CPU 0 instructions: 120000000 cycles: 797927538 heartbeat IPC: 0.123829 cumulative IPC: 0.128721 (Simulation time: 4 hr 23 min 9 sec) 
Finished CPU 0 instructions: 100000000 cycles: 776874167 cumulative IPC: 0.128721 (Simulation time: 4 hr 23 min 9 sec) 
Heartbeat CPU 4 instructions: 770000001 cycles: 801723163 heartbeat IPC: 0.938927 cumulative IPC: 0.934748 (Simulation time: 4 hr 24 min 16 sec) 
Heartbeat CPU 2 instructions: 630000003 cycles: 802465472 heartbeat IPC: 0.786408 cumulative IPC: 0.759803 (Simulation time: 4 hr 24 min 29 sec) 
Heartbeat CPU 6 instructions: 730000003 cycles: 809162379 heartbeat IPC: 0.871253 cumulative IPC: 0.862379 (Simulation time: 4 hr 26 min 32 sec) 
Heartbeat CPU 3 instructions: 260000000 cycles: 809659000 heartbeat IPC: 0.302266 cumulative IPC: 0.297878 (Simulation time: 4 hr 26 min 41 sec) 
Heartbeat CPU 4 instructions: 780000000 cycles: 812285537 heartbeat IPC: 0.946757 cumulative IPC: 0.934908 (Simulation time: 4 hr 27 min 31 sec) 
Heartbeat CPU 2 instructions: 640000000 cycles: 814912794 heartbeat IPC: 0.803385 cumulative IPC: 0.760486 (Simulation time: 4 hr 28 min 21 sec) 
Heartbeat CPU 1 instructions: 440000000 cycles: 817035774 heartbeat IPC: 0.34438 cumulative IPC: 0.505006 (Simulation time: 4 hr 29 min 1 sec) 
Heartbeat CPU 6 instructions: 740000000 cycles: 819696495 heartbeat IPC: 0.949296 cumulative IPC: 0.863525 (Simulation time: 4 hr 29 min 51 sec) 
Finished CPU 7 instructions: 100000003 cycles: 798884424 cumulative IPC: 0.125175 (Simulation time: 4 hr 29 min 56 sec) 
Heartbeat CPU 4 instructions: 790000003 cycles: 822694482 heartbeat IPC: 0.960712 cumulative IPC: 0.935243 (Simulation time: 4 hr 30 min 49 sec) 
Heartbeat CPU 7 instructions: 140000000 cycles: 823221662 heartbeat IPC: 0.114203 cumulative IPC: 0.125687 (Simulation time: 4 hr 30 min 59 sec) 
Heartbeat CPU 5 instructions: 100000000 cycles: 826697373 heartbeat IPC: 0.0709627 cumulative IPC: 0.0702911 (Simulation time: 4 hr 32 min 6 sec) 
Heartbeat CPU 2 instructions: 650000002 cycles: 827315775 heartbeat IPC: 0.806258 cumulative IPC: 0.76119 (Simulation time: 4 hr 32 min 18 sec) 
Heartbeat CPU 6 instructions: 750000000 cycles: 831015402 heartbeat IPC: 0.883478 cumulative IPC: 0.863804 (Simulation time: 4 hr 33 min 30 sec) 
Heartbeat CPU 4 instructions: 800000000 cycles: 833568665 heartbeat IPC: 0.919609 cumulative IPC: 0.935034 (Simulation time: 4 hr 34 min 20 sec) 
Heartbeat CPU 1 instructions: 450000000 cycles: 836120185 heartbeat IPC: 0.523988 cumulative IPC: 0.505451 (Simulation time: 4 hr 35 min 8 sec) 
Heartbeat CPU 2 instructions: 660000000 cycles: 840684876 heartbeat IPC: 0.747993 cumulative IPC: 0.760975 (Simulation time: 4 hr 36 min 33 sec) 
Heartbeat CPU 6 instructions: 760000000 cycles: 843665290 heartbeat IPC: 0.790521 cumulative IPC: 0.862677 (Simulation time: 4 hr 37 min 28 sec) 
Heartbeat CPU 3 instructions: 270000001 cycles: 843717056 heartbeat IPC: 0.293616 cumulative IPC: 0.297702 (Simulation time: 4 hr 37 min 28 sec) 
Heartbeat CPU 4 instructions: 810000003 cycles: 844700250 heartbeat IPC: 0.898345 cumulative IPC: 0.934538 (Simulation time: 4 hr 37 min 47 sec) 
Heartbeat CPU 1 instructions: 460000000 cycles: 852613026 heartbeat IPC: 0.606324 cumulative IPC: 0.507451 (Simulation time: 4 hr 40 min 12 sec) 
Heartbeat CPU 2 instructions: 670000003 cycles: 854877525 heartbeat IPC: 0.70459 cumulative IPC: 0.760015 (Simulation time: 4 hr 40 min 53 sec) 
Heartbeat CPU 4 instructions: 820000000 cycles: 855865558 heartbeat IPC: 0.895631 cumulative IPC: 0.934017 (Simulation time: 4 hr 41 min 11 sec) 
Heartbeat CPU 6 instructions: 770000002 cycles: 856656766 heartbeat IPC: 0.769736 cumulative IPC: 0.861232 (Simulation time: 4 hr 41 min 25 sec) 
Heartbeat CPU 4 instructions: 830000002 cycles: 866894170 heartbeat IPC: 0.906733 cumulative IPC: 0.933662 (Simulation time: 4 hr 44 min 23 sec) 
Heartbeat CPU 2 instructions: 680000000 cycles: 868802307 heartbeat IPC: 0.718144 cumulative IPC: 0.759327 (Simulation time: 4 hr 44 min 57 sec) 
Heartbeat CPU 6 instructions: 780000000 cycles: 868917126 heartbeat IPC: 0.815637 cumulative IPC: 0.860573 (Simulation time: 4 hr 44 min 59 sec) 
Heartbeat CPU 1 instructions: 470000002 cycles: 870466146 heartbeat IPC: 0.560126 cumulative IPC: 0.508559 (Simulation time: 4 hr 45 min 27 sec) 
Heartbeat CPU 4 instructions: 840000000 cycles: 877681492 heartbeat IPC: 0.927014 cumulative IPC: 0.933578 (Simulation time: 4 hr 47 min 33 sec) 
Heartbeat CPU 0 instructions: 130000000 cycles: 879989130 heartbeat IPC: 0.12186 cumulative IPC: 0.128065 (Simulation time: 4 hr 48 min 13 sec) 
Heartbeat CPU 1 instructions: 480000000 cycles: 880740798 heartbeat IPC: 0.973269 cumulative IPC: 0.514113 (Simulation time: 4 hr 48 min 26 sec) 
Heartbeat CPU 6 instructions: 790000001 cycles: 880782937 heartbeat IPC: 0.842757 cumulative IPC: 0.860327 (Simulation time: 4 hr 48 min 27 sec) 
Heartbeat CPU 2 instructions: 690000000 cycles: 882729457 heartbeat IPC: 0.718022 cumulative IPC: 0.75866 (Simulation time: 4 hr 49 min 1 sec) 
Heartbeat CPU 4 instructions: 850000001 cycles: 888455430 heartbeat IPC: 0.928166 cumulative IPC: 0.933511 (Simulation time: 4 hr 50 min 42 sec) 
Heartbeat CPU 1 instructions: 490000003 cycles: 891156724 heartbeat IPC: 0.960069 cumulative IPC: 0.519451 (Simulation time: 4 hr 51 min 29 sec) 
Heartbeat CPU 6 instructions: 800000000 cycles: 892837199 heartbeat IPC: 0.829582 cumulative IPC: 0.859902 (Simulation time: 4 hr 51 min 59 sec) 
Heartbeat CPU 2 instructions: 700000000 cycles: 896100594 heartbeat IPC: 0.74788 cumulative IPC: 0.758495 (Simulation time: 4 hr 52 min 57 sec) 
Heartbeat CPU 4 instructions: 860000000 cycles: 899173490 heartbeat IPC: 0.933005 cumulative IPC: 0.933505 (Simulation time: 4 hr 53 min 53 sec) 
Heartbeat CPU 6 instructions: 810000002 cycles: 904413800 heartbeat IPC: 0.863812 cumulative IPC: 0.859953 (Simulation time: 4 hr 55 min 23 sec) 
Heartbeat CPU 1 instructions: 500000000 cycles: 904883988 heartbeat IPC: 0.728477 cumulative IPC: 0.522698 (Simulation time: 4 hr 55 min 31 sec) 
Heartbeat CPU 2 instructions: 710000000 cycles: 909545984 heartbeat IPC: 0.743749 cumulative IPC: 0.758272 (Simulation time: 4 hr 56 min 48 sec) 
Heartbeat CPU 4 instructions: 870000001 cycles: 910074656 heartbeat IPC: 0.917333 cumulative IPC: 0.933306 (Simulation time: 4 hr 56 min 57 sec) 
Heartbeat CPU 6 instructions: 820000000 cycles: 916583413 heartbeat IPC: 0.821719 cumulative IPC: 0.859433 (Simulation time: 4 hr 58 min 45 sec) 
Heartbeat CPU 3 instructions: 280000000 cycles: 917101109 heartbeat IPC: 0.136269 cumulative IPC: 0.284481 (Simulation time: 4 hr 58 min 53 sec) 
Heartbeat CPU 4 instructions: 880000000 cycles: 921038832 heartbeat IPC: 0.912061 cumulative IPC: 0.933047 (Simulation time: 4 hr 59 min 58 sec) 
Heartbeat CPU 2 instructions: 720000000 cycles: 923238117 heartbeat IPC: 0.730346 cumulative IPC: 0.757848 (Simulation time: 5 hr 0 min 33 sec) 
Heartbeat CPU 6 instructions: 830000003 cycles: 928433666 heartbeat IPC: 0.843864 cumulative IPC: 0.85923 (Simulation time: 5 hr 1 min 58 sec) 
Heartbeat CPU 1 instructions: 510000001 cycles: 930061719 heartbeat IPC: 0.397176 cumulative IPC: 0.519221 (Simulation time: 5 hr 2 min 24 sec) 
Heartbeat CPU 4 instructions: 890000000 cycles: 931819953 heartbeat IPC: 0.927547 cumulative IPC: 0.932982 (Simulation time: 5 hr 2 min 53 sec) 
Heartbeat CPU 7 instructions: 150000001 cycles: 935955213 heartbeat IPC: 0.0887047 cumulative IPC: 0.12113 (Simulation time: 5 hr 4 min 4 sec) 
Heartbeat CPU 2 instructions: 730000003 cycles: 936820266 heartbeat IPC: 0.736261 cumulative IPC: 0.757528 (Simulation time: 5 hr 4 min 19 sec) 
Heartbeat CPU 6 instructions: 840000000 cycles: 939957720 heartbeat IPC: 0.86775 cumulative IPC: 0.859337 (Simulation time: 5 hr 5 min 13 sec) 
Heartbeat CPU 4 instructions: 900000000 cycles: 942531088 heartbeat IPC: 0.933608 cumulative IPC: 0.93299 (Simulation time: 5 hr 5 min 57 sec) 
Heartbeat CPU 2 instructions: 740000000 cycles: 949864143 heartbeat IPC: 0.766643 cumulative IPC: 0.757656 (Simulation time: 5 hr 8 min 5 sec) 
Heartbeat CPU 1 instructions: 520000000 cycles: 949941934 heartbeat IPC: 0.503013 cumulative IPC: 0.518874 (Simulation time: 5 hr 8 min 6 sec) 
Heartbeat CPU 6 instructions: 850000000 cycles: 951114963 heartbeat IPC: 0.896279 cumulative IPC: 0.85978 (Simulation time: 5 hr 8 min 27 sec) 
Heartbeat CPU 4 instructions: 910000000 cycles: 953134821 heartbeat IPC: 0.943064 cumulative IPC: 0.933104 (Simulation time: 5 hr 9 min 2 sec) 
Heartbeat CPU 0 instructions: 140000000 cycles: 959703710 heartbeat IPC: 0.125448 cumulative IPC: 0.127843 (Simulation time: 5 hr 10 min 54 sec) 
Heartbeat CPU 6 instructions: 860000000 cycles: 962285931 heartbeat IPC: 0.895178 cumulative IPC: 0.8602 (Simulation time: 5 hr 11 min 39 sec) 
Heartbeat CPU 2 instructions: 750000003 cycles: 962697524 heartbeat IPC: 0.779218 cumulative IPC: 0.75795 (Simulation time: 5 hr 11 min 46 sec) 
Heartbeat CPU 4 instructions: 920000000 cycles: 963800236 heartbeat IPC: 0.93761 cumulative IPC: 0.933155 (Simulation time: 5 hr 12 min 6 sec) 
Heartbeat CPU 1 instructions: 530000001 cycles: 968911911 heartbeat IPC: 0.527149 cumulative IPC: 0.51904 (Simulation time: 5 hr 13 min 36 sec) 
Heartbeat CPU 6 instructions: 870000001 cycles: 973496568 heartbeat IPC: 0.89201 cumulative IPC: 0.860575 (Simulation time: 5 hr 14 min 58 sec) 
Heartbeat CPU 4 instructions: 930000000 cycles: 974443723 heartbeat IPC: 0.939542 cumulative IPC: 0.933227 (Simulation time: 5 hr 15 min 15 sec) 
Heartbeat CPU 2 instructions: 760000000 cycles: 975889885 heartbeat IPC: 0.758014 cumulative IPC: 0.757951 (Simulation time: 5 hr 15 min 40 sec) 
Heartbeat CPU 5 instructions: 110000001 cycles: 976513285 heartbeat IPC: 0.0667486 cumulative IPC: 0.0697356 (Simulation time: 5 hr 15 min 51 sec) 
Heartbeat CPU 1 instructions: 540000000 cycles: 983583264 heartbeat IPC: 0.6816 cumulative IPC: 0.521517 (Simulation time: 5 hr 17 min 48 sec) 
Heartbeat CPU 4 instructions: 940000000 cycles: 985400506 heartbeat IPC: 0.912677 cumulative IPC: 0.932993 (Simulation time: 5 hr 18 min 20 sec) 
Heartbeat CPU 6 instructions: 880000000 cycles: 985583196 heartbeat IPC: 0.827361 cumulative IPC: 0.860158 (Simulation time: 5 hr 18 min 23 sec) 
Heartbeat CPU 2 instructions: 770000002 cycles: 989946853 heartbeat IPC: 0.711391 cumulative IPC: 0.757275 (Simulation time: 5 hr 19 min 40 sec) 
Heartbeat CPU 4 instructions: 950000000 cycles: 996235237 heartbeat IPC: 0.922958 cumulative IPC: 0.932882 (Simulation time: 5 hr 21 min 32 sec) 
Heartbeat CPU 6 instructions: 890000000 cycles: 997676120 heartbeat IPC: 0.82693 cumulative IPC: 0.859747 (Simulation time: 5 hr 21 min 56 sec) 
Heartbeat CPU 3 instructions: 290000000 cycles: 1000410501 heartbeat IPC: 0.120034 cumulative IPC: 0.270492 (Simulation time: 5 hr 22 min 43 sec) 
Heartbeat CPU 2 instructions: 780000000 cycles: 1003225747 heartbeat IPC: 0.753075 cumulative IPC: 0.757218 (Simulation time: 5 hr 23 min 31 sec) 
Heartbeat CPU 4 instructions: 960000000 cycles: 1007059080 heartbeat IPC: 0.923886 cumulative IPC: 0.932783 (Simulation time: 5 hr 24 min 37 sec) 
Heartbeat CPU 6 instructions: 900000000 cycles: 1009710196 heartbeat IPC: 0.830974 cumulative IPC: 0.859397 (Simulation time: 5 hr 25 min 24 sec) 
Heartbeat CPU 1 instructions: 550000003 cycles: 1011029784 heartbeat IPC: 0.364345 cumulative IPC: 0.51716 (Simulation time: 5 hr 25 min 49 sec) 
Heartbeat CPU 2 instructions: 790000001 cycles: 1016458740 heartbeat IPC: 0.755687 cumulative IPC: 0.757198 (Simulation time: 5 hr 27 min 31 sec) 
Heartbeat CPU 4 instructions: 970000001 cycles: 1017701483 heartbeat IPC: 0.939637 cumulative IPC: 0.932856 (Simulation time: 5 hr 27 min 53 sec) 
Heartbeat CPU 7 instructions: 160000000 cycles: 1019448857 heartbeat IPC: 0.11977 cumulative IPC: 0.121016 (Simulation time: 5 hr 28 min 25 sec) 
Heartbeat CPU 6 instructions: 910000002 cycles: 1021533838 heartbeat IPC: 0.845763 cumulative IPC: 0.859236 (Simulation time: 5 hr 29 min 3 sec) 
Heartbeat CPU 4 instructions: 980000000 cycles: 1028590206 heartbeat IPC: 0.918381 cumulative IPC: 0.9327 (Simulation time: 5 hr 31 min 10 sec) 
Heartbeat CPU 2 instructions: 800000000 cycles: 1029700848 heartbeat IPC: 0.755167 cumulative IPC: 0.757171 (Simulation time: 5 hr 31 min 29 sec) 
Heartbeat CPU 6 instructions: 920000000 cycles: 1033569574 heartbeat IPC: 0.830859 cumulative IPC: 0.858898 (Simulation time: 5 hr 32 min 37 sec) 
Heartbeat CPU 3 instructions: 300000000 cycles: 1034865985 heartbeat IPC: 0.29023 cumulative IPC: 0.271163 (Simulation time: 5 hr 32 min 59 sec) 
Heartbeat CPU 0 instructions: 150000001 cycles: 1036048067 heartbeat IPC: 0.130985 cumulative IPC: 0.128079 (Simulation time: 5 hr 33 min 20 sec) 
Heartbeat CPU 4 instructions: 990000003 cycles: 1039297939 heartbeat IPC: 0.933905 cumulative IPC: 0.932712 (Simulation time: 5 hr 34 min 18 sec) 
Heartbeat CPU 1 instructions: 560000000 cycles: 1039529409 heartbeat IPC: 0.350882 cumulative IPC: 0.512507 (Simulation time: 5 hr 34 min 22 sec) 
Heartbeat CPU 2 instructions: 810000000 cycles: 1042294321 heartbeat IPC: 0.794062 cumulative IPC: 0.757626 (Simulation time: 5 hr 35 min 14 sec) 
Heartbeat CPU 6 instructions: 930000003 cycles: 1044712331 heartbeat IPC: 0.897444 cumulative IPC: 0.859318 (Simulation time: 5 hr 36 min 1 sec) 
Heartbeat CPU 4 instructions: 1000000000 cycles: 1049898066 heartbeat IPC: 0.943385 cumulative IPC: 0.932822 (Simulation time: 5 hr 37 min 39 sec) 
Heartbeat CPU 2 instructions: 820000000 cycles: 1055067117 heartbeat IPC: 0.782914 cumulative IPC: 0.757939 (Simulation time: 5 hr 39 min 20 sec) 
Heartbeat CPU 6 instructions: 940000000 cycles: 1056022579 heartbeat IPC: 0.884154 cumulative IPC: 0.859589 (Simulation time: 5 hr 39 min 38 sec) 
Heartbeat CPU 1 instructions: 570000001 cycles: 1057874182 heartbeat IPC: 0.545114 cumulative IPC: 0.513084 (Simulation time: 5 hr 40 min 14 sec) 
Heartbeat CPU 4 instructions: 1010000002 cycles: 1060426250 heartbeat IPC: 0.949832 cumulative IPC: 0.932994 (Simulation time: 5 hr 41 min 3 sec) 
Heartbeat CPU 6 instructions: 950000000 cycles: 1067087336 heartbeat IPC: 0.90377 cumulative IPC: 0.860057 (Simulation time: 5 hr 43 min 15 sec) 
Heartbeat CPU 2 instructions: 830000000 cycles: 1067931854 heartbeat IPC: 0.777319 cumulative IPC: 0.758177 (Simulation time: 5 hr 43 min 32 sec) 
Heartbeat CPU 3 instructions: 310000002 cycles: 1069560582 heartbeat IPC: 0.288229 cumulative IPC: 0.271727 (Simulation time: 5 hr 44 min 4 sec) 
Heartbeat CPU 4 instructions: 1020000000 cycles: 1070843178 heartbeat IPC: 0.959976 cumulative IPC: 0.933262 (Simulation time: 5 hr 44 min 30 sec) 
Heartbeat CPU 1 instructions: 580000000 cycles: 1075407764 heartbeat IPC: 0.570334 cumulative IPC: 0.514036 (Simulation time: 5 hr 46 min 1 sec) 
Heartbeat CPU 6 instructions: 960000000 cycles: 1077890273 heartbeat IPC: 0.925674 cumulative IPC: 0.860727 (Simulation time: 5 hr 46 min 49 sec) 
Heartbeat CPU 4 instructions: 1030000003 cycles: 1081334326 heartbeat IPC: 0.953185 cumulative IPC: 0.933459 (Simulation time: 5 hr 47 min 58 sec) 
Heartbeat CPU 2 instructions: 840000000 cycles: 1081444377 heartbeat IPC: 0.740054 cumulative IPC: 0.757946 (Simulation time: 5 hr 48 min 0 sec) 
Heartbeat CPU 6 instructions: 970000001 cycles: 1088757776 heartbeat IPC: 0.920175 cumulative IPC: 0.861332 (Simulation time: 5 hr 50 min 27 sec) 
Heartbeat CPU 7 instructions: 170000002 cycles: 1089927022 heartbeat IPC: 0.141888 cumulative IPC: 0.122392 (Simulation time: 5 hr 50 min 50 sec) 
Heartbeat CPU 4 instructions: 1040000000 cycles: 1091695886 heartbeat IPC: 0.965105 cumulative IPC: 0.933766 (Simulation time: 5 hr 51 min 26 sec) 
Heartbeat CPU 1 instructions: 590000001 cycles: 1091954334 heartbeat IPC: 0.604355 cumulative IPC: 0.515432 (Simulation time: 5 hr 51 min 31 sec) 
Heartbeat CPU 2 instructions: 850000003 cycles: 1094178309 heartbeat IPC: 0.785304 cumulative IPC: 0.75827 (Simulation time: 5 hr 52 min 14 sec) 
Heartbeat CPU 6 instructions: 980000000 cycles: 1099971681 heartbeat IPC: 0.89175 cumulative IPC: 0.861649 (Simulation time: 5 hr 54 min 7 sec) 
Heartbeat CPU 4 instructions: 1050000001 cycles: 1102234738 heartbeat IPC: 0.94887 cumulative IPC: 0.933913 (Simulation time: 5 hr 54 min 50 sec) 
Heartbeat CPU 3 instructions: 320000000 cycles: 1103908445 heartbeat IPC: 0.291139 cumulative IPC: 0.272343 (Simulation time: 5 hr 55 min 22 sec) 
Heartbeat CPU 2 instructions: 860000000 cycles: 1106963369 heartbeat IPC: 0.782163 cumulative IPC: 0.758552 (Simulation time: 5 hr 56 min 19 sec) 
Heartbeat CPU 0 instructions: 160000000 cycles: 1108776593 heartbeat IPC: 0.137498 cumulative IPC: 0.128709 (Simulation time: 5 hr 56 min 53 sec) 
Heartbeat CPU 6 instructions: 990000002 cycles: 1110874219 heartbeat IPC: 0.917218 cumulative IPC: 0.862205 (Simulation time: 5 hr 57 min 32 sec) 
Heartbeat CPU 1 instructions: 600000000 cycles: 1112363753 heartbeat IPC: 0.48997 cumulative IPC: 0.514955 (Simulation time: 5 hr 58 min 1 sec) 
Heartbeat CPU 4 instructions: 1060000000 cycles: 1112725303 heartbeat IPC: 0.953237 cumulative IPC: 0.934099 (Simulation time: 5 hr 58 min 8 sec) 
Heartbeat CPU 5 instructions: 120000000 cycles: 1115698712 heartbeat IPC: 0.0718466 cumulative IPC: 0.070004 (Simulation time: 5 hr 59 min 7 sec) 
Heartbeat CPU 2 instructions: 870000000 cycles: 1119728640 heartbeat IPC: 0.783375 cumulative IPC: 0.75884 (Simulation time: 6 hr 0 min 25 sec) 
Heartbeat CPU 6 instructions: 1000000000 cycles: 1121598956 heartbeat IPC: 0.932424 cumulative IPC: 0.862889 (Simulation time: 6 hr 1 min 2 sec) 
Heartbeat CPU 4 instructions: 1070000002 cycles: 1123087151 heartbeat IPC: 0.965079 cumulative IPC: 0.93439 (Simulation time: 6 hr 1 min 31 sec) 
Heartbeat CPU 1 instructions: 610000000 cycles: 1126695052 heartbeat IPC: 0.697773 cumulative IPC: 0.517325 (Simulation time: 6 hr 2 min 42 sec) 
Heartbeat CPU 6 instructions: 1010000002 cycles: 1131990787 heartbeat IPC: 0.962295 cumulative IPC: 0.863819 (Simulation time: 6 hr 4 min 19 sec) 
Heartbeat CPU 2 instructions: 880000000 cycles: 1132442618 heartbeat IPC: 0.786536 cumulative IPC: 0.759157 (Simulation time: 6 hr 4 min 27 sec) 
Heartbeat CPU 4 instructions: 1080000000 cycles: 1133466449 heartbeat IPC: 0.963456 cumulative IPC: 0.934661 (Simulation time: 6 hr 4 min 45 sec) 
Heartbeat CPU 3 instructions: 330000000 cycles: 1138926790 heartbeat IPC: 0.285565 cumulative IPC: 0.272757 (Simulation time: 6 hr 6 min 26 sec) 
Heartbeat CPU 6 instructions: 1020000000 cycles: 1142878750 heartbeat IPC: 0.918445 cumulative IPC: 0.864349 (Simulation time: 6 hr 7 min 38 sec) 
Heartbeat CPU 4 instructions: 1090000002 cycles: 1144041014 heartbeat IPC: 0.945666 cumulative IPC: 0.934765 (Simulation time: 6 hr 7 min 58 sec) 
Heartbeat CPU 2 instructions: 890000002 cycles: 1145041247 heartbeat IPC: 0.793737 cumulative IPC: 0.759545 (Simulation time: 6 hr 8 min 15 sec) 
Heartbeat CPU 7 instructions: 180000000 cycles: 1150587526 heartbeat IPC: 0.164852 cumulative IPC: 0.124673 (Simulation time: 6 hr 9 min 58 sec) 
Heartbeat CPU 1 instructions: 620000000 cycles: 1154688465 heartbeat IPC: 0.357227 cumulative IPC: 0.513372 (Simulation time: 6 hr 11 min 14 sec) 
Heartbeat CPU 4 instructions: 1100000000 cycles: 1154730567 heartbeat IPC: 0.935493 cumulative IPC: 0.934772 (Simulation time: 6 hr 11 min 15 sec) 
Heartbeat CPU 6 instructions: 1030000003 cycles: 1154748410 heartbeat IPC: 0.842484 cumulative IPC: 0.86412 (Simulation time: 6 hr 11 min 15 sec) 
Heartbeat CPU 2 instructions: 900000000 cycles: 1157823506 heartbeat IPC: 0.782334 cumulative IPC: 0.759801 (Simulation time: 6 hr 12 min 11 sec) 
Heartbeat CPU 4 instructions: 1110000003 cycles: 1165612723 heartbeat IPC: 0.918936 cumulative IPC: 0.934621 (Simulation time: 6 hr 14 min 32 sec) 
Heartbeat CPU 6 instructions: 1040000000 cycles: 1167031786 heartbeat IPC: 0.814108 cumulative IPC: 0.863584 (Simulation time: 6 hr 14 min 58 sec) 
Heartbeat CPU 2 instructions: 910000001 cycles: 1171500764 heartbeat IPC: 0.731141 cumulative IPC: 0.75946 (Simulation time: 6 hr 16 min 21 sec) 
Heartbeat CPU 3 instructions: 340000000 cycles: 1173101435 heartbeat IPC: 0.292615 cumulative IPC: 0.273346 (Simulation time: 6 hr 16 min 50 sec) 
Heartbeat CPU 1 instructions: 630000000 cycles: 1173578439 heartbeat IPC: 0.529381 cumulative IPC: 0.513634 (Simulation time: 6 hr 16 min 59 sec) 
Heartbeat CPU 4 instructions: 1120000000 cycles: 1176479104 heartbeat IPC: 0.920269 cumulative IPC: 0.934486 (Simulation time: 6 hr 17 min 52 sec) 
Heartbeat CPU 6 instructions: 1050000001 cycles: 1179316266 heartbeat IPC: 0.814035 cumulative IPC: 0.863058 (Simulation time: 6 hr 18 min 45 sec) 
Heartbeat CPU 0 instructions: 170000001 cycles: 1180099576 heartbeat IPC: 0.140207 cumulative IPC: 0.129417 (Simulation time: 6 hr 18 min 59 sec) 
Heartbeat CPU 2 instructions: 920000000 cycles: 1184938468 heartbeat IPC: 0.744175 cumulative IPC: 0.759284 (Simulation time: 6 hr 20 min 28 sec) 
Heartbeat CPU 4 instructions: 1130000002 cycles: 1187264554 heartbeat IPC: 0.927175 cumulative IPC: 0.934418 (Simulation time: 6 hr 21 min 11 sec) 
Heartbeat CPU 6 instructions: 1060000000 cycles: 1191266105 heartbeat IPC: 0.836831 cumulative IPC: 0.862791 (Simulation time: 6 hr 22 min 20 sec) 
Heartbeat CPU 1 instructions: 640000000 cycles: 1197485449 heartbeat IPC: 0.418287 cumulative IPC: 0.511696 (Simulation time: 6 hr 24 min 8 sec) 
Heartbeat CPU 4 instructions: 1140000000 cycles: 1197895744 heartbeat IPC: 0.940628 cumulative IPC: 0.934474 (Simulation time: 6 hr 24 min 15 sec) 
Heartbeat CPU 2 instructions: 930000003 cycles: 1198015260 heartbeat IPC: 0.764714 cumulative IPC: 0.759344 (Simulation time: 6 hr 24 min 17 sec) 
Heartbeat CPU 6 instructions: 1070000001 cycles: 1203121511 heartbeat IPC: 0.843497 cumulative IPC: 0.862597 (Simulation time: 6 hr 25 min 45 sec) 
Heartbeat CPU 3 instructions: 350000003 cycles: 1208215337 heartbeat IPC: 0.284788 cumulative IPC: 0.273685 (Simulation time: 6 hr 27 min 16 sec) 
Heartbeat CPU 4 instructions: 1150000003 cycles: 1208653057 heartbeat IPC: 0.9296 cumulative IPC: 0.93443 (Simulation time: 6 hr 27 min 24 sec) 
Heartbeat CPU 2 instructions: 940000000 cycles: 1210987331 heartbeat IPC: 0.770887 cumulative IPC: 0.75947 (Simulation time: 6 hr 28 min 8 sec) 
Heartbeat CPU 6 instructions: 1080000000 cycles: 1214366644 heartbeat IPC: 0.889274 cumulative IPC: 0.862848 (Simulation time: 6 hr 29 min 10 sec) 
Heartbeat CPU 4 instructions: 1160000000 cycles: 1219130455 heartbeat IPC: 0.954435 cumulative IPC: 0.934605 (Simulation time: 6 hr 30 min 37 sec) 
Heartbeat CPU 2 instructions: 950000002 cycles: 1223441936 heartbeat IPC: 0.802916 cumulative IPC: 0.75992 (Simulation time: 6 hr 31 min 58 sec) 
Heartbeat CPU 6 instructions: 1090000000 cycles: 1224959100 heartbeat IPC: 0.944068 cumulative IPC: 0.863563 (Simulation time: 6 hr 32 min 27 sec) 
Heartbeat CPU 1 instructions: 650000002 cycles: 1226631562 heartbeat IPC: 0.343099 cumulative IPC: 0.50762 (Simulation time: 6 hr 32 min 59 sec) 
Heartbeat CPU 4 instructions: 1170000001 cycles: 1229633394 heartbeat IPC: 0.952115 cumulative IPC: 0.934757 (Simulation time: 6 hr 33 min 56 sec) 
Heartbeat CPU 6 instructions: 1100000000 cycles: 1236138782 heartbeat IPC: 0.89448 cumulative IPC: 0.863847 (Simulation time: 6 hr 36 min 3 sec) 
Heartbeat CPU 2 instructions: 960000000 cycles: 1236352018 heartbeat IPC: 0.774588 cumulative IPC: 0.760076 (Simulation time: 6 hr 36 min 7 sec) 
Heartbeat CPU 7 instructions: 190000001 cycles: 1236774101 heartbeat IPC: 0.116027 cumulative IPC: 0.12406 (Simulation time: 6 hr 36 min 15 sec) 
Heartbeat CPU 4 instructions: 1180000000 cycles: 1240446309 heartbeat IPC: 0.92482 cumulative IPC: 0.934669 (Simulation time: 6 hr 37 min 27 sec) 
Heartbeat CPU 1 instructions: 660000000 cycles: 1243621909 heartbeat IPC: 0.588569 cumulative IPC: 0.508745 (Simulation time: 6 hr 38 min 28 sec) 
Heartbeat CPU 3 instructions: 360000000 cycles: 1243909245 heartbeat IPC: 0.28016 cumulative IPC: 0.273874 (Simulation time: 6 hr 38 min 33 sec) 
Heartbeat CPU 6 instructions: 1110000000 cycles: 1248537082 heartbeat IPC: 0.806562 cumulative IPC: 0.863269 (Simulation time: 6 hr 39 min 59 sec) 
Heartbeat CPU 2 instructions: 970000001 cycles: 1250002736 heartbeat IPC: 0.732562 cumulative IPC: 0.75977 (Simulation time: 6 hr 40 min 26 sec) 
Heartbeat CPU 4 instructions: 1190000002 cycles: 1251513032 heartbeat IPC: 0.90361 cumulative IPC: 0.93439 (Simulation time: 6 hr 40 min 54 sec) 
Heartbeat CPU 0 instructions: 180000000 cycles: 1252112788 heartbeat IPC: 0.138863 cumulative IPC: 0.129969 (Simulation time: 6 hr 41 min 5 sec) 
Heartbeat CPU 1 instructions: 670000002 cycles: 1260076570 heartbeat IPC: 0.607731 cumulative IPC: 0.51006 (Simulation time: 6 hr 43 min 33 sec) 
Heartbeat CPU 5 instructions: 130000000 cycles: 1260231161 heartbeat IPC: 0.0691886 cumulative IPC: 0.0699089 (Simulation time: 6 hr 43 min 36 sec) 
Heartbeat CPU 6 instructions: 1120000000 cycles: 1261719730 heartbeat IPC: 0.758573 cumulative IPC: 0.862156 (Simulation time: 6 hr 44 min 4 sec) 
Heartbeat CPU 4 instructions: 1200000000 cycles: 1262737609 heartbeat IPC: 0.890902 cumulative IPC: 0.933997 (Simulation time: 6 hr 44 min 23 sec) 
Heartbeat CPU 2 instructions: 980000000 cycles: 1263616898 heartbeat IPC: 0.734529 cumulative IPC: 0.759493 (Simulation time: 6 hr 44 min 39 sec) 
Heartbeat CPU 4 instructions: 1210000002 cycles: 1273663115 heartbeat IPC: 0.91529 cumulative IPC: 0.933834 (Simulation time: 6 hr 47 min 37 sec) 
Heartbeat CPU 6 instructions: 1130000001 cycles: 1274089174 heartbeat IPC: 0.808444 cumulative IPC: 0.861626 (Simulation time: 6 hr 47 min 45 sec) 
Heartbeat CPU 2 instructions: 990000003 cycles: 1277247698 heartbeat IPC: 0.733633 cumulative IPC: 0.759213 (Simulation time: 6 hr 48 min 43 sec) 
Heartbeat CPU 1 instructions: 680000000 cycles: 1277381800 heartbeat IPC: 0.57786 cumulative IPC: 0.510994 (Simulation time: 6 hr 48 min 45 sec) 
Heartbeat CPU 3 instructions: 370000000 cycles: 1278910924 heartbeat IPC: 0.285701 cumulative IPC: 0.274203 (Simulation time: 6 hr 49 min 14 sec) 
Heartbeat CPU 4 instructions: 1220000000 cycles: 1284424137 heartbeat IPC: 0.92928 cumulative IPC: 0.933795 (Simulation time: 6 hr 51 min 2 sec) 
Heartbeat CPU 6 instructions: 1140000000 cycles: 1285748112 heartbeat IPC: 0.857711 cumulative IPC: 0.86159 (Simulation time: 6 hr 51 min 29 sec) 
Heartbeat CPU 1 instructions: 690000001 cycles: 1287338363 heartbeat IPC: 1.00436 cumulative IPC: 0.514873 (Simulation time: 6 hr 52 min 2 sec) 
Heartbeat CPU 2 instructions: 1000000000 cycles: 1289871653 heartbeat IPC: 0.792145 cumulative IPC: 0.75954 (Simulation time: 6 hr 52 min 55 sec) 
Heartbeat CPU 4 instructions: 1230000001 cycles: 1294685953 heartbeat IPC: 0.974486 cumulative IPC: 0.934123 (Simulation time: 6 hr 54 min 35 sec) 
Heartbeat CPU 6 instructions: 1150000001 cycles: 1296140644 heartbeat IPC: 0.962229 cumulative IPC: 0.86241 (Simulation time: 6 hr 55 min 5 sec) 
Heartbeat CPU 1 instructions: 700000000 cycles: 1296795839 heartbeat IPC: 1.05736 cumulative IPC: 0.518895 (Simulation time: 6 hr 55 min 19 sec) 
Heartbeat CPU 2 instructions: 1010000002 cycles: 1301986037 heartbeat IPC: 0.825465 cumulative IPC: 0.760164 (Simulation time: 6 hr 57 min 7 sec) 
Heartbeat CPU 4 instructions: 1240000000 cycles: 1305015528 heartbeat IPC: 0.968094 cumulative IPC: 0.934396 (Simulation time: 6 hr 58 min 4 sec) 
Heartbeat CPU 6 instructions: 1160000000 cycles: 1306800567 heartbeat IPC: 0.938093 cumulative IPC: 0.863038 (Simulation time: 6 hr 58 min 36 sec) 
Heartbeat CPU 1 instructions: 710000000 cycles: 1311698392 heartbeat IPC: 0.671026 cumulative IPC: 0.520651 (Simulation time: 7 hr 0 min 6 sec) 
Heartbeat CPU 3 instructions: 380000000 cycles: 1313417569 heartbeat IPC: 0.289799 cumulative IPC: 0.274619 (Simulation time: 7 hr 0 min 38 sec) 
Heartbeat CPU 2 instructions: 1020000000 cycles: 1315514903 heartbeat IPC: 0.73916 cumulative IPC: 0.759944 (Simulation time: 7 hr 1 min 16 sec) 
Heartbeat CPU 4 instructions: 1250000000 cycles: 1315780037 heartbeat IPC: 0.928979 cumulative IPC: 0.934351 (Simulation time: 7 hr 1 min 21 sec) 
Heartbeat CPU 7 instructions: 200000000 cycles: 1317732670 heartbeat IPC: 0.12352 cumulative IPC: 0.124026 (Simulation time: 7 hr 1 min 56 sec) 
Heartbeat CPU 6 instructions: 1170000000 cycles: 1318494622 heartbeat IPC: 0.855135 cumulative IPC: 0.862967 (Simulation time: 7 hr 2 min 10 sec) 
Heartbeat CPU 0 instructions: 190000000 cycles: 1324481313 heartbeat IPC: 0.138182 cumulative IPC: 0.130425 (Simulation time: 7 hr 3 min 59 sec) 
Heartbeat CPU 4 instructions: 1260000000 cycles: 1326548290 heartbeat IPC: 0.928656 cumulative IPC: 0.934304 (Simulation time: 7 hr 4 min 35 sec) 
Heartbeat CPU 2 instructions: 1030000002 cycles: 1328929409 heartbeat IPC: 0.745462 cumulative IPC: 0.759796 (Simulation time: 7 hr 5 min 17 sec) 
Heartbeat CPU 6 instructions: 1180000000 cycles: 1330093108 heartbeat IPC: 0.862181 cumulative IPC: 0.86296 (Simulation time: 7 hr 5 min 38 sec) 
Heartbeat CPU 1 instructions: 720000000 cycles: 1335391748 heartbeat IPC: 0.422059 cumulative IPC: 0.518874 (Simulation time: 7 hr 7 min 18 sec) 
Heartbeat CPU 4 instructions: 1270000000 cycles: 1337189097 heartbeat IPC: 0.939778 cumulative IPC: 0.934348 (Simulation time: 7 hr 7 min 53 sec) 
Heartbeat CPU 6 instructions: 1190000001 cycles: 1341211870 heartbeat IPC: 0.899381 cumulative IPC: 0.863266 (Simulation time: 7 hr 9 min 8 sec) 
Heartbeat CPU 2 instructions: 1040000000 cycles: 1341557355 heartbeat IPC: 0.791894 cumulative IPC: 0.760103 (Simulation time: 7 hr 9 min 15 sec) 
Heartbeat CPU 4 instructions: 1280000000 cycles: 1347844463 heartbeat IPC: 0.938494 cumulative IPC: 0.934382 (Simulation time: 7 hr 11 min 12 sec) 
Heartbeat CPU 3 instructions: 390000001 cycles: 1348158287 heartbeat IPC: 0.287847 cumulative IPC: 0.274966 (Simulation time: 7 hr 11 min 18 sec) 
Heartbeat CPU 6 instructions: 1200000000 cycles: 1352511801 heartbeat IPC: 0.884961 cumulative IPC: 0.863451 (Simulation time: 7 hr 12 min 35 sec) 
Heartbeat CPU 2 instructions: 1050000001 cycles: 1354281593 heartbeat IPC: 0.785902 cumulative IPC: 0.760349 (Simulation time: 7 hr 13 min 5 sec) 
Heartbeat CPU 1 instructions: 730000003 cycles: 1355805048 heartbeat IPC: 0.489877 cumulative IPC: 0.518431 (Simulation time: 7 hr 13 min 32 sec) 
Heartbeat CPU 4 instructions: 1290000003 cycles: 1358608877 heartbeat IPC: 0.928987 cumulative IPC: 0.934338 (Simulation time: 7 hr 14 min 20 sec) 
Heartbeat CPU 6 instructions: 1210000002 cycles: 1364567401 heartbeat IPC: 0.82949 cumulative IPC: 0.863146 (Simulation time: 7 hr 16 min 4 sec) 
Heartbeat CPU 2 instructions: 1060000000 cycles: 1367356353 heartbeat IPC: 0.764832 cumulative IPC: 0.760393 (Simulation time: 7 hr 16 min 57 sec) 
Heartbeat CPU 4 instructions: 1300000000 cycles: 1369315533 heartbeat IPC: 0.933998 cumulative IPC: 0.934335 (Simulation time: 7 hr 17 min 35 sec) 
Heartbeat CPU 1 instructions: 740000000 cycles: 1373713913 heartbeat IPC: 0.558383 cumulative IPC: 0.51896 (Simulation time: 7 hr 19 min 1 sec) 
Heartbeat CPU 6 instructions: 1220000000 cycles: 1375562826 heartbeat IPC: 0.909469 cumulative IPC: 0.863522 (Simulation time: 7 hr 19 min 37 sec) 
Heartbeat CPU 4 instructions: 1310000001 cycles: 1379801784 heartbeat IPC: 0.95363 cumulative IPC: 0.934484 (Simulation time: 7 hr 20 min 57 sec) 
Heartbeat CPU 2 instructions: 1070000003 cycles: 1380089084 heartbeat IPC: 0.785378 cumulative IPC: 0.760627 (Simulation time: 7 hr 21 min 2 sec) 
Heartbeat CPU 3 instructions: 400000000 cycles: 1383646791 heartbeat IPC: 0.281781 cumulative IPC: 0.275143 (Simulation time: 7 hr 22 min 6 sec) 
Heartbeat CPU 6 instructions: 1230000001 cycles: 1387653267 heartbeat IPC: 0.8271 cumulative IPC: 0.8632 (Simulation time: 7 hr 23 min 18 sec) 
Heartbeat CPU 1 instructions: 750000002 cycles: 1388819103 heartbeat IPC: 0.662024 cumulative IPC: 0.52054 (Simulation time: 7 hr 23 min 39 sec) 
[...]
LLC RFO       ACCESS:       2212  HIT:        321  MISS:       1891
LLC PREFETCH  ACCESS:    7094515  HIT:     214722  MISS:    6879793
LLC WRITEBACK ACCESS:      11207  HIT:      11146  MISS:         61

CPU 6 cumulative IPC: 0.861272 instructions: 1232732128 cycles: 1431292286
L1D TOTAL     ACCESS:  348728097  HIT:  327976491  MISS:   20751606
L1D LOAD      ACCESS:  288111980  HIT:  267360374  MISS:   20751606
L1D RFO       ACCESS:   60616117  HIT:   60616117  MISS:          0
L1D PREFETCH  ACCESS:          0  HIT:          0  MISS:          0
L1D WRITEBACK ACCESS:          0  HIT:          0  MISS:          0
L1I TOTAL     ACCESS:  262057075  HIT:  262057075  MISS:          0
L1I LOAD      ACCESS:  262057075  HIT:  262057075  MISS:          0
L1I RFO       ACCESS:          0  HIT:          0  MISS:          0
L1I PREFETCH  ACCESS:          0  HIT:          0  MISS:          0
L1I WRITEBACK ACCESS:          0  HIT:          0  MISS:          0
L2C TOTAL     ACCESS:   56672623  HIT:   35219046  MISS:   21453577
L2C LOAD      ACCESS:   20751606  HIT:   18626438  MISS:    2125168
L2C RFO       ACCESS:          0  HIT:          0  MISS:          0
L2C PREFETCH  ACCESS:   29484459  HIT:   10157815  MISS:   19326644
L2C WRITEBACK ACCESS:    6436558  HIT:    6434793  MISS:       1765

Avg Lookahead Depth:	2.50416
TOTAL: 3.2983e+08	L2C: 2.44428e+08	LLC: 8.54015e+07	GOOD_L2C: 1.31805e+08
Printing all the perceptron weights to: perc_weights_0.csv
LLC TOTAL     ACCESS:   31915563  HIT:   10461669  MISS:   21453894
LLC LOAD      ACCESS:     993539  HIT:     101769  MISS:     891770
LLC RFO       ACCESS:          0  HIT:          0  MISS:          0
LLC PREFETCH  ACCESS:   24519150  HIT:    3957732  MISS:   20561418
LLC WRITEBACK ACCESS:    6402874  HIT:    6402168  MISS:        706

CPU 7 cumulative IPC: 0.122547 instructions: 175401122 cycles: 1431292286
L1D TOTAL     ACCESS:   70151219  HIT:   42880166  MISS:   27271053
L1D LOAD      ACCESS:   59439150  HIT:   32568962  MISS:   26870188
L1D RFO       ACCESS:   10712069  HIT:   10311204  MISS:     400865
L1D PREFETCH  ACCESS:          0  HIT:          0  MISS:          0
L1D WRITEBACK ACCESS:          0  HIT:          0  MISS:          0
L1I TOTAL     ACCESS:   61275569  HIT:   61275569  MISS:          0
L1I LOAD      ACCESS:   61275569  HIT:   61275569  MISS:          0
L1I RFO       ACCESS:          0  HIT:          0  MISS:          0
L1I PREFETCH  ACCESS:          0  HIT:          0  MISS:          0
L1I WRITEBACK ACCESS:          0  HIT:          0  MISS:          0
L2C TOTAL     ACCESS:   50980685  HIT:   17541481  MISS:   33439204
L2C LOAD      ACCESS:   26870182  HIT:   11359051  MISS:   15511131
L2C RFO       ACCESS:     400865  HIT:      13754  MISS:     387111
L2C PREFETCH  ACCESS:   23192751  HIT:    5653255  MISS:   17539496
L2C WRITEBACK ACCESS:     516887  HIT:     515421  MISS:       1466

Avg Lookahead Depth:	2.50416
TOTAL: 3.2983e+08	L2C: 2.44428e+08	LLC: 8.54015e+07	GOOD_L2C: 1.31805e+08
Printing all the perceptron weights to: perc_weights_0.csv
LLC TOTAL     ACCESS:   38718700  HIT:   27325612  MISS:   11393088
LLC LOAD      ACCESS:    7695188  HIT:    5630299  MISS:    2064889
LLC RFO       ACCESS:     385666  HIT:       3001  MISS:     382665
LLC PREFETCH  ACCESS:   30123442  HIT:   21178384  MISS:    8945058
LLC WRITEBACK ACCESS:     514404  HIT:     513928  MISS:        476

Region of Interest Statistics

CPU 0 cumulative IPC: 0.128721 instructions: 100000000 cycles: 776874167
L1D TOTAL     ACCESS:   53374547  HIT:   44351728  MISS:    9022819
L1D LOAD      ACCESS:   33675300  HIT:   29025914  MISS:    4649386
L1D RFO       ACCESS:   19699247  HIT:   15325814  MISS:    4373433
L1D PREFETCH  ACCESS:          0  HIT:          0  MISS:          0
L1D WRITEBACK ACCESS:          0  HIT:          0  MISS:          0
L1D PREFETCH  REQUESTED:          0  ISSUED:          0  USEFUL:          0  USELESS:          0
L1I TOTAL     ACCESS:   24095224  HIT:   24095224  MISS:          0
L1I LOAD      ACCESS:   24095224  HIT:   24095224  MISS:          0
L1I RFO       ACCESS:          0  HIT:          0  MISS:          0
L1I PREFETCH  ACCESS:          0  HIT:          0  MISS:          0
L1I WRITEBACK ACCESS:          0  HIT:          0  MISS:          0
L1I PREFETCH  REQUESTED:          0  ISSUED:          0  USEFUL:          0  USELESS:          0
L2C TOTAL     ACCESS:   20688191  HIT:   11602996  MISS:    9085195
L2C LOAD      ACCESS:    4649334  HIT:    1963707  MISS:    2685627
L2C RFO       ACCESS:    4373433  HIT:          7  MISS:    4373426
L2C PREFETCH  ACCESS:    2642605  HIT:     621156  MISS:    2021449
L2C WRITEBACK ACCESS:    9022819  HIT:    9018126  MISS:       4693
L2C PREFETCH  REQUESTED:    9909544  ISSUED:    9909544  USEFUL:    3721836  USELESS:     749097
LLC TOTAL     ACCESS:   18685492  HIT:   10881496  MISS:    7803996
LLC LOAD      ACCESS:    1995092  HIT:    1436490  MISS:     558602
LLC RFO       ACCESS:    4373426  HIT:      14449  MISS:    4358977
LLC PREFETCH  ACCESS:    3552387  HIT:     666253  MISS:    2886134
LLC WRITEBACK ACCESS:    8764587  HIT:    8764304  MISS:        283
LLC PREFETCH  REQUESTED:          0  ISSUED:          0  USEFUL:    3178129  USELESS:   80239079
Major fault: 0 Minor fault: 301207

CPU 1 cumulative IPC: 0.548748 instructions: 100000000 cycles: 182233063
L1D TOTAL     ACCESS:   20775881  HIT:   17663523  MISS:    3112358
L1D LOAD      ACCESS:   19020507  HIT:   16648351  MISS:    2372156
L1D RFO       ACCESS:    1755374  HIT:    1015172  MISS:     740202
L1D PREFETCH  ACCESS:          0  HIT:          0  MISS:          0
L1D WRITEBACK ACCESS:          0  HIT:          0  MISS:          0
L1D PREFETCH  REQUESTED:          0  ISSUED:          0  USEFUL:          0  USELESS:          0
L1I TOTAL     ACCESS:   23000452  HIT:   23000172  MISS:        280
L1I LOAD      ACCESS:   23000452  HIT:   23000172  MISS:        280
L1I RFO       ACCESS:          0  HIT:          0  MISS:          0
L1I PREFETCH  ACCESS:          0  HIT:          0  MISS:          0
L1I WRITEBACK ACCESS:          0  HIT:          0  MISS:          0
L1I PREFETCH  REQUESTED:          0  ISSUED:          0  USEFUL:          0  USELESS:          0
L2C TOTAL     ACCESS:    6695712  HIT:    4239465  MISS:    2456247
L2C LOAD      ACCESS:    2372411  HIT:    1977192  MISS:     395219
L2C RFO       ACCESS:     740202  HIT:         12  MISS:     740190
L2C PREFETCH  ACCESS:    2768834  HIT:    1448075  MISS:    1320759
L2C WRITEBACK ACCESS:     814265  HIT:     814186  MISS:         79
L2C PREFETCH  REQUESTED:   31826990  ISSUED:   31676934  USEFUL:   12045128  USELESS:     681448
LLC TOTAL     ACCESS:    3386489  HIT:     920185  MISS:    2466304
LLC LOAD      ACCESS:      82241  HIT:       3607  MISS:      78634
LLC RFO       ACCESS:     740184  HIT:         22  MISS:     740162
LLC PREFETCH  ACCESS:    1756589  HIT:     109128  MISS:    1647461
LLC WRITEBACK ACCESS:     807475  HIT:     807428  MISS:         47
LLC PREFETCH  REQUESTED:          0  ISSUED:          0  USEFUL:    3178129  USELESS:   80239079
Major fault: 0 Minor fault: 83422

CPU 2 cumulative IPC: 0.759563 instructions: 100000001 cycles: 131654667
L1D TOTAL     ACCESS:   40083964  HIT:   32066561  MISS:    8017403
L1D LOAD      ACCESS:   32078765  HIT:   24717712  MISS:    7361053
L1D RFO       ACCESS:    8005199  HIT:    7348849  MISS:     656350
L1D PREFETCH  ACCESS:          0  HIT:          0  MISS:          0
L1D WRITEBACK ACCESS:          0  HIT:          0  MISS:          0
L1D PREFETCH  REQUESTED:          0  ISSUED:          0  USEFUL:          0  USELESS:          0
L1I TOTAL     ACCESS:   23812116  HIT:   21212902  MISS:    2599214
L1I LOAD      ACCESS:   23812116  HIT:   21212902  MISS:    2599214
L1I RFO       ACCESS:          0  HIT:          0  MISS:          0
L1I PREFETCH  ACCESS:          0  HIT:          0  MISS:          0
L1I WRITEBACK ACCESS:          0  HIT:          0  MISS:          0
L1I PREFETCH  REQUESTED:          0  ISSUED:          0  USEFUL:          0  USELESS:          0
L2C TOTAL     ACCESS:   21301306  HIT:   19952596  MISS:    1348710
L2C LOAD      ACCESS:    9959810  HIT:    9480267  MISS:     479543
L2C RFO       ACCESS:     655816  HIT:     536285  MISS:     119531
L2C PREFETCH  ACCESS:    9948904  HIT:    9201266  MISS:     747638
L2C WRITEBACK ACCESS:     736776  HIT:     734778  MISS:       1998
L2C PREFETCH  REQUESTED:  139151447  ISSUED:  129035884  USEFUL:    5432598  USELESS:    2965420
LLC TOTAL     ACCESS:    2208001  HIT:    1917405  MISS:     290596
LLC LOAD      ACCESS:     417132  HIT:     350050  MISS:      67082
LLC RFO       ACCESS:     107969  HIT:      49119  MISS:      58850
LLC PREFETCH  ACCESS:    1560125  HIT:    1396459  MISS:     163666
LLC WRITEBACK ACCESS:     122775  HIT:     121777  MISS:        998
LLC PREFETCH  REQUESTED:          0  ISSUED:          0  USEFUL:    3178129  USELESS:   80239079
Major fault: 0 Minor fault: 25113

CPU 3 cumulative IPC: 0.299123 instructions: 100000003 cycles: 334310401
L1D TOTAL     ACCESS:   56018434  HIT:   54094405  MISS:    1924029
L1D LOAD      ACCESS:   49607124  HIT:   47683095  MISS:    1924029
L1D RFO       ACCESS:    6411310  HIT:    6411310  MISS:          0
L1D PREFETCH  ACCESS:          0  HIT:          0  MISS:          0
L1D WRITEBACK ACCESS:          0  HIT:          0  MISS:          0
L1D PREFETCH  REQUESTED:          0  ISSUED:          0  USEFUL:          0  USELESS:          0
L1I TOTAL     ACCESS:   30031021  HIT:   30031021  MISS:          0
L1I LOAD      ACCESS:   30031021  HIT:   30031021  MISS:          0
L1I RFO       ACCESS:          0  HIT:          0  MISS:          0
L1I PREFETCH  ACCESS:          0  HIT:          0  MISS:          0
L1I WRITEBACK ACCESS:          0  HIT:          0  MISS:          0
L1I PREFETCH  REQUESTED:          0  ISSUED:          0  USEFUL:          0  USELESS:          0
L2C TOTAL     ACCESS:    4820882  HIT:    2323640  MISS:    2497242
L2C LOAD      ACCESS:    1924029  HIT:     934199  MISS:     989830
L2C RFO       ACCESS:          0  HIT:          0  MISS:          0
L2C PREFETCH  ACCESS:    1925356  HIT:     417949  MISS:    1507407
L2C WRITEBACK ACCESS:     971497  HIT:     971492  MISS:          5
L2C PREFETCH  REQUESTED:   13447564  ISSUED:   13447545  USEFUL:    4092363  USELESS:    2326187
LLC TOTAL     ACCESS:    4516842  HIT:    1531413  MISS:    2985429
LLC LOAD      ACCESS:     935524  HIT:     154866  MISS:     780658
LLC RFO       ACCESS:          0  HIT:          0  MISS:          0
LLC PREFETCH  ACCESS:    2609642  HIT:     404893  MISS:    2204749
LLC WRITEBACK ACCESS:     971676  HIT:     971654  MISS:         22
LLC PREFETCH  REQUESTED:          0  ISSUED:          0  USEFUL:    3178129  USELESS:   80239079
Major fault: 0 Minor fault: 818290

CPU 4 cumulative IPC: 0.929326 instructions: 100000000 cycles: 107604893
L1D TOTAL     ACCESS:   33862093  HIT:   30573503  MISS:    3288590
L1D LOAD      ACCESS:   17808324  HIT:   15925901  MISS:    1882423
L1D RFO       ACCESS:   16053769  HIT:   14647602  MISS:    1406167
L1D PREFETCH  ACCESS:          0  HIT:          0  MISS:          0
L1D WRITEBACK ACCESS:          0  HIT:          0  MISS:          0
L1D PREFETCH  REQUESTED:          0  ISSUED:          0  USEFUL:          0  USELESS:          0
L1I TOTAL     ACCESS:   24141782  HIT:   24141782  MISS:          0
L1I LOAD      ACCESS:   24141782  HIT:   24141782  MISS:          0
L1I RFO       ACCESS:          0  HIT:          0  MISS:          0
L1I PREFETCH  ACCESS:          0  HIT:          0  MISS:          0
L1I WRITEBACK ACCESS:          0  HIT:          0  MISS:          0
L1I PREFETCH  REQUESTED:          0  ISSUED:          0  USEFUL:          0  USELESS:          0
L2C TOTAL     ACCESS:    6478598  HIT:    4941533  MISS:    1537065
L2C LOAD      ACCESS:    1881579  HIT:    1833929  MISS:      47650
L2C RFO       ACCESS:    1249595  HIT:     654213  MISS:     595382
L2C PREFETCH  ACCESS:    1930212  HIT:    1036374  MISS:     893838
L2C WRITEBACK ACCESS:    1417212  HIT:    1417017  MISS:        195
L2C PREFETCH  REQUESTED:   33899097  ISSUED:   33896177  USEFUL:   12235233  USELESS:      65451
LLC TOTAL     ACCESS:    2529821  HIT:    1165850  MISS:    1363971
LLC LOAD      ACCESS:      37709  HIT:      11714  MISS:      25995
LLC RFO       ACCESS:     595382  HIT:          0  MISS:     595382
LLC PREFETCH  ACCESS:    1300813  HIT:     558296  MISS:     742517
LLC WRITEBACK ACCESS:     595917  HIT:     595840  MISS:         77
LLC PREFETCH  REQUESTED:          0  ISSUED:          0  USEFUL:    3178129  USELESS:   80239079
Major fault: 0 Minor fault: 258247

CPU 5 cumulative IPC: 0.0698669 instructions: 100000001 cycles: 1431292286
L1D TOTAL     ACCESS:   17240541  HIT:    9998401  MISS:    7242140
L1D LOAD      ACCESS:   15771947  HIT:    8532555  MISS:    7239392
L1D RFO       ACCESS:    1468594  HIT:    1465846  MISS:       2748
L1D PREFETCH  ACCESS:          0  HIT:          0  MISS:          0
L1D WRITEBACK ACCESS:          0  HIT:          0  MISS:          0
L1D PREFETCH  REQUESTED:          0  ISSUED:          0  USEFUL:          0  USELESS:          0
L1I TOTAL     ACCESS:   36409471  HIT:   36409446  MISS:         25
L1I LOAD      ACCESS:   36409471  HIT:   36409446  MISS:         25
L1I RFO       ACCESS:          0  HIT:          0  MISS:          0
L1I PREFETCH  ACCESS:          0  HIT:          0  MISS:          0
L1I WRITEBACK ACCESS:          0  HIT:          0  MISS:          0
L1I PREFETCH  REQUESTED:          0  ISSUED:          0  USEFUL:          0  USELESS:          0
L2C TOTAL     ACCESS:   12175594  HIT:    5030167  MISS:    7145427
L2C LOAD      ACCESS:    7239417  HIT:    3972164  MISS:    3267253
L2C RFO       ACCESS:       2748  HIT:        518  MISS:       2230
L2C PREFETCH  ACCESS:    4907971  HIT:    1032027  MISS:    3875944
L2C WRITEBACK ACCESS:      25458  HIT:      25458  MISS:          0
L2C PREFETCH  REQUESTED:   12659929  ISSUED:   12659929  USEFUL:    6639704  USELESS:     209416
LLC TOTAL     ACCESS:    7429373  HIT:     241738  MISS:    7187635
LLC LOAD      ACCESS:     321439  HIT:      15549  MISS:     305890
LLC RFO       ACCESS:       2212  HIT:        321  MISS:       1891
LLC PREFETCH  ACCESS:    7094515  HIT:     214722  MISS:    6879793
LLC WRITEBACK ACCESS:      11207  HIT:      11146  MISS:         61
LLC PREFETCH  REQUESTED:          0  ISSUED:          0  USEFUL:    3178129  USELESS:   80239079
Major fault: 0 Minor fault: 48146

CPU 6 cumulative IPC: 0.858114 instructions: 100000000 cycles: 116534633
L1D TOTAL     ACCESS:   28306877  HIT:   26624077  MISS:    1682800
L1D LOAD      ACCESS:   23389657  HIT:   21706857  MISS:    1682800
L1D RFO       ACCESS:    4917220  HIT:    4917220  MISS:          0
L1D PREFETCH  ACCESS:          0  HIT:          0  MISS:          0
L1D WRITEBACK ACCESS:          0  HIT:          0  MISS:          0
L1D PREFETCH  REQUESTED:          0  ISSUED:          0  USEFUL:          0  USELESS:          0
L1I TOTAL     ACCESS:   21249660  HIT:   21249660  MISS:          0
L1I LOAD      ACCESS:   21249660  HIT:   21249660  MISS:          0
L1I RFO       ACCESS:          0  HIT:          0  MISS:          0
L1I PREFETCH  ACCESS:          0  HIT:          0  MISS:          0
L1I WRITEBACK ACCESS:          0  HIT:          0  MISS:          0
L1I PREFETCH  REQUESTED:          0  ISSUED:          0  USEFUL:          0  USELESS:          0
L2C TOTAL     ACCESS:    4587512  HIT:    2847287  MISS:    1740225
L2C LOAD      ACCESS:    1682800  HIT:    1509560  MISS:     173240
L2C RFO       ACCESS:          0  HIT:          0  MISS:          0
L2C PREFETCH  ACCESS:    2382467  HIT:     815624  MISS:    1566843
L2C WRITEBACK ACCESS:     522245  HIT:     522103  MISS:        142
L2C PREFETCH  REQUESTED:   40885311  ISSUED:   40685985  USEFUL:   18833150  USELESS:    1309950
LLC TOTAL     ACCESS:    2598072  HIT:     857748  MISS:    1740324
LLC LOAD      ACCESS:      81436  HIT:       9220  MISS:      72216
LLC RFO       ACCESS:          0  HIT:          0  MISS:          0
LLC PREFETCH  ACCESS:    1997183  HIT:     329128  MISS:    1668055
LLC WRITEBACK ACCESS:     519453  HIT:     519400  MISS:         53
LLC PREFETCH  REQUESTED:          0  ISSUED:          0  USEFUL:    3178129  USELESS:   80239079
Major fault: 0 Minor fault: 276270

CPU 7 cumulative IPC: 0.125175 instructions: 100000003 cycles: 798884424
L1D TOTAL     ACCESS:   39978058  HIT:   24606307  MISS:   15371751
L1D LOAD      ACCESS:   33659407  HIT:   18570600  MISS:   15088807
L1D RFO       ACCESS:    6318651  HIT:    6035707  MISS:     282944
L1D PREFETCH  ACCESS:          0  HIT:          0  MISS:          0
L1D WRITEBACK ACCESS:          0  HIT:          0  MISS:          0
L1D PREFETCH  REQUESTED:          0  ISSUED:          0  USEFUL:          0  USELESS:          0
L1I TOTAL     ACCESS:   34342701  HIT:   34342701  MISS:          0
L1I LOAD      ACCESS:   34342701  HIT:   34342701  MISS:          0
L1I RFO       ACCESS:          0  HIT:          0  MISS:          0
L1I PREFETCH  ACCESS:          0  HIT:          0  MISS:          0
L1I WRITEBACK ACCESS:          0  HIT:          0  MISS:          0
L1I PREFETCH  REQUESTED:          0  ISSUED:          0  USEFUL:          0  USELESS:          0
L2C TOTAL     ACCESS:   28846800  HIT:   10011200  MISS:   18835600
L2C LOAD      ACCESS:   15088807  HIT:    6485265  MISS:    8603542
L2C RFO       ACCESS:     282944  HIT:       9076  MISS:     273868
L2C PREFETCH  ACCESS:   13120813  HIT:    3163484  MISS:    9957329
L2C WRITEBACK ACCESS:     354236  HIT:     353375  MISS:        861
L2C PREFETCH  REQUESTED:   48049835  ISSUED:   48046361  USEFUL:   16745468  USELESS:    6810445
LLC TOTAL     ACCESS:   21867172  HIT:   15614452  MISS:    6252720
LLC LOAD      ACCESS:    4282089  HIT:    3184764  MISS:    1097325
LLC RFO       ACCESS:     273041  HIT:       1734  MISS:     271307
LLC PREFETCH  ACCESS:   16959308  HIT:   12075449  MISS:    4883859
LLC WRITEBACK ACCESS:     352734  HIT:     352505  MISS:        229
LLC PREFETCH  REQUESTED:          0  ISSUED:          0  USEFUL:    3178129  USELESS:   80239079
Major fault: 0 Minor fault: 15875

Avg Lookahead Depth:	2.50416
TOTAL: 3.2983e+08	L2C: 2.44428e+08	LLC: 8.54015e+07	GOOD_L2C: 1.31805e+08
Printing all the perceptron weights to: perc_weights_0.csv

Avg Lookahead Depth:	2.50416
TOTAL: 3.2983e+08	L2C: 2.44428e+08	LLC: 8.54015e+07	GOOD_L2C: 1.31805e+08
Printing all the perceptron weights to: perc_weights_0.csv

Avg Lookahead Depth:	2.50416
TOTAL: 3.2983e+08	L2C: 2.44428e+08	LLC: 8.54015e+07	GOOD_L2C: 1.31805e+08
Printing all the perceptron weights to: perc_weights_0.csv

Avg Lookahead Depth:	2.50416
TOTAL: 3.2983e+08	L2C: 2.44428e+08	LLC: 8.54015e+07	GOOD_L2C: 1.31805e+08
Printing all the perceptron weights to: perc_weights_0.csv

Avg Lookahead Depth:	2.50416
TOTAL: 3.2983e+08	L2C: 2.44428e+08	LLC: 8.54015e+07	GOOD_L2C: 1.31805e+08
Printing all the perceptron weights to: perc_weights_0.csv

Avg Lookahead Depth:	2.50416
TOTAL: 3.2983e+08	L2C: 2.44428e+08	LLC: 8.54015e+07	GOOD_L2C: 1.31805e+08
Printing all the perceptron weights to: perc_weights_0.csv

Avg Lookahead Depth:	2.50416
TOTAL: 3.2983e+08	L2C: 2.44428e+08	LLC: 8.54015e+07	GOOD_L2C: 1.31805e+08
Printing all the perceptron weights to: perc_weights_0.csv

Avg Lookahead Depth:	2.50416
TOTAL: 3.2983e+08	L2C: 2.44428e+08	LLC: 8.54015e+07	GOOD_L2C: 1.31805e+08
Printing all the perceptron weights to: perc_weights_0.csv

DRAM Statistics
 CHANNEL 0
 RQ ROW_BUFFER_HIT:   14531332  ROW_BUFFER_MISS:   39441728
 DBUS_CONGESTED:  132503120
 WQ ROW_BUFFER_HIT:    1606269  ROW_BUFFER_MISS:   17731150  FULL:          0

 CHANNEL 1
 RQ ROW_BUFFER_HIT:   14564476  ROW_BUFFER_MISS:   39427506
 DBUS_CONGESTED:  132503120
 WQ ROW_BUFFER_HIT:    1610666  ROW_BUFFER_MISS:   17731256  FULL:          0

 AVG_CONGESTED_CYCLE: 14
