Initialize SIGNATURE TABLE
ST_SET: 1
ST_WAY: 256
ST_TAG_BIT: 16
ST_TAG_MASK: ffff

Initialize PATTERN TABLE
PT_SET: 512
PT_WAY: 4
SIG_DELTA_BIT: 7
C_SIG_BIT: 4
C_DELTA_BIT: 4

Initialize PREFETCH FILTER
FILTER_SET: 1024

Initialize PERCEPTRON
PERC_ENTRIES: 4096
PERC_FEATURES: 9

*** ChampSim Multicore Out-of-Order Simulator ***

Warmup Instructions: 20000000
Simulation Instructions: 100000000
Number of CPUs: 8
LLC sets: 16384
LLC ways: 16
Off-chip DRAM Size: 8192 MB Channels: 2 Width: 64-bit Data Rate: 1600 MT/s

CPU 0 runs /scratch/user/djimenez/champsim-traces/speccpu2017/xz/602.gcc_s/602.gcc_s-734B.champsimtrace.xz
CPU 1 runs /scratch/user/djimenez/champsim-traces/speccpu2017/xz/605.mcf_s/605.mcf_s-1554B.champsimtrace.xz
CPU 2 runs /scratch/user/djimenez/champsim-traces/speccpu2017/xz/623.xalancbmk_s/623.xalancbmk_s-325B.champsimtrace.xz
CPU 3 runs /scratch/user/djimenez/champsim-traces/speccpu2017/xz/603.bwaves_s/603.bwaves_s-2609B.champsimtrace.xz
CPU 4 runs /scratch/user/djimenez/champsim-traces/speccpu2017/xz/623.xalancbmk_s/623.xalancbmk_s-592B.champsimtrace.xz
CPU 5 runs /scratch/user/djimenez/champsim-traces/speccpu2017/xz/607.cactuBSSN_s/607.cactuBSSN_s-4004B.champsimtrace.xz
CPU 6 runs /scratch/user/djimenez/champsim-traces/speccpu2017/xz/649.fotonik3d_s/649.fotonik3d_s-1176B.champsimtrace.xz
CPU 7 runs /scratch/user/djimenez/champsim-traces/speccpu2017/xz/619.lbm_s/619.lbm_s-3766B.champsimtrace.xz
Heartbeat CPU 7 instructions: 10000000 cycles: 4280355 heartbeat IPC: 2.33625 cumulative IPC: 2.33625 (Simulation time: 0 hr 3 min 45 sec) 
Heartbeat CPU 6 instructions: 10000000 cycles: 4400360 heartbeat IPC: 2.27254 cumulative IPC: 2.27254 (Simulation time: 0 hr 3 min 51 sec) 
Heartbeat CPU 4 instructions: 10000002 cycles: 5055501 heartbeat IPC: 1.97804 cumulative IPC: 1.97804 (Simulation time: 0 hr 4 min 26 sec) 
Heartbeat CPU 3 instructions: 10000001 cycles: 5275041 heartbeat IPC: 1.89572 cumulative IPC: 1.89572 (Simulation time: 0 hr 4 min 38 sec) 
Heartbeat CPU 0 instructions: 10000000 cycles: 5381456 heartbeat IPC: 1.85823 cumulative IPC: 1.85823 (Simulation time: 0 hr 4 min 43 sec) 
Heartbeat CPU 1 instructions: 10000001 cycles: 5397195 heartbeat IPC: 1.85281 cumulative IPC: 1.85281 (Simulation time: 0 hr 4 min 44 sec) 
Heartbeat CPU 5 instructions: 10000000 cycles: 5802959 heartbeat IPC: 1.72326 cumulative IPC: 1.72326 (Simulation time: 0 hr 5 min 6 sec) 
Heartbeat CPU 2 instructions: 10000000 cycles: 6143372 heartbeat IPC: 1.62777 cumulative IPC: 1.62777 (Simulation time: 0 hr 5 min 24 sec) 
Heartbeat CPU 7 instructions: 20000000 cycles: 8569867 heartbeat IPC: 2.33127 cumulative IPC: 2.33376 (Simulation time: 0 hr 7 min 33 sec) 
Heartbeat CPU 6 instructions: 20000000 cycles: 8799984 heartbeat IPC: 2.27292 cumulative IPC: 2.27273 (Simulation time: 0 hr 7 min 45 sec) 
Heartbeat CPU 4 instructions: 20000000 cycles: 10195366 heartbeat IPC: 1.94558 cumulative IPC: 1.96168 (Simulation time: 0 hr 8 min 58 sec) 
Heartbeat CPU 3 instructions: 20000000 cycles: 10551355 heartbeat IPC: 1.89526 cumulative IPC: 1.89549 (Simulation time: 0 hr 9 min 17 sec) 
Heartbeat CPU 1 instructions: 20000000 cycles: 10757759 heartbeat IPC: 1.86548 cumulative IPC: 1.85912 (Simulation time: 0 hr 9 min 29 sec) 
Heartbeat CPU 0 instructions: 20000000 cycles: 10779970 heartbeat IPC: 1.85236 cumulative IPC: 1.85529 (Simulation time: 0 hr 9 min 30 sec) 
Heartbeat CPU 5 instructions: 20000000 cycles: 11606100 heartbeat IPC: 1.7232 cumulative IPC: 1.72323 (Simulation time: 0 hr 10 min 13 sec) 
Heartbeat CPU 2 instructions: 20000000 cycles: 12371317 heartbeat IPC: 1.60567 cumulative IPC: 1.61664 (Simulation time: 0 hr 10 min 53 sec) 

Warmup complete CPU 0 instructions: 22965096 cycles: 12371318 (Simulation time: 0 hr 10 min 53 sec) 
Warmup complete CPU 1 instructions: 23012107 cycles: 12371318 (Simulation time: 0 hr 10 min 53 sec) 
Warmup complete CPU 2 instructions: 20000001 cycles: 12371318 (Simulation time: 0 hr 10 min 53 sec) 
Warmup complete CPU 3 instructions: 23454722 cycles: 12371317 (Simulation time: 0 hr 10 min 53 sec) 
Warmup complete CPU 4 instructions: 23702001 cycles: 12371317 (Simulation time: 0 hr 10 min 53 sec) 
Warmup complete CPU 5 instructions: 21319682 cycles: 12371317 (Simulation time: 0 hr 10 min 53 sec) 
Warmup complete CPU 6 instructions: 28116813 cycles: 12371317 (Simulation time: 0 hr 10 min 53 sec) 
Warmup complete CPU 7 instructions: 28882185 cycles: 12371317 (Simulation time: 0 hr 10 min 53 sec) 

Heartbeat CPU 7 instructions: 30000001 cycles: 13775117 heartbeat IPC: 1.92114 cumulative IPC: 0.796279 (Simulation time: 0 hr 11 min 29 sec) 
Heartbeat CPU 6 instructions: 30000003 cycles: 14618628 heartbeat IPC: 1.71861 cumulative IPC: 0.837975 (Simulation time: 0 hr 11 min 50 sec) 
Heartbeat CPU 3 instructions: 30000000 cycles: 18401268 heartbeat IPC: 1.2739 cumulative IPC: 1.08546 (Simulation time: 0 hr 13 min 26 sec) 
Heartbeat CPU 5 instructions: 30000003 cycles: 21487417 heartbeat IPC: 1.01201 cumulative IPC: 0.952197 (Simulation time: 0 hr 14 min 45 sec) 
Heartbeat CPU 7 instructions: 40000000 cycles: 26166607 heartbeat IPC: 0.807005 cumulative IPC: 0.805914 (Simulation time: 0 hr 16 min 43 sec) 
Heartbeat CPU 6 instructions: 40000000 cycles: 26482068 heartbeat IPC: 0.842926 cumulative IPC: 0.842137 (Simulation time: 0 hr 16 min 52 sec) 
Heartbeat CPU 3 instructions: 40000000 cycles: 27579017 heartbeat IPC: 1.08959 cumulative IPC: 1.08795 (Simulation time: 0 hr 17 min 19 sec) 
Heartbeat CPU 1 instructions: 30000003 cycles: 28708797 heartbeat IPC: 0.557071 cumulative IPC: 0.427722 (Simulation time: 0 hr 17 min 49 sec) 
Heartbeat CPU 0 instructions: 30000003 cycles: 29232729 heartbeat IPC: 0.541925 cumulative IPC: 0.417219 (Simulation time: 0 hr 18 min 2 sec) 
Heartbeat CPU 5 instructions: 40000000 cycles: 31870677 heartbeat IPC: 0.963088 cumulative IPC: 0.957996 (Simulation time: 0 hr 19 min 8 sec) 
Heartbeat CPU 4 instructions: 30000000 cycles: 34730572 heartbeat IPC: 0.407578 cumulative IPC: 0.281673 (Simulation time: 0 hr 20 min 19 sec) 
Heartbeat CPU 3 instructions: 50000001 cycles: 36817267 heartbeat IPC: 1.08246 cumulative IPC: 1.08588 (Simulation time: 0 hr 21 min 12 sec) 
Heartbeat CPU 6 instructions: 50000001 cycles: 38416290 heartbeat IPC: 0.837927 cumulative IPC: 0.840208 (Simulation time: 0 hr 21 min 52 sec) 
Heartbeat CPU 7 instructions: 50000003 cycles: 38594875 heartbeat IPC: 0.804618 cumulative IPC: 0.8053 (Simulation time: 0 hr 21 min 57 sec) 
Heartbeat CPU 2 instructions: 30000001 cycles: 39407098 heartbeat IPC: 0.36988 cumulative IPC: 0.36988 (Simulation time: 0 hr 22 min 17 sec) 
Heartbeat CPU 5 instructions: 50000000 cycles: 42399314 heartbeat IPC: 0.949791 cumulative IPC: 0.955119 (Simulation time: 0 hr 23 min 32 sec) 
Heartbeat CPU 3 instructions: 60000000 cycles: 46086699 heartbeat IPC: 1.07881 cumulative IPC: 1.08393 (Simulation time: 0 hr 25 min 6 sec) 
Heartbeat CPU 6 instructions: 60000000 cycles: 50440716 heartbeat IPC: 0.83164 cumulative IPC: 0.837502 (Simulation time: 0 hr 26 min 54 sec) 
Heartbeat CPU 7 instructions: 60000000 cycles: 51029790 heartbeat IPC: 0.804187 cumulative IPC: 0.804942 (Simulation time: 0 hr 27 min 9 sec) 
Heartbeat CPU 1 instructions: 40000000 cycles: 52527560 heartbeat IPC: 0.419837 cumulative IPC: 0.423045 (Simulation time: 0 hr 27 min 47 sec) 
Heartbeat CPU 5 instructions: 60000000 cycles: 52954451 heartbeat IPC: 0.947406 cumulative IPC: 0.953113 (Simulation time: 0 hr 27 min 58 sec) 
Heartbeat CPU 0 instructions: 40000000 cycles: 54366670 heartbeat IPC: 0.397868 cumulative IPC: 0.405638 (Simulation time: 0 hr 28 min 34 sec) 
Heartbeat CPU 3 instructions: 70000003 cycles: 55310276 heartbeat IPC: 1.08418 cumulative IPC: 1.08399 (Simulation time: 0 hr 28 min 58 sec) 
Heartbeat CPU 6 instructions: 70000000 cycles: 62381741 heartbeat IPC: 0.837449 cumulative IPC: 0.837489 (Simulation time: 0 hr 32 min 0 sec) 
Heartbeat CPU 5 instructions: 70000002 cycles: 63364840 heartbeat IPC: 0.960579 cumulative IPC: 0.954637 (Simulation time: 0 hr 32 min 25 sec) 
Heartbeat CPU 7 instructions: 70000003 cycles: 63449730 heartbeat IPC: 0.805157 cumulative IPC: 0.804994 (Simulation time: 0 hr 32 min 27 sec) 
Heartbeat CPU 3 instructions: 80000000 cycles: 64543667 heartbeat IPC: 1.08303 cumulative IPC: 1.08382 (Simulation time: 0 hr 32 min 55 sec) 
Heartbeat CPU 2 instructions: 40000000 cycles: 64651280 heartbeat IPC: 0.396131 cumulative IPC: 0.382556 (Simulation time: 0 hr 32 min 58 sec) 
Heartbeat CPU 4 instructions: 40000000 cycles: 67749521 heartbeat IPC: 0.302856 cumulative IPC: 0.294304 (Simulation time: 0 hr 34 min 16 sec) 
Heartbeat CPU 3 instructions: 90000002 cycles: 73861797 heartbeat IPC: 1.07318 cumulative IPC: 1.0822 (Simulation time: 0 hr 36 min 55 sec) 
Heartbeat CPU 5 instructions: 80000000 cycles: 74023411 heartbeat IPC: 0.938212 cumulative IPC: 0.951798 (Simulation time: 0 hr 37 min 0 sec) 
Heartbeat CPU 6 instructions: 80000000 cycles: 74400716 heartbeat IPC: 0.832018 cumulative IPC: 0.836429 (Simulation time: 0 hr 37 min 10 sec) 
Heartbeat CPU 7 instructions: 80000000 cycles: 75687186 heartbeat IPC: 0.817163 cumulative IPC: 0.807346 (Simulation time: 0 hr 37 min 43 sec) 
Heartbeat CPU 1 instructions: 50000000 cycles: 76398831 heartbeat IPC: 0.418914 cumulative IPC: 0.421505 (Simulation time: 0 hr 38 min 2 sec) 
Heartbeat CPU 0 instructions: 50000000 cycles: 78607665 heartbeat IPC: 0.412524 cumulative IPC: 0.408158 (Simulation time: 0 hr 39 min 1 sec) 
Heartbeat CPU 2 instructions: 50000001 cycles: 81315438 heartbeat IPC: 0.60009 cumulative IPC: 0.435135 (Simulation time: 0 hr 40 min 13 sec) 
Heartbeat CPU 3 instructions: 100000000 cycles: 83064415 heartbeat IPC: 1.08665 cumulative IPC: 1.08278 (Simulation time: 0 hr 40 min 59 sec) 
Heartbeat CPU 5 instructions: 90000000 cycles: 84459722 heartbeat IPC: 0.958193 cumulative IPC: 0.952724 (Simulation time: 0 hr 41 min 35 sec) 
Heartbeat CPU 6 instructions: 90000001 cycles: 86284416 heartbeat IPC: 0.841489 cumulative IPC: 0.837242 (Simulation time: 0 hr 42 min 22 sec) 
Heartbeat CPU 7 instructions: 90000000 cycles: 88053063 heartbeat IPC: 0.808677 cumulative IPC: 0.807563 (Simulation time: 0 hr 43 min 8 sec) 
Heartbeat CPU 3 instructions: 110000002 cycles: 92301024 heartbeat IPC: 1.08265 cumulative IPC: 1.08277 (Simulation time: 0 hr 44 min 59 sec) 
Heartbeat CPU 5 instructions: 100000000 cycles: 94875431 heartbeat IPC: 0.960088 cumulative IPC: 0.953653 (Simulation time: 0 hr 46 min 5 sec) 
Heartbeat CPU 4 instructions: 50000002 cycles: 97472314 heartbeat IPC: 0.336442 cumulative IPC: 0.309021 (Simulation time: 0 hr 47 min 12 sec) 
Heartbeat CPU 6 instructions: 100000000 cycles: 98218739 heartbeat IPC: 0.837919 cumulative IPC: 0.837337 (Simulation time: 0 hr 47 min 31 sec) 
Heartbeat CPU 1 instructions: 60000000 cycles: 99637436 heartbeat IPC: 0.430318 cumulative IPC: 0.423852 (Simulation time: 0 hr 48 min 7 sec) 
Heartbeat CPU 2 instructions: 60000000 cycles: 99643639 heartbeat IPC: 0.545607 cumulative IPC: 0.458335 (Simulation time: 0 hr 48 min 7 sec) 
Heartbeat CPU 7 instructions: 100000000 cycles: 100327254 heartbeat IPC: 0.814718 cumulative IPC: 0.808562 (Simulation time: 0 hr 48 min 25 sec) 
Heartbeat CPU 3 instructions: 120000000 cycles: 101492425 heartbeat IPC: 1.08797 cumulative IPC: 1.0833 (Simulation time: 0 hr 48 min 55 sec) 
Heartbeat CPU 0 instructions: 60000000 cycles: 102874318 heartbeat IPC: 0.412088 cumulative IPC: 0.409212 (Simulation time: 0 hr 49 min 29 sec) 
Finished CPU 3 instructions: 100000000 cycles: 92284093 cumulative IPC: 1.08361 (Simulation time: 0 hr 50 min 14 sec) 
Heartbeat CPU 5 instructions: 110000001 cycles: 105328181 heartbeat IPC: 0.956686 cumulative IPC: 0.953994 (Simulation time: 0 hr 50 min 30 sec) 
Heartbeat CPU 6 instructions: 110000001 cycles: 110170782 heartbeat IPC: 0.836677 cumulative IPC: 0.837256 (Simulation time: 0 hr 52 min 30 sec) 
Heartbeat CPU 3 instructions: 130000002 cycles: 110675781 heartbeat IPC: 1.08893 cumulative IPC: 1.08383 (Simulation time: 0 hr 52 min 42 sec) 
Heartbeat CPU 7 instructions: 110000001 cycles: 113207576 heartbeat IPC: 0.776378 cumulative IPC: 0.804451 (Simulation time: 0 hr 53 min 44 sec) 
Heartbeat CPU 5 instructions: 120000000 cycles: 115803411 heartbeat IPC: 0.954633 cumulative IPC: 0.954059 (Simulation time: 0 hr 54 min 50 sec) 
Finished CPU 5 instructions: 100000001 cycles: 104795148 cumulative IPC: 0.954243 (Simulation time: 0 hr 55 min 24 sec) 
Heartbeat CPU 3 instructions: 140000000 cycles: 119893384 heartbeat IPC: 1.08488 cumulative IPC: 1.08392 (Simulation time: 0 hr 56 min 34 sec) 
Heartbeat CPU 6 instructions: 120000000 cycles: 122198694 heartbeat IPC: 0.831399 cumulative IPC: 0.836615 (Simulation time: 0 hr 57 min 31 sec) 
Heartbeat CPU 1 instructions: 70000001 cycles: 123210370 heartbeat IPC: 0.424215 cumulative IPC: 0.423929 (Simulation time: 0 hr 57 min 57 sec) 
Heartbeat CPU 4 instructions: 60000000 cycles: 125278272 heartbeat IPC: 0.359635 cumulative IPC: 0.321486 (Simulation time: 0 hr 58 min 49 sec) 
Heartbeat CPU 5 instructions: 130000003 cycles: 126288896 heartbeat IPC: 0.9537 cumulative IPC: 0.954026 (Simulation time: 0 hr 59 min 14 sec) 
Heartbeat CPU 7 instructions: 120000000 cycles: 126488387 heartbeat IPC: 0.752966 cumulative IPC: 0.798459 (Simulation time: 0 hr 59 min 19 sec) 
Heartbeat CPU 2 instructions: 70000000 cycles: 128838934 heartbeat IPC: 0.342521 cumulative IPC: 0.429304 (Simulation time: 1 hr 0 min 16 sec) 
Heartbeat CPU 0 instructions: 70000001 cycles: 129059042 heartbeat IPC: 0.381902 cumulative IPC: 0.403084 (Simulation time: 1 hr 0 min 21 sec) 
Heartbeat CPU 3 instructions: 150000002 cycles: 129207479 heartbeat IPC: 1.07364 cumulative IPC: 1.0831 (Simulation time: 1 hr 0 min 24 sec) 
Finished CPU 6 instructions: 100000000 cycles: 119684680 cumulative IPC: 0.835529 (Simulation time: 1 hr 1 min 35 sec) 
Heartbeat CPU 6 instructions: 130000003 cycles: 134303438 heartbeat IPC: 0.826123 cumulative IPC: 0.835573 (Simulation time: 1 hr 2 min 30 sec) 
Heartbeat CPU 5 instructions: 140000000 cycles: 136763370 heartbeat IPC: 0.954702 cumulative IPC: 0.954083 (Simulation time: 1 hr 3 min 29 sec) 
Heartbeat CPU 3 instructions: 160000000 cycles: 138527536 heartbeat IPC: 1.07295 cumulative IPC: 1.08235 (Simulation time: 1 hr 4 min 13 sec) 
Finished CPU 7 instructions: 100000002 cycles: 127772715 cumulative IPC: 0.78264 (Simulation time: 1 hr 4 min 52 sec) 
Heartbeat CPU 7 instructions: 130000000 cycles: 141957177 heartbeat IPC: 0.646463 cumulative IPC: 0.780315 (Simulation time: 1 hr 5 min 36 sec) 
Heartbeat CPU 6 instructions: 140000000 cycles: 146509100 heartbeat IPC: 0.819292 cumulative IPC: 0.834092 (Simulation time: 1 hr 7 min 29 sec) 
Heartbeat CPU 5 instructions: 150000001 cycles: 147307787 heartbeat IPC: 0.948369 cumulative IPC: 0.953636 (Simulation time: 1 hr 7 min 49 sec) 
Heartbeat CPU 1 instructions: 80000000 cycles: 147683438 heartbeat IPC: 0.408612 cumulative IPC: 0.421159 (Simulation time: 1 hr 7 min 58 sec) 
Heartbeat CPU 3 instructions: 170000002 cycles: 147776968 heartbeat IPC: 1.08115 cumulative IPC: 1.08227 (Simulation time: 1 hr 8 min 0 sec) 
Heartbeat CPU 4 instructions: 70000001 cycles: 151893794 heartbeat IPC: 0.375721 cumulative IPC: 0.331832 (Simulation time: 1 hr 9 min 42 sec) 
Heartbeat CPU 0 instructions: 80000000 cycles: 153365760 heartbeat IPC: 0.411409 cumulative IPC: 0.404519 (Simulation time: 1 hr 10 min 17 sec) 
Heartbeat CPU 3 instructions: 180000000 cycles: 157094102 heartbeat IPC: 1.07329 cumulative IPC: 1.08169 (Simulation time: 1 hr 11 min 50 sec) 
Heartbeat CPU 5 instructions: 160000000 cycles: 157991995 heartbeat IPC: 0.935961 cumulative IPC: 0.952339 (Simulation time: 1 hr 12 min 12 sec) 
Heartbeat CPU 7 instructions: 140000000 cycles: 158589894 heartbeat IPC: 0.601225 cumulative IPC: 0.759943 (Simulation time: 1 hr 12 min 26 sec) 
Heartbeat CPU 6 instructions: 150000001 cycles: 158766212 heartbeat IPC: 0.815853 cumulative IPC: 0.832564 (Simulation time: 1 hr 12 min 30 sec) 
Heartbeat CPU 2 instructions: 80000000 cycles: 159949311 heartbeat IPC: 0.321436 cumulative IPC: 0.406565 (Simulation time: 1 hr 13 min 0 sec) 
Heartbeat CPU 3 instructions: 190000000 cycles: 166484126 heartbeat IPC: 1.06496 cumulative IPC: 1.08067 (Simulation time: 1 hr 15 min 42 sec) 
Heartbeat CPU 5 instructions: 170000000 cycles: 168509145 heartbeat IPC: 0.950828 cumulative IPC: 0.952238 (Simulation time: 1 hr 16 min 33 sec) 
Heartbeat CPU 6 instructions: 160000000 cycles: 171197490 heartbeat IPC: 0.804422 cumulative IPC: 0.830362 (Simulation time: 1 hr 17 min 41 sec) 
Heartbeat CPU 1 instructions: 90000003 cycles: 172094746 heartbeat IPC: 0.409646 cumulative IPC: 0.419399 (Simulation time: 1 hr 18 min 4 sec) 
Heartbeat CPU 4 instructions: 80000000 cycles: 172257795 heartbeat IPC: 0.491063 cumulative IPC: 0.352112 (Simulation time: 1 hr 18 min 8 sec) 
Heartbeat CPU 3 instructions: 200000000 cycles: 175864435 heartbeat IPC: 1.06606 cumulative IPC: 1.07983 (Simulation time: 1 hr 19 min 37 sec) 
Heartbeat CPU 7 instructions: 150000001 cycles: 177367182 heartbeat IPC: 0.532558 cumulative IPC: 0.734066 (Simulation time: 1 hr 20 min 14 sec) 
Heartbeat CPU 0 instructions: 90000003 cycles: 178003879 heartbeat IPC: 0.405875 cumulative IPC: 0.404721 (Simulation time: 1 hr 20 min 29 sec) 
Heartbeat CPU 5 instructions: 180000000 cycles: 179071159 heartbeat IPC: 0.946789 cumulative IPC: 0.951892 (Simulation time: 1 hr 20 min 56 sec) 
Heartbeat CPU 6 instructions: 170000002 cycles: 183581702 heartbeat IPC: 0.80748 cumulative IPC: 0.828707 (Simulation time: 1 hr 22 min 49 sec) 
Heartbeat CPU 3 instructions: 210000002 cycles: 185308790 heartbeat IPC: 1.05883 cumulative IPC: 1.07869 (Simulation time: 1 hr 23 min 29 sec) 
Heartbeat CPU 5 instructions: 190000002 cycles: 189634691 heartbeat IPC: 0.946653 cumulative IPC: 0.95158 (Simulation time: 1 hr 25 min 9 sec) 
Heartbeat CPU 2 instructions: 90000002 cycles: 189887451 heartbeat IPC: 0.334022 cumulative IPC: 0.39433 (Simulation time: 1 hr 25 min 15 sec) 
Heartbeat CPU 4 instructions: 90000000 cycles: 191423682 heartbeat IPC: 0.52176 cumulative IPC: 0.370272 (Simulation time: 1 hr 25 min 52 sec) 
Heartbeat CPU 3 instructions: 220000000 cycles: 194880124 heartbeat IPC: 1.04479 cumulative IPC: 1.07691 (Simulation time: 1 hr 27 min 10 sec) 
Heartbeat CPU 6 instructions: 180000000 cycles: 196268154 heartbeat IPC: 0.788242 cumulative IPC: 0.825915 (Simulation time: 1 hr 27 min 41 sec) 
Heartbeat CPU 1 instructions: 100000000 cycles: 197423388 heartbeat IPC: 0.39481 cumulative IPC: 0.416034 (Simulation time: 1 hr 28 min 7 sec) 
Heartbeat CPU 5 instructions: 200000000 cycles: 200272766 heartbeat IPC: 0.940019 cumulative IPC: 0.950926 (Simulation time: 1 hr 29 min 11 sec) 
Heartbeat CPU 7 instructions: 160000000 cycles: 200582975 heartbeat IPC: 0.430741 cumulative IPC: 0.696651 (Simulation time: 1 hr 29 min 19 sec) 
Heartbeat CPU 3 instructions: 230000001 cycles: 204507255 heartbeat IPC: 1.03873 cumulative IPC: 1.075 (Simulation time: 1 hr 30 min 48 sec) 
Heartbeat CPU 6 instructions: 190000001 cycles: 208834017 heartbeat IPC: 0.795807 cumulative IPC: 0.823989 (Simulation time: 1 hr 32 min 25 sec) 
Heartbeat CPU 5 instructions: 210000000 cycles: 210944307 heartbeat IPC: 0.937072 cumulative IPC: 0.950181 (Simulation time: 1 hr 33 min 14 sec) 
Heartbeat CPU 3 instructions: 240000000 cycles: 213968512 heartbeat IPC: 1.05694 cumulative IPC: 1.07415 (Simulation time: 1 hr 34 min 27 sec) 
Heartbeat CPU 4 instructions: 100000000 cycles: 214276448 heartbeat IPC: 0.437584 cumulative IPC: 0.37789 (Simulation time: 1 hr 34 min 34 sec) 
Heartbeat CPU 2 instructions: 100000000 cycles: 216655923 heartbeat IPC: 0.373574 cumulative IPC: 0.391611 (Simulation time: 1 hr 35 min 32 sec) 
Heartbeat CPU 0 instructions: 100000000 cycles: 220459832 heartbeat IPC: 0.235538 cumulative IPC: 0.370203 (Simulation time: 1 hr 37 min 3 sec) 
Heartbeat CPU 6 instructions: 200000000 cycles: 221404716 heartbeat IPC: 0.795501 cumulative IPC: 0.822276 (Simulation time: 1 hr 37 min 25 sec) 
Heartbeat CPU 5 instructions: 220000000 cycles: 221528250 heartbeat IPC: 0.944827 cumulative IPC: 0.94991 (Simulation time: 1 hr 37 min 28 sec) 
Heartbeat CPU 1 instructions: 110000000 cycles: 222993506 heartbeat IPC: 0.391081 cumulative IPC: 0.413004 (Simulation time: 1 hr 38 min 4 sec) 
Heartbeat CPU 3 instructions: 250000001 cycles: 223496497 heartbeat IPC: 1.04954 cumulative IPC: 1.07304 (Simulation time: 1 hr 38 min 16 sec) 
Heartbeat CPU 7 instructions: 170000002 cycles: 227631889 heartbeat IPC: 0.369701 cumulative IPC: 0.655567 (Simulation time: 1 hr 39 min 56 sec) 
Heartbeat CPU 5 instructions: 230000000 cycles: 232063430 heartbeat IPC: 0.949201 cumulative IPC: 0.949876 (Simulation time: 1 hr 41 min 43 sec) 
Heartbeat CPU 3 instructions: 260000000 cycles: 232900318 heartbeat IPC: 1.0634 cumulative IPC: 1.07263 (Simulation time: 1 hr 42 min 2 sec) 
Heartbeat CPU 6 instructions: 210000002 cycles: 233910640 heartbeat IPC: 0.799621 cumulative IPC: 0.820997 (Simulation time: 1 hr 42 min 26 sec) 
Heartbeat CPU 2 instructions: 110000000 cycles: 240413856 heartbeat IPC: 0.420912 cumulative IPC: 0.394663 (Simulation time: 1 hr 45 min 1 sec) 
Heartbeat CPU 3 instructions: 270000003 cycles: 242349621 heartbeat IPC: 1.05828 cumulative IPC: 1.07204 (Simulation time: 1 hr 45 min 48 sec) 
Heartbeat CPU 5 instructions: 240000000 cycles: 242861946 heartbeat IPC: 0.926053 cumulative IPC: 0.94876 (Simulation time: 1 hr 46 min 1 sec) 
Heartbeat CPU 0 instructions: 110000002 cycles: 244672539 heartbeat IPC: 0.413006 cumulative IPC: 0.374664 (Simulation time: 1 hr 46 min 47 sec) 
Heartbeat CPU 6 instructions: 220000000 cycles: 246352513 heartbeat IPC: 0.803737 cumulative IPC: 0.82008 (Simulation time: 1 hr 47 min 28 sec) 
Heartbeat CPU 4 instructions: 110000001 cycles: 246522448 heartbeat IPC: 0.310116 cumulative IPC: 0.368557 (Simulation time: 1 hr 47 min 33 sec) 
Heartbeat CPU 1 instructions: 120000000 cycles: 247773889 heartbeat IPC: 0.403545 cumulative IPC: 0.412009 (Simulation time: 1 hr 48 min 3 sec) 
Heartbeat CPU 3 instructions: 280000000 cycles: 251800575 heartbeat IPC: 1.05809 cumulative IPC: 1.07149 (Simulation time: 1 hr 49 min 44 sec) 
Heartbeat CPU 5 instructions: 250000003 cycles: 253354178 heartbeat IPC: 0.953086 cumulative IPC: 0.948949 (Simulation time: 1 hr 50 min 22 sec) 
Finished CPU 1 instructions: 100000000 cycles: 242834125 cumulative IPC: 0.411804 (Simulation time: 1 hr 51 min 7 sec) 
Heartbeat CPU 2 instructions: 120000000 cycles: 256002369 heartbeat IPC: 0.641498 cumulative IPC: 0.410457 (Simulation time: 1 hr 51 min 27 sec) 
Finished CPU 2 instructions: 100000000 cycles: 243631059 cumulative IPC: 0.410457 (Simulation time: 1 hr 51 min 27 sec) 
Heartbeat CPU 7 instructions: 180000000 cycles: 256628573 heartbeat IPC: 0.344867 cumulative IPC: 0.618683 (Simulation time: 1 hr 51 min 43 sec) 
Heartbeat CPU 6 instructions: 230000002 cycles: 258859221 heartbeat IPC: 0.799571 cumulative IPC: 0.819039 (Simulation time: 1 hr 52 min 36 sec) 
Heartbeat CPU 3 instructions: 290000003 cycles: 261297460 heartbeat IPC: 1.05298 cumulative IPC: 1.07078 (Simulation time: 1 hr 53 min 36 sec) 
Heartbeat CPU 5 instructions: 260000000 cycles: 263928615 heartbeat IPC: 0.945677 cumulative IPC: 0.948811 (Simulation time: 1 hr 54 min 39 sec) 
Heartbeat CPU 0 instructions: 120000000 cycles: 269385612 heartbeat IPC: 0.404644 cumulative IPC: 0.377547 (Simulation time: 1 hr 56 min 51 sec) 
Heartbeat CPU 3 instructions: 300000000 cycles: 270794135 heartbeat IPC: 1.053 cumulative IPC: 1.07013 (Simulation time: 1 hr 57 min 24 sec) 
Heartbeat CPU 6 instructions: 240000000 cycles: 271512888 heartbeat IPC: 0.790285 cumulative IPC: 0.817635 (Simulation time: 1 hr 57 min 41 sec) 
Heartbeat CPU 1 instructions: 130000001 cycles: 272505782 heartbeat IPC: 0.404336 cumulative IPC: 0.411279 (Simulation time: 1 hr 58 min 5 sec) 
Heartbeat CPU 5 instructions: 270000003 cycles: 274416126 heartbeat IPC: 0.953515 cumulative IPC: 0.948999 (Simulation time: 1 hr 58 min 51 sec) 
Finished CPU 0 instructions: 100000000 cycles: 264315310 cumulative IPC: 0.378336 (Simulation time: 1 hr 59 min 42 sec) 
Heartbeat CPU 2 instructions: 130000000 cycles: 278324784 heartbeat IPC: 0.44798 cumulative IPC: 0.413606 (Simulation time: 2 hr 0 min 21 sec) 
Heartbeat CPU 4 instructions: 120000000 cycles: 279197826 heartbeat IPC: 0.306041 cumulative IPC: 0.360901 (Simulation time: 2 hr 0 min 42 sec) 
Heartbeat CPU 3 instructions: 310000001 cycles: 280373914 heartbeat IPC: 1.04387 cumulative IPC: 1.06919 (Simulation time: 2 hr 1 min 8 sec) 
Heartbeat CPU 6 instructions: 250000000 cycles: 284239377 heartbeat IPC: 0.785763 cumulative IPC: 0.816143 (Simulation time: 2 hr 2 min 35 sec) 
Heartbeat CPU 5 instructions: 280000000 cycles: 285079098 heartbeat IPC: 0.937825 cumulative IPC: 0.948562 (Simulation time: 2 hr 2 min 54 sec) 
Heartbeat CPU 7 instructions: 190000000 cycles: 287353648 heartbeat IPC: 0.325467 cumulative IPC: 0.585921 (Simulation time: 2 hr 3 min 45 sec) 
Heartbeat CPU 3 instructions: 320000000 cycles: 289947543 heartbeat IPC: 1.04454 cumulative IPC: 1.06834 (Simulation time: 2 hr 4 min 45 sec) 
Finished CPU 4 instructions: 100000002 cycles: 278114714 cumulative IPC: 0.359564 (Simulation time: 2 hr 4 min 58 sec) 

CPU 0 Branch Prediction Accuracy: 99.833% MPKI: 0.350236

CPU 1 Branch Prediction Accuracy: 97.9398% MPKI: 3.65204

CPU 2 Branch Prediction Accuracy: 99.2054% MPKI: 1.99895

CPU 3 Branch Prediction Accuracy: 99.9707% MPKI: 0.00722975

CPU 4 Branch Prediction Accuracy: 99.264% MPKI: 1.81271

CPU 5 Branch Prediction Accuracy: 99.9835% MPKI: 0.00110517

CPU 6 Branch Prediction Accuracy: 99.975% MPKI: 0.00422953

CPU 7 Branch Prediction Accuracy: 98.2184% MPKI: 0.233199

ChampSim completed all CPUs

Total Simulation Statistics (not including warmup)

CPU 0 cumulative IPC: 0.37448 instructions: 104148492 cycles: 278114713
L1D TOTAL     ACCESS:   32704065  HIT:   30827085  MISS:    1876980
L1D LOAD      ACCESS:   21343136  HIT:   19469366  MISS:    1873770
L1D RFO       ACCESS:   11360929  HIT:   11357719  MISS:       3210
L1D PREFETCH  ACCESS:          0  HIT:          0  MISS:          0
L1D WRITEBACK ACCESS:          0  HIT:          0  MISS:          0
L1I TOTAL     ACCESS:   40480434  HIT:   40480345  MISS:         89
L1I LOAD      ACCESS:   40480434  HIT:   40480345  MISS:         89
L1I RFO       ACCESS:          0  HIT:          0  MISS:          0
L1I PREFETCH  ACCESS:          0  HIT:          0  MISS:          0
L1I WRITEBACK ACCESS:          0  HIT:          0  MISS:          0
L2C TOTAL     ACCESS:    4516265  HIT:    3471398  MISS:    1044867
L2C LOAD      ACCESS:    1873859  HIT:    1722706  MISS:     151153
L2C RFO       ACCESS:       3210  HIT:        870  MISS:       2340
L2C PREFETCH  ACCESS:    2616254  HIT:    1724939  MISS:     891315
L2C WRITEBACK ACCESS:      22942  HIT:      22883  MISS:         59

Avg Lookahead Depth:	2.52694
TOTAL: 1.02364e+08	L2C: 7.33649e+07	LLC: 2.89994e+07	GOOD_L2C: 4.30499e+07
Printing all the perceptron weights to: perc_weights_0.csv
LLC TOTAL     ACCESS:    1238356  HIT:     168766  MISS:    1069590
LLC LOAD      ACCESS:      89014  HIT:      14316  MISS:      74698
LLC RFO       ACCESS:       2333  HIT:         73  MISS:       2260
LLC PREFETCH  ACCESS:    1134078  HIT:     144131  MISS:     989947
LLC WRITEBACK ACCESS:      12931  HIT:      10246  MISS:       2685

CPU 1 cumulative IPC: 0.410033 instructions: 114036279 cycles: 278114713
L1D TOTAL     ACCESS:   45327097  HIT:   27802738  MISS:   17524359
L1D LOAD      ACCESS:   38301634  HIT:   21103139  MISS:   17198495
L1D RFO       ACCESS:    7025463  HIT:    6699599  MISS:     325864
L1D PREFETCH  ACCESS:          0  HIT:          0  MISS:          0
L1D WRITEBACK ACCESS:          0  HIT:          0  MISS:          0
L1I TOTAL     ACCESS:   39932063  HIT:   39932063  MISS:          0
L1I LOAD      ACCESS:   39932063  HIT:   39932063  MISS:          0
L1I RFO       ACCESS:          0  HIT:          0  MISS:          0
L1I PREFETCH  ACCESS:          0  HIT:          0  MISS:          0
L1I WRITEBACK ACCESS:          0  HIT:          0  MISS:          0
L2C TOTAL     ACCESS:   34163653  HIT:   13044035  MISS:   21119618
L2C LOAD      ACCESS:   17198495  HIT:   10623189  MISS:    6575306
L2C RFO       ACCESS:     325864  HIT:      11504  MISS:     314360
L2C PREFETCH  ACCESS:   16232897  HIT:    2003976  MISS:   14228921
L2C WRITEBACK ACCESS:     406397  HIT:     405366  MISS:       1031

Avg Lookahead Depth:	2.52694
TOTAL: 1.02364e+08	L2C: 7.33649e+07	LLC: 2.89994e+07	GOOD_L2C: 4.30499e+07
Printing all the perceptron weights to: perc_weights_0.csv
LLC TOTAL     ACCESS:   23926954  HIT:   22958033  MISS:     968921
LLC LOAD      ACCESS:    2974042  HIT:    2943827  MISS:      30215
LLC RFO       ACCESS:     313887  HIT:       2415  MISS:     311472
LLC PREFETCH  ACCESS:   20234550  HIT:   19607377  MISS:     627173
LLC WRITEBACK ACCESS:     404475  HIT:     404414  MISS:         61

CPU 2 cumulative IPC: 0.40938 instructions: 113854580 cycles: 278114713
L1D TOTAL     ACCESS:   29211126  HIT:   24598864  MISS:    4612262
L1D LOAD      ACCESS:   20311704  HIT:   15895840  MISS:    4415864
L1D RFO       ACCESS:    8899422  HIT:    8703024  MISS:     196398
L1D PREFETCH  ACCESS:          0  HIT:          0  MISS:          0
L1D WRITEBACK ACCESS:          0  HIT:          0  MISS:          0
L1I TOTAL     ACCESS:   48906904  HIT:   48591546  MISS:     315358
L1I LOAD      ACCESS:   48906904  HIT:   48591546  MISS:     315358
L1I RFO       ACCESS:          0  HIT:          0  MISS:          0
L1I PREFETCH  ACCESS:          0  HIT:          0  MISS:          0
L1I WRITEBACK ACCESS:          0  HIT:          0  MISS:          0
L2C TOTAL     ACCESS:    9327013  HIT:    7618626  MISS:    1708387
L2C LOAD      ACCESS:    4731199  HIT:    3845023  MISS:     886176
L2C RFO       ACCESS:     196398  HIT:      53071  MISS:     143327
L2C PREFETCH  ACCESS:    4064021  HIT:    3385457  MISS:     678564
L2C WRITEBACK ACCESS:     335395  HIT:     335075  MISS:        320

Avg Lookahead Depth:	2.52694
TOTAL: 1.02364e+08	L2C: 7.33649e+07	LLC: 2.89994e+07	GOOD_L2C: 4.30499e+07
Printing all the perceptron weights to: perc_weights_0.csv
LLC TOTAL     ACCESS:    2913936  HIT:    2382566  MISS:     531370
LLC LOAD      ACCESS:     826317  HIT:     762919  MISS:      63398
LLC RFO       ACCESS:     142311  HIT:      11999  MISS:     130312
LLC PREFETCH  ACCESS:    1736634  HIT:    1405609  MISS:     331025
LLC WRITEBACK ACCESS:     208674  HIT:     202039  MISS:       6635

CPU 3 cumulative IPC: 1.0683 instructions: 297109127 cycles: 278114714
L1D TOTAL     ACCESS:  113422242  HIT:  107260609  MISS:    6161633
L1D LOAD      ACCESS:   97104152  HIT:   91125581  MISS:    5978571
L1D RFO       ACCESS:   16318090  HIT:   16135028  MISS:     183062
L1D PREFETCH  ACCESS:          0  HIT:          0  MISS:          0
L1D WRITEBACK ACCESS:          0  HIT:          0  MISS:          0
L1I TOTAL     ACCESS:   73095066  HIT:   73095066  MISS:          0
L1I LOAD      ACCESS:   73095066  HIT:   73095066  MISS:          0
L1I RFO       ACCESS:          0  HIT:          0  MISS:          0
L1I PREFETCH  ACCESS:          0  HIT:          0  MISS:          0
L1I WRITEBACK ACCESS:          0  HIT:          0  MISS:          0
L2C TOTAL     ACCESS:   14362223  HIT:    8701411  MISS:    5660812
L2C LOAD      ACCESS:    5976740  HIT:    5421407  MISS:     555333
L2C RFO       ACCESS:     179499  HIT:      34735  MISS:     144764
L2C PREFETCH  ACCESS:    8005812  HIT:    3045446  MISS:    4960366
L2C WRITEBACK ACCESS:     200172  HIT:     199823  MISS:        349

Avg Lookahead Depth:	2.52694
TOTAL: 1.02364e+08	L2C: 7.33649e+07	LLC: 2.89994e+07	GOOD_L2C: 4.30499e+07
Printing all the perceptron weights to: perc_weights_0.csv
LLC TOTAL     ACCESS:    6602815  HIT:     955863  MISS:    5646952
LLC LOAD      ACCESS:     285424  HIT:      55858  MISS:     229566
LLC RFO       ACCESS:     144764  HIT:          0  MISS:     144764
LLC PREFETCH  ACCESS:    6027126  HIT:     754690  MISS:    5272436
LLC WRITEBACK ACCESS:     145501  HIT:     145315  MISS:        186

CPU 4 cumulative IPC: 0.359564 instructions: 100000002 cycles: 278114714
L1D TOTAL     ACCESS:   24313604  HIT:   19265742  MISS:    5047862
L1D LOAD      ACCESS:   17372981  HIT:   12528494  MISS:    4844487
L1D RFO       ACCESS:    6940623  HIT:    6737248  MISS:     203375
L1D PREFETCH  ACCESS:          0  HIT:          0  MISS:          0
L1D WRITEBACK ACCESS:          0  HIT:          0  MISS:          0
L1I TOTAL     ACCESS:   43474707  HIT:   43222832  MISS:     251875
L1I LOAD      ACCESS:   43474707  HIT:   43222832  MISS:     251875
L1I RFO       ACCESS:          0  HIT:          0  MISS:          0
L1I PREFETCH  ACCESS:          0  HIT:          0  MISS:          0
L1I WRITEBACK ACCESS:          0  HIT:          0  MISS:          0
L2C TOTAL     ACCESS:    9279920  HIT:    5332432  MISS:    3947488
L2C LOAD      ACCESS:    5096322  HIT:    2607175  MISS:    2489147
L2C RFO       ACCESS:     203371  HIT:      32617  MISS:     170754
L2C PREFETCH  ACCESS:    3665840  HIT:    2378449  MISS:    1287391
L2C WRITEBACK ACCESS:     314387  HIT:     314191  MISS:        196

Avg Lookahead Depth:	2.52694
TOTAL: 1.02364e+08	L2C: 7.33649e+07	LLC: 2.89994e+07	GOOD_L2C: 4.30499e+07
Printing all the perceptron weights to: perc_weights_0.csv
LLC TOTAL     ACCESS:    5649157  HIT:    5072060  MISS:     577097
LLC LOAD      ACCESS:    2307463  HIT:    2266896  MISS:      40567
LLC RFO       ACCESS:     170106  HIT:      16754  MISS:     153352
LLC PREFETCH  ACCESS:    2934077  HIT:    2551826  MISS:     382251
LLC WRITEBACK ACCESS:     237511  HIT:     236584  MISS:        927

CPU 5 cumulative IPC: 0.948525 instructions: 263798655 cycles: 278114714
L1D TOTAL     ACCESS:  105795370  HIT:   84642814  MISS:   21152556
L1D LOAD      ACCESS:   84669615  HIT:   65249549  MISS:   19420066
L1D RFO       ACCESS:   21125755  HIT:   19393265  MISS:    1732490
L1D PREFETCH  ACCESS:          0  HIT:          0  MISS:          0
L1D WRITEBACK ACCESS:          0  HIT:          0  MISS:          0
L1I TOTAL     ACCESS:   62943814  HIT:   56085345  MISS:    6858469
L1I LOAD      ACCESS:   62943814  HIT:   56085345  MISS:    6858469
L1I RFO       ACCESS:          0  HIT:          0  MISS:          0
L1I PREFETCH  ACCESS:          0  HIT:          0  MISS:          0
L1I WRITEBACK ACCESS:          0  HIT:          0  MISS:          0
L2C TOTAL     ACCESS:   56732887  HIT:   53459790  MISS:    3273097
L2C LOAD      ACCESS:   26277168  HIT:   25287282  MISS:     989886
L2C RFO       ACCESS:    1730988  HIT:    1448287  MISS:     282701
L2C PREFETCH  ACCESS:   26779849  HIT:   24784653  MISS:    1995196
L2C WRITEBACK ACCESS:    1944882  HIT:    1939568  MISS:       5314

Avg Lookahead Depth:	2.52694
TOTAL: 1.02364e+08	L2C: 7.33649e+07	LLC: 2.89994e+07	GOOD_L2C: 4.30499e+07
Printing all the perceptron weights to: perc_weights_0.csv
LLC TOTAL     ACCESS:    6452463  HIT:    5719543  MISS:     732920
LLC LOAD      ACCESS:     928896  HIT:     807020  MISS:     121876
LLC RFO       ACCESS:     250602  HIT:      95350  MISS:     155252
LLC PREFETCH  ACCESS:    4982434  HIT:    4529072  MISS:     453362
LLC WRITEBACK ACCESS:     290531  HIT:     288101  MISS:       2430

CPU 6 cumulative IPC: 0.815841 instructions: 226897349 cycles: 278114714
L1D TOTAL     ACCESS:   48320274  HIT:   45317572  MISS:    3002702
L1D LOAD      ACCESS:   32398440  HIT:   29399217  MISS:    2999223
L1D RFO       ACCESS:   15921834  HIT:   15918355  MISS:       3479
L1D PREFETCH  ACCESS:          0  HIT:          0  MISS:          0
L1D WRITEBACK ACCESS:          0  HIT:          0  MISS:          0
L1I TOTAL     ACCESS:   46850922  HIT:   46850922  MISS:          0
L1I LOAD      ACCESS:   46850922  HIT:   46850922  MISS:          0
L1I RFO       ACCESS:          0  HIT:          0  MISS:          0
L1I PREFETCH  ACCESS:          0  HIT:          0  MISS:          0
L1I WRITEBACK ACCESS:          0  HIT:          0  MISS:          0
L2C TOTAL     ACCESS:    8492273  HIT:    5549061  MISS:    2943212
L2C LOAD      ACCESS:    2999223  HIT:    2627285  MISS:     371938
L2C RFO       ACCESS:       3479  HIT:        502  MISS:       2977
L2C PREFETCH  ACCESS:    3496286  HIT:     927989  MISS:    2568297
L2C WRITEBACK ACCESS:    1993285  HIT:    1993285  MISS:          0

Avg Lookahead Depth:	2.52694
TOTAL: 1.02364e+08	L2C: 7.33649e+07	LLC: 2.89994e+07	GOOD_L2C: 4.30499e+07
Printing all the perceptron weights to: perc_weights_0.csv
LLC TOTAL     ACCESS:    5197597  HIT:    3202973  MISS:    1994624
LLC LOAD      ACCESS:      95689  HIT:      40862  MISS:      54827
LLC RFO       ACCESS:       2936  HIT:       2936  MISS:          0
LLC PREFETCH  ACCESS:    3106730  HIT:    1166950  MISS:    1939780
LLC WRITEBACK ACCESS:    1992242  HIT:    1992225  MISS:         17

CPU 7 cumulative IPC: 0.583735 instructions: 162345306 cycles: 278114714
L1D TOTAL     ACCESS:   43587353  HIT:   34823305  MISS:    8764048
L1D LOAD      ACCESS:   17063889  HIT:   15735291  MISS:    1328598
L1D RFO       ACCESS:   26523464  HIT:   19088014  MISS:    7435450
L1D PREFETCH  ACCESS:          0  HIT:          0  MISS:          0
L1D WRITEBACK ACCESS:          0  HIT:          0  MISS:          0
L1I TOTAL     ACCESS:   38563739  HIT:   38563739  MISS:          0
L1I LOAD      ACCESS:   38563739  HIT:   38563739  MISS:          0
L1I RFO       ACCESS:          0  HIT:          0  MISS:          0
L1I PREFETCH  ACCESS:          0  HIT:          0  MISS:          0
L1I WRITEBACK ACCESS:          0  HIT:          0  MISS:          0
L2C TOTAL     ACCESS:   17617134  HIT:   11038242  MISS:    6578892
L2C LOAD      ACCESS:    1328598  HIT:     938782  MISS:     389816
L2C RFO       ACCESS:    7435445  HIT:    2186087  MISS:    5249358
L2C PREFETCH  ACCESS:    1417635  HIT:     479085  MISS:     938550
L2C WRITEBACK ACCESS:    7435456  HIT:    7434288  MISS:       1168

Avg Lookahead Depth:	2.52694
TOTAL: 1.02364e+08	L2C: 7.33649e+07	LLC: 2.89994e+07	GOOD_L2C: 4.30499e+07
Printing all the perceptron weights to: perc_weights_0.csv
LLC TOTAL     ACCESS:   12041503  HIT:    6731740  MISS:    5309763
LLC LOAD      ACCESS:     187681  HIT:      32727  MISS:     154954
LLC RFO       ACCESS:    5246385  HIT:    1264435  MISS:    3981950
LLC PREFETCH  ACCESS:    1357083  HIT:     184452  MISS:    1172631
LLC WRITEBACK ACCESS:    5250354  HIT:    5250126  MISS:        228

Region of Interest Statistics

CPU 0 cumulative IPC: 0.378336 instructions: 100000000 cycles: 264315310
L1D TOTAL     ACCESS:   31465509  HIT:   29722728  MISS:    1742781
L1D LOAD      ACCESS:   20488027  HIT:   18747942  MISS:    1740085
L1D RFO       ACCESS:   10977482  HIT:   10974786  MISS:       2696
L1D PREFETCH  ACCESS:          0  HIT:          0  MISS:          0
L1D WRITEBACK ACCESS:          0  HIT:          0  MISS:          0
L1D PREFETCH  REQUESTED:          0  ISSUED:          0  USEFUL:          0  USELESS:          0
L1I TOTAL     ACCESS:   38773548  HIT:   38773459  MISS:         89
L1I LOAD      ACCESS:   38773548  HIT:   38773459  MISS:         89
L1I RFO       ACCESS:          0  HIT:          0  MISS:          0
L1I PREFETCH  ACCESS:          0  HIT:          0  MISS:          0
L1I WRITEBACK ACCESS:          0  HIT:          0  MISS:          0
L1I PREFETCH  REQUESTED:          0  ISSUED:          0  USEFUL:          0  USELESS:          0
L2C TOTAL     ACCESS:    4246679  HIT:    3240237  MISS:    1006442
L2C LOAD      ACCESS:    1740174  HIT:    1597445  MISS:     142729
L2C RFO       ACCESS:       2696  HIT:        455  MISS:       2241
L2C PREFETCH  ACCESS:    2485088  HIT:    1623672  MISS:     861416
L2C WRITEBACK ACCESS:      18721  HIT:      18665  MISS:         56
L2C PREFETCH  REQUESTED:    3599770  ISSUED:    3599770  USEFUL:    1014518  USELESS:      58983
LLC TOTAL     ACCESS:    1182801  HIT:     156295  MISS:    1026506
LLC LOAD      ACCESS:      81636  HIT:      13220  MISS:      68416
LLC RFO       ACCESS:       2234  HIT:         65  MISS:       2169
LLC PREFETCH  ACCESS:    1088489  HIT:     134503  MISS:     953986
LLC WRITEBACK ACCESS:      10442  HIT:       8507  MISS:       1935
LLC PREFETCH  REQUESTED:          0  ISSUED:          0  USEFUL:     557321  USELESS:   11765169
Major fault: 0 Minor fault: 8960

CPU 1 cumulative IPC: 0.411804 instructions: 100000000 cycles: 242834125
L1D TOTAL     ACCESS:   39746870  HIT:   24375686  MISS:   15371184
L1D LOAD      ACCESS:   33596905  HIT:   18513613  MISS:   15083292
L1D RFO       ACCESS:    6149965  HIT:    5862073  MISS:     287892
L1D PREFETCH  ACCESS:          0  HIT:          0  MISS:          0
L1D WRITEBACK ACCESS:          0  HIT:          0  MISS:          0
L1D PREFETCH  REQUESTED:          0  ISSUED:          0  USEFUL:          0  USELESS:          0
L1I TOTAL     ACCESS:   35004230  HIT:   35004230  MISS:          0
L1I LOAD      ACCESS:   35004230  HIT:   35004230  MISS:          0
L1I RFO       ACCESS:          0  HIT:          0  MISS:          0
L1I PREFETCH  ACCESS:          0  HIT:          0  MISS:          0
L1I WRITEBACK ACCESS:          0  HIT:          0  MISS:          0
L1I PREFETCH  REQUESTED:          0  ISSUED:          0  USEFUL:          0  USELESS:          0
L2C TOTAL     ACCESS:   29995296  HIT:   11471980  MISS:   18523316
L2C LOAD      ACCESS:   15083292  HIT:    9344533  MISS:    5738759
L2C RFO       ACCESS:     287892  HIT:      10012  MISS:     277880
L2C PREFETCH  ACCESS:   14266797  HIT:    1761017  MISS:   12505780
L2C WRITEBACK ACCESS:     357315  HIT:     356418  MISS:        897
L2C PREFETCH  REQUESTED:   28965130  ISSUED:   28960475  USEFUL:   13809456  USELESS:    3997129
LLC TOTAL     ACCESS:   20985554  HIT:   20140356  MISS:     845198
LLC LOAD      ACCESS:    2601395  HIT:    2574840  MISS:      26555
LLC RFO       ACCESS:     277488  HIT:       2112  MISS:     275376
LLC PREFETCH  ACCESS:   17750825  HIT:   17207610  MISS:     543215
LLC WRITEBACK ACCESS:     355846  HIT:     355794  MISS:         52
LLC PREFETCH  REQUESTED:          0  ISSUED:          0  USEFUL:     557321  USELESS:   11765169
Major fault: 0 Minor fault: 12395

CPU 2 cumulative IPC: 0.410457 instructions: 100000000 cycles: 243631059
L1D TOTAL     ACCESS:   25860148  HIT:   21884996  MISS:    3975152
L1D LOAD      ACCESS:   17786117  HIT:   13992569  MISS:    3793548
L1D RFO       ACCESS:    8074031  HIT:    7892427  MISS:     181604
L1D PREFETCH  ACCESS:          0  HIT:          0  MISS:          0
L1D WRITEBACK ACCESS:          0  HIT:          0  MISS:          0
L1D PREFETCH  REQUESTED:          0  ISSUED:          0  USEFUL:          0  USELESS:          0
L1I TOTAL     ACCESS:   43181278  HIT:   42891704  MISS:     289574
L1I LOAD      ACCESS:   43181278  HIT:   42891704  MISS:     289574
L1I RFO       ACCESS:          0  HIT:          0  MISS:          0
L1I PREFETCH  ACCESS:          0  HIT:          0  MISS:          0
L1I WRITEBACK ACCESS:          0  HIT:          0  MISS:          0
L1I PREFETCH  REQUESTED:          0  ISSUED:          0  USEFUL:          0  USELESS:          0
L2C TOTAL     ACCESS:    8102613  HIT:    6602443  MISS:    1500170
L2C LOAD      ACCESS:    4083104  HIT:    3310030  MISS:     773074
L2C RFO       ACCESS:     181604  HIT:      48980  MISS:     132624
L2C PREFETCH  ACCESS:    3534501  HIT:    2940309  MISS:     594192
L2C WRITEBACK ACCESS:     303404  HIT:     303124  MISS:        280
L2C PREFETCH  REQUESTED:    6350805  ISSUED:    6350705  USEFUL:     127685  USELESS:     671138
LLC TOTAL     ACCESS:    2550060  HIT:    2085289  MISS:     464771
LLC LOAD      ACCESS:     720532  HIT:     668537  MISS:      51995
LLC RFO       ACCESS:     131669  HIT:      10699  MISS:     120970
LLC PREFETCH  ACCESS:    1509417  HIT:    1223170  MISS:     286247
LLC WRITEBACK ACCESS:     188442  HIT:     182883  MISS:       5559
LLC PREFETCH  REQUESTED:          0  ISSUED:          0  USEFUL:     557321  USELESS:   11765169
Major fault: 0 Minor fault: 2193

CPU 3 cumulative IPC: 1.08361 instructions: 100000000 cycles: 92284093
L1D TOTAL     ACCESS:   38178653  HIT:   36104472  MISS:    2074181
L1D LOAD      ACCESS:   32684919  HIT:   30672445  MISS:    2012474
L1D RFO       ACCESS:    5493734  HIT:    5432027  MISS:      61707
L1D PREFETCH  ACCESS:          0  HIT:          0  MISS:          0
L1D WRITEBACK ACCESS:          0  HIT:          0  MISS:          0
L1D PREFETCH  REQUESTED:          0  ISSUED:          0  USEFUL:          0  USELESS:          0
L1I TOTAL     ACCESS:   24596354  HIT:   24596354  MISS:          0
L1I LOAD      ACCESS:   24596354  HIT:   24596354  MISS:          0
L1I RFO       ACCESS:          0  HIT:          0  MISS:          0
L1I PREFETCH  ACCESS:          0  HIT:          0  MISS:          0
L1I WRITEBACK ACCESS:          0  HIT:          0  MISS:          0
L1I PREFETCH  REQUESTED:          0  ISSUED:          0  USEFUL:          0  USELESS:          0
L2C TOTAL     ACCESS:    4850842  HIT:    2945633  MISS:    1905209
L2C LOAD      ACCESS:    2011869  HIT:    1831877  MISS:     179992
L2C RFO       ACCESS:      60515  HIT:      11791  MISS:      48724
L2C PREFETCH  ACCESS:    2711023  HIT:    1034657  MISS:    1676366
L2C WRITEBACK ACCESS:      67435  HIT:      67308  MISS:        127
L2C PREFETCH  REQUESTED:   11387226  ISSUED:   11261216  USEFUL:    5359766  USELESS:       4898
LLC TOTAL     ACCESS:    2223142  HIT:     322574  MISS:    1900568
LLC LOAD      ACCESS:      95051  HIT:      18632  MISS:      76419
LLC RFO       ACCESS:      48724  HIT:          0  MISS:      48724
LLC PREFETCH  ACCESS:    2030401  HIT:     255025  MISS:    1775376
LLC WRITEBACK ACCESS:      48966  HIT:      48917  MISS:         49
LLC PREFETCH  REQUESTED:          0  ISSUED:          0  USEFUL:     557321  USELESS:   11765169
Major fault: 0 Minor fault: 90590

CPU 4 cumulative IPC: 0.359564 instructions: 100000002 cycles: 278114714
L1D TOTAL     ACCESS:   24313604  HIT:   19265742  MISS:    5047862
L1D LOAD      ACCESS:   17372981  HIT:   12528494  MISS:    4844487
L1D RFO       ACCESS:    6940623  HIT:    6737248  MISS:     203375
L1D PREFETCH  ACCESS:          0  HIT:          0  MISS:          0
L1D WRITEBACK ACCESS:          0  HIT:          0  MISS:          0
L1D PREFETCH  REQUESTED:          0  ISSUED:          0  USEFUL:          0  USELESS:          0
L1I TOTAL     ACCESS:   43474707  HIT:   43222832  MISS:     251875
L1I LOAD      ACCESS:   43474707  HIT:   43222832  MISS:     251875
L1I RFO       ACCESS:          0  HIT:          0  MISS:          0
L1I PREFETCH  ACCESS:          0  HIT:          0  MISS:          0
L1I WRITEBACK ACCESS:          0  HIT:          0  MISS:          0
L1I PREFETCH  REQUESTED:          0  ISSUED:          0  USEFUL:          0  USELESS:          0
L2C TOTAL     ACCESS:    9279920  HIT:    5332432  MISS:    3947488
L2C LOAD      ACCESS:    5096322  HIT:    2607175  MISS:    2489147
L2C RFO       ACCESS:     203371  HIT:      32617  MISS:     170754
L2C PREFETCH  ACCESS:    3665840  HIT:    2378449  MISS:    1287391
L2C WRITEBACK ACCESS:     314387  HIT:     314191  MISS:        196
L2C PREFETCH  REQUESTED:    7302396  ISSUED:    7302396  USEFUL:     418904  USELESS:    1157449
LLC TOTAL     ACCESS:    5649157  HIT:    5072060  MISS:     577097
LLC LOAD      ACCESS:    2307463  HIT:    2266896  MISS:      40567
LLC RFO       ACCESS:     170106  HIT:      16754  MISS:     153352
LLC PREFETCH  ACCESS:    2934077  HIT:    2551826  MISS:     382251
LLC WRITEBACK ACCESS:     237511  HIT:     236584  MISS:        927
LLC PREFETCH  REQUESTED:          0  ISSUED:          0  USEFUL:     557321  USELESS:   11765169
Major fault: 0 Minor fault: 4198

CPU 5 cumulative IPC: 0.954243 instructions: 100000001 cycles: 104795148
L1D TOTAL     ACCESS:   40104479  HIT:   32086079  MISS:    8018400
L1D LOAD      ACCESS:   32096451  HIT:   24734959  MISS:    7361492
L1D RFO       ACCESS:    8008028  HIT:    7351120  MISS:     656908
L1D PREFETCH  ACCESS:          0  HIT:          0  MISS:          0
L1D WRITEBACK ACCESS:          0  HIT:          0  MISS:          0
L1D PREFETCH  REQUESTED:          0  ISSUED:          0  USEFUL:          0  USELESS:          0
L1I TOTAL     ACCESS:   23863492  HIT:   21263601  MISS:    2599891
L1I LOAD      ACCESS:   23863492  HIT:   21263601  MISS:    2599891
L1I RFO       ACCESS:          0  HIT:          0  MISS:          0
L1I PREFETCH  ACCESS:          0  HIT:          0  MISS:          0
L1I WRITEBACK ACCESS:          0  HIT:          0  MISS:          0
L1I PREFETCH  REQUESTED:          0  ISSUED:          0  USEFUL:          0  USELESS:          0
L2C TOTAL     ACCESS:   21552435  HIT:   20315017  MISS:    1237418
L2C LOAD      ACCESS:    9960872  HIT:    9594727  MISS:     366145
L2C RFO       ACCESS:     656333  HIT:     548613  MISS:     107720
L2C PREFETCH  ACCESS:   10197849  HIT:    9436306  MISS:     761543
L2C WRITEBACK ACCESS:     737381  HIT:     735371  MISS:       2010
L2C PREFETCH  REQUESTED:   37493654  ISSUED:   34480224  USEFUL:    1410894  USELESS:     749594
LLC TOTAL     ACCESS:    2432059  HIT:    2153277  MISS:     278782
LLC LOAD      ACCESS:     344140  HIT:     298329  MISS:      45811
LLC RFO       ACCESS:      95004  HIT:      36154  MISS:      58850
LLC PREFETCH  ACCESS:    1882325  HIT:    1709103  MISS:     173222
LLC WRITEBACK ACCESS:     110590  HIT:     109691  MISS:        899
LLC PREFETCH  REQUESTED:          0  ISSUED:          0  USEFUL:     557321  USELESS:   11765169
Major fault: 0 Minor fault: 9043

CPU 6 cumulative IPC: 0.835529 instructions: 100000000 cycles: 119684680
L1D TOTAL     ACCESS:   21300882  HIT:   19977508  MISS:    1323374
L1D LOAD      ACCESS:   14283692  HIT:   12961851  MISS:    1321841
L1D RFO       ACCESS:    7017190  HIT:    7015657  MISS:       1533
L1D PREFETCH  ACCESS:          0  HIT:          0  MISS:          0
L1D WRITEBACK ACCESS:          0  HIT:          0  MISS:          0
L1D PREFETCH  REQUESTED:          0  ISSUED:          0  USEFUL:          0  USELESS:          0
L1I TOTAL     ACCESS:   20655560  HIT:   20655560  MISS:          0
L1I LOAD      ACCESS:   20655560  HIT:   20655560  MISS:          0
L1I RFO       ACCESS:          0  HIT:          0  MISS:          0
L1I PREFETCH  ACCESS:          0  HIT:          0  MISS:          0
L1I WRITEBACK ACCESS:          0  HIT:          0  MISS:          0
L1I PREFETCH  REQUESTED:          0  ISSUED:          0  USEFUL:          0  USELESS:          0
L2C TOTAL     ACCESS:    3752888  HIT:    2456464  MISS:    1296424
L2C LOAD      ACCESS:    1321841  HIT:    1165880  MISS:     155961
L2C RFO       ACCESS:       1533  HIT:        224  MISS:       1309
L2C PREFETCH  ACCESS:    1551008  HIT:     411854  MISS:    1139154
L2C WRITEBACK ACCESS:     878506  HIT:     878506  MISS:          0
L2C PREFETCH  REQUESTED:    4900715  ISSUED:    4900715  USEFUL:    2907914  USELESS:      12301
LLC TOTAL     ACCESS:    2289241  HIT:    1410094  MISS:     879147
LLC LOAD      ACCESS:      42209  HIT:      18099  MISS:      24110
LLC RFO       ACCESS:       1288  HIT:       1288  MISS:          0
LLC PREFETCH  ACCESS:    1367656  HIT:     512621  MISS:     855035
LLC WRITEBACK ACCESS:     878088  HIT:     878086  MISS:          2
LLC PREFETCH  REQUESTED:          0  ISSUED:          0  USEFUL:     557321  USELESS:   11765169
Major fault: 0 Minor fault: 35044

CPU 7 cumulative IPC: 0.78264 instructions: 100000002 cycles: 127772715
L1D TOTAL     ACCESS:   25731075  HIT:   22016473  MISS:    3714602
L1D LOAD      ACCESS:   10747391  HIT:   10184563  MISS:     562828
L1D RFO       ACCESS:   14983684  HIT:   11831910  MISS:    3151774
L1D PREFETCH  ACCESS:          0  HIT:          0  MISS:          0
L1D WRITEBACK ACCESS:          0  HIT:          0  MISS:          0
L1D PREFETCH  REQUESTED:          0  ISSUED:          0  USEFUL:          0  USELESS:          0
L1I TOTAL     ACCESS:   23511081  HIT:   23511081  MISS:          0
L1I LOAD      ACCESS:   23511081  HIT:   23511081  MISS:          0
L1I RFO       ACCESS:          0  HIT:          0  MISS:          0
L1I PREFETCH  ACCESS:          0  HIT:          0  MISS:          0
L1I WRITEBACK ACCESS:          0  HIT:          0  MISS:          0
L1I PREFETCH  REQUESTED:          0  ISSUED:          0  USEFUL:          0  USELESS:          0
L2C TOTAL     ACCESS:    7512845  HIT:    4726416  MISS:    2786429
L2C LOAD      ACCESS:     562828  HIT:     431075  MISS:     131753
L2C RFO       ACCESS:    3151774  HIT:     928218  MISS:    2223556
L2C PREFETCH  ACCESS:     646471  HIT:     215387  MISS:     431084
L2C WRITEBACK ACCESS:    3151772  HIT:    3151736  MISS:         36
L2C PREFETCH  REQUESTED:    2364656  ISSUED:    2364656  USEFUL:    1084428  USELESS:        487
LLC TOTAL     ACCESS:    5113762  HIT:    2862458  MISS:    2251304
LLC LOAD      ACCESS:      61599  HIT:      13257  MISS:      48342
LLC RFO       ACCESS:    2222203  HIT:     533775  MISS:    1688428
LLC PREFETCH  ACCESS:     606458  HIT:      91960  MISS:     514498
LLC WRITEBACK ACCESS:    2223502  HIT:    2223466  MISS:         36
LLC PREFETCH  REQUESTED:          0  ISSUED:          0  USEFUL:     557321  USELESS:   11765169
Major fault: 0 Minor fault: 49478

Avg Lookahead Depth:	2.52694
TOTAL: 1.02364e+08	L2C: 7.33649e+07	LLC: 2.89994e+07	GOOD_L2C: 4.30499e+07
Printing all the perceptron weights to: perc_weights_0.csv

Avg Lookahead Depth:	2.52694
TOTAL: 1.02364e+08	L2C: 7.33649e+07	LLC: 2.89994e+07	GOOD_L2C: 4.30499e+07
Printing all the perceptron weights to: perc_weights_0.csv

Avg Lookahead Depth:	2.52694
TOTAL: 1.02364e+08	L2C: 7.33649e+07	LLC: 2.89994e+07	GOOD_L2C: 4.30499e+07
Printing all the perceptron weights to: perc_weights_0.csv

Avg Lookahead Depth:	2.52694
TOTAL: 1.02364e+08	L2C: 7.33649e+07	LLC: 2.89994e+07	GOOD_L2C: 4.30499e+07
Printing all the perceptron weights to: perc_weights_0.csv

Avg Lookahead Depth:	2.52694
TOTAL: 1.02364e+08	L2C: 7.33649e+07	LLC: 2.89994e+07	GOOD_L2C: 4.30499e+07
Printing all the perceptron weights to: perc_weights_0.csv

Avg Lookahead Depth:	2.52694
TOTAL: 1.02364e+08	L2C: 7.33649e+07	LLC: 2.89994e+07	GOOD_L2C: 4.30499e+07
Printing all the perceptron weights to: perc_weights_0.csv

Avg Lookahead Depth:	2.52694
TOTAL: 1.02364e+08	L2C: 7.33649e+07	LLC: 2.89994e+07	GOOD_L2C: 4.30499e+07
Printing all the perceptron weights to: perc_weights_0.csv

Avg Lookahead Depth:	2.52694
TOTAL: 1.02364e+08	L2C: 7.33649e+07	LLC: 2.89994e+07	GOOD_L2C: 4.30499e+07
Printing all the perceptron weights to: perc_weights_0.csv

DRAM Statistics
 CHANNEL 0
 RQ ROW_BUFFER_HIT:    3561667  ROW_BUFFER_MISS:    4845205
 DBUS_CONGESTED:   18992738
 WQ ROW_BUFFER_HIT:     297342  ROW_BUFFER_MISS:    3228707  FULL:          0

 CHANNEL 1
 RQ ROW_BUFFER_HIT:    3550177  ROW_BUFFER_MISS:    4860993
 DBUS_CONGESTED:   18992738
 WQ ROW_BUFFER_HIT:     297034  ROW_BUFFER_MISS:    3229275  FULL:          0

 AVG_CONGESTED_CYCLE: 14
