Initialize SIGNATURE TABLE
ST_SET: 1
ST_WAY: 256
ST_TAG_BIT: 16
ST_TAG_MASK: ffff

Initialize PATTERN TABLE
PT_SET: 512
PT_WAY: 4
SIG_DELTA_BIT: 7
C_SIG_BIT: 4
C_DELTA_BIT: 4

Initialize PREFETCH FILTER
FILTER_SET: 1024

Initialize PERCEPTRON
PERC_ENTRIES: 4096
PERC_FEATURES: 9

*** ChampSim Multicore Out-of-Order Simulator ***

Warmup Instructions: 20000000
Simulation Instructions: 100000000
Number of CPUs: 8
LLC sets: 16384
LLC ways: 16
Off-chip DRAM Size: 8192 MB Channels: 2 Width: 64-bit Data Rate: 1600 MT/s

CPU 0 runs /scratch/user/djimenez/champsim-traces/speccpu2017/xz/605.mcf_s/605.mcf_s-1644B.champsimtrace.xz
CPU 1 runs /scratch/user/djimenez/champsim-traces/speccpu2017/xz/602.gcc_s/602.gcc_s-2226B.champsimtrace.xz
CPU 2 runs /scratch/user/djimenez/champsim-traces/speccpu2017/xz/654.roms_s/654.roms_s-1070B.champsimtrace.xz
CPU 3 runs /scratch/user/djimenez/champsim-traces/speccpu2017/xz/644.nab_s/644.nab_s-12459B.champsimtrace.xz
CPU 4 runs /scratch/user/djimenez/champsim-traces/speccpu2017/xz/605.mcf_s/605.mcf_s-1554B.champsimtrace.xz
CPU 5 runs /scratch/user/djimenez/champsim-traces/speccpu2017/xz/654.roms_s/654.roms_s-293B.champsimtrace.xz
CPU 6 runs /scratch/user/djimenez/champsim-traces/speccpu2017/xz/602.gcc_s/602.gcc_s-1850B.champsimtrace.xz
CPU 7 runs /scratch/user/djimenez/champsim-traces/speccpu2017/xz/603.bwaves_s/603.bwaves_s-2609B.champsimtrace.xz
Heartbeat CPU 5 instructions: 10000002 cycles: 4484114 heartbeat IPC: 2.2301 cumulative IPC: 2.2301 (Simulation time: 0 hr 3 min 29 sec) 
Heartbeat CPU 3 instructions: 10000000 cycles: 4637073 heartbeat IPC: 2.15653 cumulative IPC: 2.15653 (Simulation time: 0 hr 3 min 36 sec) 
Heartbeat CPU 1 instructions: 10000000 cycles: 4855757 heartbeat IPC: 2.05941 cumulative IPC: 2.05941 (Simulation time: 0 hr 3 min 46 sec) 
Heartbeat CPU 2 instructions: 10000001 cycles: 4948743 heartbeat IPC: 2.02072 cumulative IPC: 2.02072 (Simulation time: 0 hr 3 min 50 sec) 
Heartbeat CPU 7 instructions: 10000001 cycles: 5274575 heartbeat IPC: 1.89589 cumulative IPC: 1.89589 (Simulation time: 0 hr 4 min 5 sec) 
Heartbeat CPU 4 instructions: 10000001 cycles: 5403430 heartbeat IPC: 1.85068 cumulative IPC: 1.85068 (Simulation time: 0 hr 4 min 11 sec) 
Heartbeat CPU 6 instructions: 10000001 cycles: 5584055 heartbeat IPC: 1.79081 cumulative IPC: 1.79081 (Simulation time: 0 hr 4 min 19 sec) 
Heartbeat CPU 5 instructions: 20000000 cycles: 9134939 heartbeat IPC: 2.15016 cumulative IPC: 2.1894 (Simulation time: 0 hr 7 min 3 sec) 
Heartbeat CPU 3 instructions: 20000000 cycles: 9299774 heartbeat IPC: 2.14468 cumulative IPC: 2.15059 (Simulation time: 0 hr 7 min 11 sec) 
Heartbeat CPU 1 instructions: 20000000 cycles: 9706879 heartbeat IPC: 2.06138 cumulative IPC: 2.06039 (Simulation time: 0 hr 7 min 30 sec) 
Heartbeat CPU 2 instructions: 20000000 cycles: 10008746 heartbeat IPC: 1.97628 cumulative IPC: 1.99825 (Simulation time: 0 hr 7 min 44 sec) 
Heartbeat CPU 7 instructions: 20000000 cycles: 10550623 heartbeat IPC: 1.89536 cumulative IPC: 1.89562 (Simulation time: 0 hr 8 min 9 sec) 
Heartbeat CPU 0 instructions: 10000002 cycles: 10557275 heartbeat IPC: 0.947214 cumulative IPC: 0.947214 (Simulation time: 0 hr 8 min 10 sec) 
Heartbeat CPU 4 instructions: 20000000 cycles: 10768516 heartbeat IPC: 1.8639 cumulative IPC: 1.85727 (Simulation time: 0 hr 8 min 20 sec) 
Heartbeat CPU 6 instructions: 20000000 cycles: 11168869 heartbeat IPC: 1.79057 cumulative IPC: 1.79069 (Simulation time: 0 hr 8 min 38 sec) 
Heartbeat CPU 5 instructions: 30000003 cycles: 13619456 heartbeat IPC: 2.2299 cumulative IPC: 0.734244 (Simulation time: 0 hr 10 min 33 sec) 
Heartbeat CPU 3 instructions: 30000001 cycles: 13994675 heartbeat IPC: 2.12997 cumulative IPC: 0.714558 (Simulation time: 0 hr 10 min 51 sec) 
Heartbeat CPU 1 instructions: 30000000 cycles: 14554492 heartbeat IPC: 2.06287 cumulative IPC: 0.687073 (Simulation time: 0 hr 11 min 16 sec) 
Heartbeat CPU 2 instructions: 30000003 cycles: 14939671 heartbeat IPC: 2.02802 cumulative IPC: 0.669359 (Simulation time: 0 hr 11 min 34 sec) 
Heartbeat CPU 7 instructions: 30000000 cycles: 15823222 heartbeat IPC: 1.8966 cumulative IPC: 0.631983 (Simulation time: 0 hr 12 min 16 sec) 
Heartbeat CPU 4 instructions: 30000003 cycles: 16099525 heartbeat IPC: 1.87582 cumulative IPC: 0.621137 (Simulation time: 0 hr 12 min 29 sec) 
Heartbeat CPU 6 instructions: 30000003 cycles: 16752517 heartbeat IPC: 1.79094 cumulative IPC: 0.596925 (Simulation time: 0 hr 13 min 0 sec) 
Heartbeat CPU 5 instructions: 40000000 cycles: 18269816 heartbeat IPC: 2.15037 cumulative IPC: 1.0947 (Simulation time: 0 hr 14 min 9 sec) 
Heartbeat CPU 3 instructions: 40000000 cycles: 18648644 heartbeat IPC: 2.1487 cumulative IPC: 1.07246 (Simulation time: 0 hr 14 min 26 sec) 
Heartbeat CPU 1 instructions: 40000000 cycles: 19401145 heartbeat IPC: 2.06328 cumulative IPC: 1.03087 (Simulation time: 0 hr 15 min 1 sec) 
Heartbeat CPU 2 instructions: 40000000 cycles: 20017122 heartbeat IPC: 1.96949 cumulative IPC: 0.999145 (Simulation time: 0 hr 15 min 29 sec) 
Heartbeat CPU 0 instructions: 20000000 cycles: 21052812 heartbeat IPC: 0.952786 cumulative IPC: 0.949992 (Simulation time: 0 hr 16 min 16 sec) 

Warmup complete CPU 0 instructions: 20000001 cycles: 21052815 (Simulation time: 0 hr 16 min 16 sec) 
Warmup complete CPU 1 instructions: 43396938 cycles: 21052814 (Simulation time: 0 hr 16 min 16 sec) 
Warmup complete CPU 2 instructions: 42058082 cycles: 21052814 (Simulation time: 0 hr 16 min 16 sec) 
Warmup complete CPU 3 instructions: 45112185 cycles: 21052814 (Simulation time: 0 hr 16 min 16 sec) 
Warmup complete CPU 4 instructions: 39256510 cycles: 21052814 (Simulation time: 0 hr 16 min 16 sec) 
Warmup complete CPU 5 instructions: 46065128 cycles: 21052814 (Simulation time: 0 hr 16 min 16 sec) 
Warmup complete CPU 6 instructions: 37699401 cycles: 21052814 (Simulation time: 0 hr 16 min 16 sec) 
Warmup complete CPU 7 instructions: 39912961 cycles: 21052814 (Simulation time: 0 hr 16 min 16 sec) 

Heartbeat CPU 7 instructions: 40000000 cycles: 21146432 heartbeat IPC: 1.87857 cumulative IPC: 0.929725 (Simulation time: 0 hr 16 min 18 sec) 
Heartbeat CPU 4 instructions: 40000000 cycles: 23353964 heartbeat IPC: 1.37847 cumulative IPC: 0.323095 (Simulation time: 0 hr 17 min 5 sec) 
Heartbeat CPU 5 instructions: 50000003 cycles: 24506377 heartbeat IPC: 1.60345 cumulative IPC: 1.13937 (Simulation time: 0 hr 17 min 30 sec) 
Heartbeat CPU 6 instructions: 40000000 cycles: 28283551 heartbeat IPC: 0.867225 cumulative IPC: 0.318169 (Simulation time: 0 hr 18 min 48 sec) 
Heartbeat CPU 2 instructions: 50000000 cycles: 28454108 heartbeat IPC: 1.18526 cumulative IPC: 1.07304 (Simulation time: 0 hr 18 min 52 sec) 
Heartbeat CPU 3 instructions: 50000002 cycles: 28485304 heartbeat IPC: 1.01661 cumulative IPC: 0.657628 (Simulation time: 0 hr 18 min 53 sec) 
Heartbeat CPU 7 instructions: 50000001 cycles: 30686634 heartbeat IPC: 1.0482 cumulative IPC: 1.04704 (Simulation time: 0 hr 19 min 38 sec) 
Heartbeat CPU 5 instructions: 60000000 cycles: 34660455 heartbeat IPC: 0.984826 cumulative IPC: 1.02405 (Simulation time: 0 hr 20 min 51 sec) 
Heartbeat CPU 7 instructions: 60000000 cycles: 40719131 heartbeat IPC: 0.996761 cumulative IPC: 1.02139 (Simulation time: 0 hr 22 min 49 sec) 
Heartbeat CPU 5 instructions: 70000001 cycles: 43900109 heartbeat IPC: 1.08229 cumulative IPC: 1.0476 (Simulation time: 0 hr 23 min 50 sec) 
Heartbeat CPU 3 instructions: 60000000 cycles: 44034564 heartbeat IPC: 0.643117 cumulative IPC: 0.64781 (Simulation time: 0 hr 23 min 53 sec) 
Heartbeat CPU 2 instructions: 60000000 cycles: 45064402 heartbeat IPC: 0.602036 cumulative IPC: 0.747219 (Simulation time: 0 hr 24 min 13 sec) 
Heartbeat CPU 7 instructions: 70000003 cycles: 50360968 heartbeat IPC: 1.03715 cumulative IPC: 1.02658 (Simulation time: 0 hr 25 min 56 sec) 
Heartbeat CPU 5 instructions: 80000000 cycles: 53752164 heartbeat IPC: 1.01502 cumulative IPC: 1.03778 (Simulation time: 0 hr 27 min 2 sec) 
Heartbeat CPU 2 instructions: 70000001 cycles: 55057702 heartbeat IPC: 1.00067 cumulative IPC: 0.821703 (Simulation time: 0 hr 27 min 28 sec) 
Heartbeat CPU 4 instructions: 50000000 cycles: 55301463 heartbeat IPC: 0.313014 cumulative IPC: 0.313691 (Simulation time: 0 hr 27 min 33 sec) 
Heartbeat CPU 3 instructions: 70000002 cycles: 59573860 heartbeat IPC: 0.64353 cumulative IPC: 0.646084 (Simulation time: 0 hr 29 min 0 sec) 
Heartbeat CPU 7 instructions: 80000000 cycles: 59890141 heartbeat IPC: 1.04941 cumulative IPC: 1.03218 (Simulation time: 0 hr 29 min 6 sec) 
Heartbeat CPU 6 instructions: 50000003 cycles: 60147884 heartbeat IPC: 0.313831 cumulative IPC: 0.314633 (Simulation time: 0 hr 29 min 11 sec) 
Heartbeat CPU 5 instructions: 90000002 cycles: 63044855 heartbeat IPC: 1.07611 cumulative IPC: 1.04627 (Simulation time: 0 hr 30 min 6 sec) 
Heartbeat CPU 2 instructions: 80000000 cycles: 68158234 heartbeat IPC: 0.763328 cumulative IPC: 0.805468 (Simulation time: 0 hr 31 min 36 sec) 
Heartbeat CPU 7 instructions: 90000002 cycles: 69917269 heartbeat IPC: 0.997295 cumulative IPC: 1.02502 (Simulation time: 0 hr 32 min 10 sec) 
Heartbeat CPU 5 instructions: 100000000 cycles: 73026435 heartbeat IPC: 1.00185 cumulative IPC: 1.03774 (Simulation time: 0 hr 33 min 8 sec) 
Heartbeat CPU 1 instructions: 50000003 cycles: 75135441 heartbeat IPC: 0.179423 cumulative IPC: 0.122092 (Simulation time: 0 hr 33 min 48 sec) 
Heartbeat CPU 3 instructions: 80000000 cycles: 75177475 heartbeat IPC: 0.640877 cumulative IPC: 0.644583 (Simulation time: 0 hr 33 min 49 sec) 
Heartbeat CPU 7 instructions: 100000000 cycles: 79685840 heartbeat IPC: 1.02369 cumulative IPC: 1.0248 (Simulation time: 0 hr 35 min 16 sec) 
Heartbeat CPU 2 instructions: 90000001 cycles: 81579255 heartbeat IPC: 0.7451 cumulative IPC: 0.792082 (Simulation time: 0 hr 35 min 54 sec) 
Heartbeat CPU 5 instructions: 110000000 cycles: 82494139 heartbeat IPC: 1.05622 cumulative IPC: 1.04058 (Simulation time: 0 hr 36 min 13 sec) 
Heartbeat CPU 0 instructions: 30000003 cycles: 85497100 heartbeat IPC: 0.155173 cumulative IPC: 0.155173 (Simulation time: 0 hr 37 min 12 sec) 
Heartbeat CPU 4 instructions: 60000000 cycles: 87514398 heartbeat IPC: 0.310434 cumulative IPC: 0.312112 (Simulation time: 0 hr 37 min 51 sec) 
Heartbeat CPU 7 instructions: 110000002 cycles: 89283401 heartbeat IPC: 1.04193 cumulative IPC: 1.02721 (Simulation time: 0 hr 38 min 28 sec) 
Heartbeat CPU 3 instructions: 90000000 cycles: 90505535 heartbeat IPC: 0.652398 cumulative IPC: 0.646308 (Simulation time: 0 hr 38 min 53 sec) 
Heartbeat CPU 2 instructions: 100000000 cycles: 90725581 heartbeat IPC: 1.09334 cumulative IPC: 0.831629 (Simulation time: 0 hr 38 min 57 sec) 
Heartbeat CPU 5 instructions: 120000000 cycles: 92154650 heartbeat IPC: 1.03514 cumulative IPC: 1.03984 (Simulation time: 0 hr 39 min 24 sec) 
Heartbeat CPU 6 instructions: 60000000 cycles: 92221558 heartbeat IPC: 0.311782 cumulative IPC: 0.313348 (Simulation time: 0 hr 39 min 25 sec) 
Heartbeat CPU 7 instructions: 120000000 cycles: 99466028 heartbeat IPC: 0.982065 cumulative IPC: 1.02135 (Simulation time: 0 hr 41 min 33 sec) 
Heartbeat CPU 5 instructions: 130000003 cycles: 102456126 heartbeat IPC: 0.970735 cumulative IPC: 1.0311 (Simulation time: 0 hr 42 min 29 sec) 
Heartbeat CPU 3 instructions: 100000000 cycles: 106211122 heartbeat IPC: 0.636716 cumulative IPC: 0.644539 (Simulation time: 0 hr 43 min 40 sec) 
Heartbeat CPU 2 instructions: 110000001 cycles: 107962150 heartbeat IPC: 0.580162 cumulative IPC: 0.781756 (Simulation time: 0 hr 44 min 14 sec) 
Heartbeat CPU 7 instructions: 130000002 cycles: 108856946 heartbeat IPC: 1.06486 cumulative IPC: 1.026 (Simulation time: 0 hr 44 min 32 sec) 
Heartbeat CPU 5 instructions: 140000000 cycles: 113043530 heartbeat IPC: 0.944518 cumulative IPC: 1.02113 (Simulation time: 0 hr 45 min 56 sec) 
Heartbeat CPU 2 instructions: 120000000 cycles: 117090945 heartbeat IPC: 1.09543 cumulative IPC: 0.811573 (Simulation time: 0 hr 47 min 17 sec) 
Finished CPU 7 instructions: 100000000 cycles: 96877280 cumulative IPC: 1.03223 (Simulation time: 0 hr 47 min 34 sec) 
Heartbeat CPU 4 instructions: 70000001 cycles: 117994938 heartbeat IPC: 0.328078 cumulative IPC: 0.317132 (Simulation time: 0 hr 47 min 35 sec) 
Heartbeat CPU 7 instructions: 140000000 cycles: 118008389 heartbeat IPC: 1.09272 cumulative IPC: 1.0323 (Simulation time: 0 hr 47 min 36 sec) 
Finished CPU 5 instructions: 100000001 cycles: 98389006 cumulative IPC: 1.01637 (Simulation time: 0 hr 48 min 4 sec) 
Heartbeat CPU 3 instructions: 110000001 cycles: 121954625 heartbeat IPC: 0.635183 cumulative IPC: 0.643079 (Simulation time: 0 hr 48 min 54 sec) 
Heartbeat CPU 5 instructions: 150000003 cycles: 123616536 heartbeat IPC: 0.945805 cumulative IPC: 1.01337 (Simulation time: 0 hr 49 min 24 sec) 
Heartbeat CPU 6 instructions: 70000001 cycles: 123934184 heartbeat IPC: 0.315332 cumulative IPC: 0.31396 (Simulation time: 0 hr 49 min 30 sec) 
Heartbeat CPU 7 instructions: 150000002 cycles: 127702237 heartbeat IPC: 1.03158 cumulative IPC: 1.03223 (Simulation time: 0 hr 50 min 35 sec) 
Heartbeat CPU 2 instructions: 130000001 cycles: 130857848 heartbeat IPC: 0.72638 cumulative IPC: 0.800892 (Simulation time: 0 hr 51 min 36 sec) 
Heartbeat CPU 5 instructions: 160000000 cycles: 134313315 heartbeat IPC: 0.934861 cumulative IPC: 1.00595 (Simulation time: 0 hr 52 min 41 sec) 
Heartbeat CPU 7 instructions: 160000000 cycles: 136913772 heartbeat IPC: 1.0856 cumulative IPC: 1.03648 (Simulation time: 0 hr 53 min 30 sec) 
Heartbeat CPU 3 instructions: 120000000 cycles: 138048541 heartbeat IPC: 0.621353 cumulative IPC: 0.64009 (Simulation time: 0 hr 53 min 52 sec) 
Heartbeat CPU 2 instructions: 140000000 cycles: 143280312 heartbeat IPC: 0.804993 cumulative IPC: 0.801308 (Simulation time: 0 hr 55 min 37 sec) 
Heartbeat CPU 5 instructions: 170000002 cycles: 144854528 heartbeat IPC: 0.948658 cumulative IPC: 1.00108 (Simulation time: 0 hr 56 min 10 sec) 
Finished CPU 2 instructions: 100000002 cycles: 124072870 cumulative IPC: 0.805978 (Simulation time: 0 hr 56 min 15 sec) 
Heartbeat CPU 7 instructions: 170000002 cycles: 146118832 heartbeat IPC: 1.08636 cumulative IPC: 1.04015 (Simulation time: 0 hr 56 min 36 sec) 
Heartbeat CPU 4 instructions: 80000000 cycles: 147425404 heartbeat IPC: 0.339784 cumulative IPC: 0.322408 (Simulation time: 0 hr 57 min 2 sec) 
Heartbeat CPU 0 instructions: 40000000 cycles: 150102036 heartbeat IPC: 0.154787 cumulative IPC: 0.15498 (Simulation time: 0 hr 57 min 58 sec) 
Heartbeat CPU 2 instructions: 150000002 cycles: 152986225 heartbeat IPC: 1.0303 cumulative IPC: 0.818155 (Simulation time: 0 hr 58 min 53 sec) 
Heartbeat CPU 3 instructions: 130000002 cycles: 153664667 heartbeat IPC: 0.640364 cumulative IPC: 0.640122 (Simulation time: 0 hr 59 min 5 sec) 
Heartbeat CPU 1 instructions: 60000000 cycles: 153826099 heartbeat IPC: 0.12708 cumulative IPC: 0.125048 (Simulation time: 0 hr 59 min 8 sec) 
Heartbeat CPU 6 instructions: 80000000 cycles: 155265270 heartbeat IPC: 0.319172 cumulative IPC: 0.315176 (Simulation time: 0 hr 59 min 34 sec) 
Heartbeat CPU 5 instructions: 180000000 cycles: 155378744 heartbeat IPC: 0.950189 cumulative IPC: 0.997089 (Simulation time: 0 hr 59 min 36 sec) 
Heartbeat CPU 7 instructions: 180000000 cycles: 155434165 heartbeat IPC: 1.0735 cumulative IPC: 1.04246 (Simulation time: 0 hr 59 min 37 sec) 
Heartbeat CPU 7 instructions: 190000000 cycles: 164765688 heartbeat IPC: 1.07164 cumulative IPC: 1.04435 (Simulation time: 1 hr 2 min 34 sec) 
Heartbeat CPU 5 instructions: 190000002 cycles: 166060756 heartbeat IPC: 0.936153 cumulative IPC: 0.9926 (Simulation time: 1 hr 2 min 58 sec) 
Heartbeat CPU 3 instructions: 140000000 cycles: 169157460 heartbeat IPC: 0.645461 cumulative IPC: 0.640681 (Simulation time: 1 hr 3 min 58 sec) 
Heartbeat CPU 2 instructions: 160000000 cycles: 169229769 heartbeat IPC: 0.615629 cumulative IPC: 0.795953 (Simulation time: 1 hr 4 min 0 sec) 
Heartbeat CPU 7 instructions: 200000000 cycles: 174091691 heartbeat IPC: 1.07227 cumulative IPC: 1.04605 (Simulation time: 1 hr 5 min 38 sec) 
Heartbeat CPU 4 instructions: 90000003 cycles: 176386902 heartbeat IPC: 0.345286 cumulative IPC: 0.326673 (Simulation time: 1 hr 6 min 25 sec) 
Heartbeat CPU 5 instructions: 200000000 cycles: 176612694 heartbeat IPC: 0.947693 cumulative IPC: 0.989554 (Simulation time: 1 hr 6 min 30 sec) 
Finished CPU 3 instructions: 100000000 cycles: 155748518 cumulative IPC: 0.642061 (Simulation time: 1 hr 6 min 33 sec) 
Heartbeat CPU 2 instructions: 170000003 cycles: 178308408 heartbeat IPC: 1.10149 cumulative IPC: 0.813592 (Simulation time: 1 hr 7 min 4 sec) 
Heartbeat CPU 7 instructions: 210000002 cycles: 183229364 heartbeat IPC: 1.09437 cumulative IPC: 1.04878 (Simulation time: 1 hr 8 min 41 sec) 
Heartbeat CPU 3 instructions: 150000000 cycles: 184330778 heartbeat IPC: 0.659052 cumulative IPC: 0.642388 (Simulation time: 1 hr 9 min 1 sec) 
Heartbeat CPU 6 instructions: 90000000 cycles: 186639597 heartbeat IPC: 0.318732 cumulative IPC: 0.31585 (Simulation time: 1 hr 9 min 42 sec) 
Heartbeat CPU 5 instructions: 210000000 cycles: 187189901 heartbeat IPC: 0.945429 cumulative IPC: 0.986745 (Simulation time: 1 hr 9 min 52 sec) 
Heartbeat CPU 7 instructions: 220000000 cycles: 192694846 heartbeat IPC: 1.05647 cumulative IPC: 1.0492 (Simulation time: 1 hr 11 min 38 sec) 
Heartbeat CPU 2 instructions: 180000000 cycles: 192762518 heartbeat IPC: 0.691845 cumulative IPC: 0.803344 (Simulation time: 1 hr 11 min 40 sec) 
Heartbeat CPU 5 instructions: 220000000 cycles: 197860450 heartbeat IPC: 0.937159 cumulative IPC: 0.983752 (Simulation time: 1 hr 13 min 18 sec) 
Heartbeat CPU 3 instructions: 160000000 cycles: 199851629 heartbeat IPC: 0.644295 cumulative IPC: 0.642554 (Simulation time: 1 hr 13 min 57 sec) 
Heartbeat CPU 7 instructions: 230000001 cycles: 201942883 heartbeat IPC: 1.08131 cumulative IPC: 1.05084 (Simulation time: 1 hr 14 min 39 sec) 
Heartbeat CPU 2 instructions: 190000000 cycles: 204072748 heartbeat IPC: 0.884155 cumulative IPC: 0.808338 (Simulation time: 1 hr 15 min 22 sec) 
Heartbeat CPU 4 instructions: 100000000 cycles: 205212625 heartbeat IPC: 0.346912 cumulative IPC: 0.329841 (Simulation time: 1 hr 15 min 45 sec) 
Heartbeat CPU 5 instructions: 230000000 cycles: 208445325 heartbeat IPC: 0.944744 cumulative IPC: 0.981549 (Simulation time: 1 hr 16 min 50 sec) 
Heartbeat CPU 7 instructions: 240000000 cycles: 211190803 heartbeat IPC: 1.08132 cumulative IPC: 1.05233 (Simulation time: 1 hr 17 min 45 sec) 
Heartbeat CPU 2 instructions: 200000000 cycles: 214761943 heartbeat IPC: 0.935524 cumulative IPC: 0.815356 (Simulation time: 1 hr 18 min 50 sec) 
Heartbeat CPU 0 instructions: 50000001 cycles: 215009030 heartbeat IPC: 0.154067 cumulative IPC: 0.154674 (Simulation time: 1 hr 18 min 55 sec) 
Heartbeat CPU 3 instructions: 170000003 cycles: 215461561 heartbeat IPC: 0.640618 cumulative IPC: 0.642398 (Simulation time: 1 hr 19 min 3 sec) 
Heartbeat CPU 6 instructions: 100000000 cycles: 218152792 heartbeat IPC: 0.317327 cumulative IPC: 0.316086 (Simulation time: 1 hr 19 min 51 sec) 
Heartbeat CPU 5 instructions: 240000000 cycles: 219132391 heartbeat IPC: 0.93571 cumulative IPC: 0.979076 (Simulation time: 1 hr 20 min 10 sec) 
Heartbeat CPU 7 instructions: 250000001 cycles: 220863941 heartbeat IPC: 1.03379 cumulative IPC: 1.05143 (Simulation time: 1 hr 20 min 43 sec) 
Heartbeat CPU 1 instructions: 70000000 cycles: 229586098 heartbeat IPC: 0.131996 cumulative IPC: 0.127572 (Simulation time: 1 hr 23 min 33 sec) 
Heartbeat CPU 5 instructions: 250000001 cycles: 229711140 heartbeat IPC: 0.945291 cumulative IPC: 0.977363 (Simulation time: 1 hr 23 min 36 sec) 
Heartbeat CPU 2 instructions: 210000002 cycles: 229927183 heartbeat IPC: 0.659403 cumulative IPC: 0.804033 (Simulation time: 1 hr 23 min 40 sec) 
Heartbeat CPU 7 instructions: 260000000 cycles: 229938054 heartbeat IPC: 1.10204 cumulative IPC: 1.05363 (Simulation time: 1 hr 23 min 41 sec) 
Heartbeat CPU 3 instructions: 180000000 cycles: 230657297 heartbeat IPC: 0.658079 cumulative IPC: 0.643535 (Simulation time: 1 hr 23 min 54 sec) 
Heartbeat CPU 4 instructions: 110000002 cycles: 234173330 heartbeat IPC: 0.345296 cumulative IPC: 0.331941 (Simulation time: 1 hr 25 min 7 sec) 
Heartbeat CPU 2 instructions: 220000000 cycles: 238651264 heartbeat IPC: 1.14625 cumulative IPC: 0.817754 (Simulation time: 1 hr 26 min 41 sec) 
Heartbeat CPU 7 instructions: 270000003 cycles: 239006403 heartbeat IPC: 1.10274 cumulative IPC: 1.05567 (Simulation time: 1 hr 26 min 49 sec) 
Heartbeat CPU 5 instructions: 260000000 cycles: 240101453 heartbeat IPC: 0.962435 cumulative IPC: 0.976655 (Simulation time: 1 hr 27 min 11 sec) 
Heartbeat CPU 3 instructions: 190000000 cycles: 246081091 heartbeat IPC: 0.648349 cumulative IPC: 0.643865 (Simulation time: 1 hr 29 min 4 sec) 
Heartbeat CPU 7 instructions: 280000000 cycles: 248610706 heartbeat IPC: 1.0412 cumulative IPC: 1.05506 (Simulation time: 1 hr 29 min 50 sec) 
Heartbeat CPU 6 instructions: 110000003 cycles: 249351514 heartbeat IPC: 0.320526 cumulative IPC: 0.316693 (Simulation time: 1 hr 30 min 5 sec) 
Heartbeat CPU 5 instructions: 270000002 cycles: 250734813 heartbeat IPC: 0.940437 cumulative IPC: 0.974978 (Simulation time: 1 hr 30 min 32 sec) 
Heartbeat CPU 2 instructions: 230000001 cycles: 253124797 heartbeat IPC: 0.690916 cumulative IPC: 0.809843 (Simulation time: 1 hr 31 min 18 sec) 
Heartbeat CPU 7 instructions: 290000003 cycles: 257576975 heartbeat IPC: 1.11529 cumulative IPC: 1.05734 (Simulation time: 1 hr 32 min 44 sec) 
Heartbeat CPU 5 instructions: 280000000 cycles: 261312681 heartbeat IPC: 0.94537 cumulative IPC: 0.973674 (Simulation time: 1 hr 33 min 59 sec) 
Heartbeat CPU 3 instructions: 200000000 cycles: 261552104 heartbeat IPC: 0.64637 cumulative IPC: 0.644026 (Simulation time: 1 hr 34 min 4 sec) 
Heartbeat CPU 4 instructions: 120000000 cycles: 261918170 heartbeat IPC: 0.360427 cumulative IPC: 0.335223 (Simulation time: 1 hr 34 min 11 sec) 
Heartbeat CPU 2 instructions: 240000000 cycles: 264400005 heartbeat IPC: 0.886901 cumulative IPC: 0.813414 (Simulation time: 1 hr 35 min 2 sec) 
Heartbeat CPU 7 instructions: 300000000 cycles: 266726994 heartbeat IPC: 1.09289 cumulative IPC: 1.05867 (Simulation time: 1 hr 35 min 50 sec) 
Heartbeat CPU 5 instructions: 290000003 cycles: 271752231 heartbeat IPC: 0.957896 cumulative IPC: 0.973017 (Simulation time: 1 hr 37 min 34 sec) 
Heartbeat CPU 2 instructions: 250000000 cycles: 273916678 heartbeat IPC: 1.05079 cumulative IPC: 0.822347 (Simulation time: 1 hr 38 min 15 sec) 
Heartbeat CPU 7 instructions: 310000001 cycles: 275996421 heartbeat IPC: 1.07882 cumulative IPC: 1.0594 (Simulation time: 1 hr 38 min 52 sec) 
Heartbeat CPU 3 instructions: 210000000 cycles: 277295513 heartbeat IPC: 0.635186 cumulative IPC: 0.643483 (Simulation time: 1 hr 39 min 16 sec) 
Heartbeat CPU 0 instructions: 60000000 cycles: 279226117 heartbeat IPC: 0.155722 cumulative IPC: 0.154935 (Simulation time: 1 hr 39 min 50 sec) 
Heartbeat CPU 6 instructions: 120000000 cycles: 280573043 heartbeat IPC: 0.320292 cumulative IPC: 0.317126 (Simulation time: 1 hr 40 min 17 sec) 
Heartbeat CPU 5 instructions: 300000000 cycles: 282428879 heartbeat IPC: 0.936623 cumulative IPC: 0.971531 (Simulation time: 1 hr 40 min 51 sec) 
Heartbeat CPU 7 instructions: 320000000 cycles: 285476871 heartbeat IPC: 1.0548 cumulative IPC: 1.05923 (Simulation time: 1 hr 41 min 49 sec) 
Heartbeat CPU 2 instructions: 260000000 cycles: 290156077 heartbeat IPC: 0.615786 cumulative IPC: 0.809882 (Simulation time: 1 hr 43 min 20 sec) 
Heartbeat CPU 4 instructions: 130000000 cycles: 290519952 heartbeat IPC: 0.349629 cumulative IPC: 0.336752 (Simulation time: 1 hr 43 min 27 sec) 
Heartbeat CPU 5 instructions: 310000003 cycles: 292992366 heartbeat IPC: 0.946657 cumulative IPC: 0.970564 (Simulation time: 1 hr 44 min 18 sec) 
Heartbeat CPU 3 instructions: 220000000 cycles: 293213019 heartbeat IPC: 0.628239 cumulative IPC: 0.642591 (Simulation time: 1 hr 44 min 23 sec) 
Heartbeat CPU 7 instructions: 330000002 cycles: 294668820 heartbeat IPC: 1.08791 cumulative IPC: 1.0602 (Simulation time: 1 hr 44 min 52 sec) 
Heartbeat CPU 2 instructions: 270000002 cycles: 299073132 heartbeat IPC: 1.12145 cumulative IPC: 0.819875 (Simulation time: 1 hr 46 min 21 sec) 
Heartbeat CPU 5 instructions: 320000000 cycles: 303448214 heartbeat IPC: 0.956402 cumulative IPC: 0.97004 (Simulation time: 1 hr 47 min 49 sec) 
Heartbeat CPU 7 instructions: 340000000 cycles: 303864061 heartbeat IPC: 1.08752 cumulative IPC: 1.06109 (Simulation time: 1 hr 47 min 57 sec) 
Heartbeat CPU 1 instructions: 80000000 cycles: 305156267 heartbeat IPC: 0.132327 cumulative IPC: 0.128837 (Simulation time: 1 hr 48 min 20 sec) 
Heartbeat CPU 3 instructions: 230000003 cycles: 309192226 heartbeat IPC: 0.625813 cumulative IPC: 0.641661 (Simulation time: 1 hr 49 min 31 sec) 
Heartbeat CPU 6 instructions: 130000002 cycles: 312005694 heartbeat IPC: 0.318141 cumulative IPC: 0.317236 (Simulation time: 1 hr 50 min 24 sec) 
Heartbeat CPU 2 instructions: 280000000 cycles: 312909366 heartbeat IPC: 0.72274 cumulative IPC: 0.81527 (Simulation time: 1 hr 50 min 42 sec) 
Heartbeat CPU 7 instructions: 350000000 cycles: 313502040 heartbeat IPC: 1.03756 cumulative IPC: 1.06031 (Simulation time: 1 hr 50 min 53 sec) 
Heartbeat CPU 5 instructions: 330000002 cycles: 314106067 heartbeat IPC: 0.938275 cumulative IPC: 0.968885 (Simulation time: 1 hr 51 min 5 sec) 
Finished CPU 4 instructions: 100000000 cycles: 296367927 cumulative IPC: 0.337418 (Simulation time: 1 hr 52 min 9 sec) 
Heartbeat CPU 4 instructions: 140000000 cycles: 319285288 heartbeat IPC: 0.347641 cumulative IPC: 0.337802 (Simulation time: 1 hr 52 min 46 sec) 
Heartbeat CPU 7 instructions: 360000000 cycles: 322626759 heartbeat IPC: 1.09592 cumulative IPC: 1.06139 (Simulation time: 1 hr 53 min 53 sec) 
Heartbeat CPU 5 instructions: 340000000 cycles: 324572319 heartbeat IPC: 0.955452 cumulative IPC: 0.968422 (Simulation time: 1 hr 54 min 32 sec) 
Heartbeat CPU 2 instructions: 290000000 cycles: 325070844 heartbeat IPC: 0.822268 cumulative IPC: 0.81555 (Simulation time: 1 hr 54 min 43 sec) 
Heartbeat CPU 3 instructions: 240000000 cycles: 325127177 heartbeat IPC: 0.627551 cumulative IPC: 0.640922 (Simulation time: 1 hr 54 min 44 sec) 
Heartbeat CPU 7 instructions: 370000000 cycles: 331694867 heartbeat IPC: 1.10277 cumulative IPC: 1.0626 (Simulation time: 1 hr 56 min 58 sec) 
Heartbeat CPU 2 instructions: 300000000 cycles: 333936049 heartbeat IPC: 1.12801 cumulative IPC: 0.824403 (Simulation time: 1 hr 57 min 43 sec) 
Heartbeat CPU 5 instructions: 350000001 cycles: 335029904 heartbeat IPC: 0.956244 cumulative IPC: 0.968016 (Simulation time: 1 hr 58 min 4 sec) 
Finished CPU 6 instructions: 100000000 cycles: 314553786 cumulative IPC: 0.317911 (Simulation time: 1 hr 58 min 14 sec) 
Heartbeat CPU 3 instructions: 250000001 cycles: 341058568 heartbeat IPC: 0.627692 cumulative IPC: 0.640263 (Simulation time: 1 hr 59 min 53 sec) 
Heartbeat CPU 7 instructions: 380000000 cycles: 341358550 heartbeat IPC: 1.0348 cumulative IPC: 1.06176 (Simulation time: 1 hr 59 min 59 sec) 
Heartbeat CPU 6 instructions: 140000000 cycles: 343041352 heartbeat IPC: 0.32221 cumulative IPC: 0.317715 (Simulation time: 2 hr 0 min 31 sec) 
Heartbeat CPU 0 instructions: 70000000 cycles: 343679271 heartbeat IPC: 0.155151 cumulative IPC: 0.154978 (Simulation time: 2 hr 0 min 43 sec) 
Heartbeat CPU 5 instructions: 360000000 cycles: 345657969 heartbeat IPC: 0.940905 cumulative IPC: 0.967128 (Simulation time: 2 hr 1 min 21 sec) 
Heartbeat CPU 4 instructions: 150000001 cycles: 348053657 heartbeat IPC: 0.347604 cumulative IPC: 0.338664 (Simulation time: 2 hr 2 min 8 sec) 
Heartbeat CPU 7 instructions: 390000003 cycles: 350374052 heartbeat IPC: 1.1092 cumulative IPC: 1.06306 (Simulation time: 2 hr 2 min 53 sec) 
Heartbeat CPU 2 instructions: 310000001 cycles: 350926661 heartbeat IPC: 0.58856 cumulative IPC: 0.812256 (Simulation time: 2 hr 3 min 4 sec) 
Heartbeat CPU 5 instructions: 370000003 cycles: 356191908 heartbeat IPC: 0.949313 cumulative IPC: 0.966568 (Simulation time: 2 hr 4 min 53 sec) 
Heartbeat CPU 3 instructions: 260000000 cycles: 356856137 heartbeat IPC: 0.633009 cumulative IPC: 0.639922 (Simulation time: 2 hr 5 min 7 sec) 
Heartbeat CPU 7 instructions: 400000000 cycles: 359422207 heartbeat IPC: 1.1052 cumulative IPC: 1.06418 (Simulation time: 2 hr 6 min 1 sec) 
Heartbeat CPU 2 instructions: 320000000 cycles: 359693067 heartbeat IPC: 1.14072 cumulative IPC: 0.820759 (Simulation time: 2 hr 6 min 7 sec) 
Heartbeat CPU 5 instructions: 380000000 cycles: 366674962 heartbeat IPC: 0.95392 cumulative IPC: 0.966185 (Simulation time: 2 hr 8 min 26 sec) 
Heartbeat CPU 7 instructions: 410000000 cycles: 368734817 heartbeat IPC: 1.07381 cumulative IPC: 1.06444 (Simulation time: 2 hr 9 min 2 sec) 
Heartbeat CPU 2 instructions: 330000003 cycles: 372635719 heartbeat IPC: 0.772639 cumulative IPC: 0.818987 (Simulation time: 2 hr 10 min 12 sec) 
Heartbeat CPU 3 instructions: 270000002 cycles: 372645018 heartbeat IPC: 0.633357 cumulative IPC: 0.639627 (Simulation time: 2 hr 10 min 12 sec) 
Heartbeat CPU 6 instructions: 150000000 cycles: 373828672 heartbeat IPC: 0.324809 cumulative IPC: 0.318334 (Simulation time: 2 hr 10 min 35 sec) 
Heartbeat CPU 4 instructions: 160000000 cycles: 375549353 heartbeat IPC: 0.363693 cumulative IPC: 0.340606 (Simulation time: 2 hr 11 min 7 sec) 
Heartbeat CPU 5 instructions: 390000003 cycles: 377362833 heartbeat IPC: 0.93564 cumulative IPC: 0.965269 (Simulation time: 2 hr 11 min 42 sec) 
Heartbeat CPU 7 instructions: 420000000 cycles: 378082765 heartbeat IPC: 1.06975 cumulative IPC: 1.06458 (Simulation time: 2 hr 11 min 55 sec) 
Heartbeat CPU 1 instructions: 90000000 cycles: 380772302 heartbeat IPC: 0.132247 cumulative IPC: 0.129554 (Simulation time: 2 hr 12 min 46 sec) 
Heartbeat CPU 2 instructions: 340000000 cycles: 385707000 heartbeat IPC: 0.765036 cumulative IPC: 0.817053 (Simulation time: 2 hr 14 min 24 sec) 
Heartbeat CPU 7 instructions: 430000000 cycles: 387343482 heartbeat IPC: 1.07983 cumulative IPC: 1.06497 (Simulation time: 2 hr 14 min 57 sec) 
Heartbeat CPU 5 instructions: 400000000 cycles: 387930123 heartbeat IPC: 0.946316 cumulative IPC: 0.964723 (Simulation time: 2 hr 15 min 9 sec) 
Heartbeat CPU 3 instructions: 280000000 cycles: 388314561 heartbeat IPC: 0.638181 cumulative IPC: 0.639565 (Simulation time: 2 hr 15 min 17 sec) 
Heartbeat CPU 2 instructions: 350000002 cycles: 394514857 heartbeat IPC: 1.13535 cumulative IPC: 0.82456 (Simulation time: 2 hr 17 min 26 sec) 
Heartbeat CPU 7 instructions: 440000000 cycles: 396282726 heartbeat IPC: 1.11866 cumulative IPC: 1.06625 (Simulation time: 2 hr 18 min 1 sec) 
Heartbeat CPU 5 instructions: 410000003 cycles: 398400249 heartbeat IPC: 0.955099 cumulative IPC: 0.964456 (Simulation time: 2 hr 18 min 41 sec) 
Heartbeat CPU 4 instructions: 170000002 cycles: 403378852 heartbeat IPC: 0.359331 cumulative IPC: 0.341969 (Simulation time: 2 hr 20 min 11 sec) 
Heartbeat CPU 3 instructions: 290000001 cycles: 404243983 heartbeat IPC: 0.627769 cumulative IPC: 0.639075 (Simulation time: 2 hr 20 min 28 sec) 
Heartbeat CPU 6 instructions: 160000000 cycles: 404940703 heartbeat IPC: 0.321419 cumulative IPC: 0.318584 (Simulation time: 2 hr 20 min 41 sec) 
Heartbeat CPU 7 instructions: 450000002 cycles: 405728978 heartbeat IPC: 1.05862 cumulative IPC: 1.06606 (Simulation time: 2 hr 20 min 56 sec) 
Heartbeat CPU 0 instructions: 80000000 cycles: 408423792 heartbeat IPC: 0.154453 cumulative IPC: 0.15489 (Simulation time: 2 hr 21 min 48 sec) 
Heartbeat CPU 5 instructions: 420000000 cycles: 409065158 heartbeat IPC: 0.937654 cumulative IPC: 0.963719 (Simulation time: 2 hr 22 min 0 sec) 
Heartbeat CPU 2 instructions: 360000000 cycles: 410764022 heartbeat IPC: 0.615416 cumulative IPC: 0.81584 (Simulation time: 2 hr 22 min 33 sec) 
Heartbeat CPU 7 instructions: 460000000 cycles: 414815067 heartbeat IPC: 1.10058 cumulative IPC: 1.06685 (Simulation time: 2 hr 23 min 54 sec) 
Heartbeat CPU 5 instructions: 430000002 cycles: 419580804 heartbeat IPC: 0.950964 cumulative IPC: 0.963382 (Simulation time: 2 hr 25 min 33 sec) 
Heartbeat CPU 3 instructions: 300000000 cycles: 419799706 heartbeat IPC: 0.64285 cumulative IPC: 0.639222 (Simulation time: 2 hr 25 min 37 sec) 
Heartbeat CPU 2 instructions: 370000000 cycles: 420099857 heartbeat IPC: 1.07114 cumulative IPC: 0.821813 (Simulation time: 2 hr 25 min 43 sec) 
Heartbeat CPU 7 instructions: 470000000 cycles: 423831601 heartbeat IPC: 1.10907 cumulative IPC: 1.0678 (Simulation time: 2 hr 26 min 59 sec) 
Heartbeat CPU 5 instructions: 440000000 cycles: 430121763 heartbeat IPC: 0.94868 cumulative IPC: 0.963004 (Simulation time: 2 hr 28 min 58 sec) 
Heartbeat CPU 4 instructions: 180000000 cycles: 430125145 heartbeat IPC: 0.373884 cumulative IPC: 0.344055 (Simulation time: 2 hr 28 min 58 sec) 
Heartbeat CPU 2 instructions: 380000000 cycles: 432127298 heartbeat IPC: 0.831432 cumulative IPC: 0.822094 (Simulation time: 2 hr 29 min 32 sec) 
Heartbeat CPU 7 instructions: 480000000 cycles: 433496716 heartbeat IPC: 1.03465 cumulative IPC: 1.06702 (Simulation time: 2 hr 29 min 58 sec) 
Heartbeat CPU 3 instructions: 310000002 cycles: 435848875 heartbeat IPC: 0.623085 cumulative IPC: 0.638598 (Simulation time: 2 hr 30 min 43 sec) 
Heartbeat CPU 6 instructions: 170000002 cycles: 436099746 heartbeat IPC: 0.320934 cumulative IPC: 0.318761 (Simulation time: 2 hr 30 min 48 sec) 
Heartbeat CPU 5 instructions: 450000002 cycles: 440779313 heartbeat IPC: 0.938302 cumulative IPC: 0.962376 (Simulation time: 2 hr 32 min 18 sec) 
Heartbeat CPU 7 instructions: 490000001 cycles: 442507307 heartbeat IPC: 1.10981 cumulative IPC: 1.06794 (Simulation time: 2 hr 32 min 51 sec) 
Heartbeat CPU 2 instructions: 390000000 cycles: 445963556 heartbeat IPC: 0.722739 cumulative IPC: 0.818859 (Simulation time: 2 hr 34 min 1 sec) 
Heartbeat CPU 5 instructions: 460000000 cycles: 451239262 heartbeat IPC: 0.956027 cumulative IPC: 0.962222 (Simulation time: 2 hr 35 min 49 sec) 
Heartbeat CPU 7 instructions: 500000000 cycles: 451635553 heartbeat IPC: 1.0955 cumulative IPC: 1.06852 (Simulation time: 2 hr 35 min 58 sec) 
Heartbeat CPU 3 instructions: 320000000 cycles: 451881459 heartbeat IPC: 0.62373 cumulative IPC: 0.638044 (Simulation time: 2 hr 36 min 3 sec) 
Heartbeat CPU 1 instructions: 100000000 cycles: 453922341 heartbeat IPC: 0.136705 cumulative IPC: 0.130762 (Simulation time: 2 hr 36 min 45 sec) 
Heartbeat CPU 2 instructions: 400000000 cycles: 454757751 heartbeat IPC: 1.13711 cumulative IPC: 0.825312 (Simulation time: 2 hr 37 min 2 sec) 
Heartbeat CPU 4 instructions: 190000001 cycles: 456313475 heartbeat IPC: 0.381849 cumulative IPC: 0.346329 (Simulation time: 2 hr 37 min 34 sec) 
Heartbeat CPU 7 instructions: 510000001 cycles: 460897286 heartbeat IPC: 1.07971 cumulative IPC: 1.06876 (Simulation time: 2 hr 38 min 57 sec) 
Heartbeat CPU 5 instructions: 470000002 cycles: 461784541 heartbeat IPC: 0.948292 cumulative IPC: 0.961889 (Simulation time: 2 hr 39 min 13 sec) 
Heartbeat CPU 6 instructions: 180000000 cycles: 466940589 heartbeat IPC: 0.324245 cumulative IPC: 0.31914 (Simulation time: 2 hr 40 min 50 sec) 
Heartbeat CPU 3 instructions: 330000003 cycles: 468102165 heartbeat IPC: 0.616496 cumulative IPC: 0.637263 (Simulation time: 2 hr 41 min 12 sec) 
Heartbeat CPU 7 instructions: 520000000 cycles: 470100864 heartbeat IPC: 1.08653 cumulative IPC: 1.06912 (Simulation time: 2 hr 41 min 51 sec) 
Heartbeat CPU 2 instructions: 410000002 cycles: 470218966 heartbeat IPC: 0.64678 cumulative IPC: 0.819167 (Simulation time: 2 hr 41 min 53 sec) 
Heartbeat CPU 5 instructions: 480000000 cycles: 472449941 heartbeat IPC: 0.937611 cumulative IPC: 0.961315 (Simulation time: 2 hr 42 min 36 sec) 
Heartbeat CPU 0 instructions: 90000003 cycles: 473384828 heartbeat IPC: 0.153938 cumulative IPC: 0.154754 (Simulation time: 2 hr 42 min 55 sec) 
Heartbeat CPU 7 instructions: 530000002 cycles: 479205235 heartbeat IPC: 1.09837 cumulative IPC: 1.0697 (Simulation time: 2 hr 44 min 54 sec) 
Heartbeat CPU 2 instructions: 420000000 cycles: 480404424 heartbeat IPC: 0.981792 cumulative IPC: 0.822773 (Simulation time: 2 hr 45 min 19 sec) 
Heartbeat CPU 5 instructions: 490000001 cycles: 482975285 heartbeat IPC: 0.950088 cumulative IPC: 0.961059 (Simulation time: 2 hr 46 min 12 sec) 
Heartbeat CPU 4 instructions: 200000000 cycles: 483474054 heartbeat IPC: 0.368181 cumulative IPC: 0.347613 (Simulation time: 2 hr 46 min 23 sec) 
Heartbeat CPU 3 instructions: 340000000 cycles: 484302567 heartbeat IPC: 0.617268 cumulative IPC: 0.636563 (Simulation time: 2 hr 46 min 40 sec) 
Heartbeat CPU 7 instructions: 540000000 cycles: 488339966 heartbeat IPC: 1.09472 cumulative IPC: 1.07019 (Simulation time: 2 hr 48 min 1 sec) 
Heartbeat CPU 2 instructions: 430000000 cycles: 491190642 heartbeat IPC: 0.927109 cumulative IPC: 0.825166 (Simulation time: 2 hr 48 min 53 sec) 
Heartbeat CPU 5 instructions: 500000000 cycles: 493604734 heartbeat IPC: 0.940782 cumulative IPC: 0.960603 (Simulation time: 2 hr 49 min 37 sec) 
Heartbeat CPU 7 instructions: 550000000 cycles: 497834461 heartbeat IPC: 1.05324 cumulative IPC: 1.06985 (Simulation time: 2 hr 50 min 57 sec) 
Heartbeat CPU 6 instructions: 190000002 cycles: 498124743 heartbeat IPC: 0.320676 cumulative IPC: 0.31924 (Simulation time: 2 hr 51 min 2 sec) 
Heartbeat CPU 3 instructions: 350000003 cycles: 500551788 heartbeat IPC: 0.615414 cumulative IPC: 0.635847 (Simulation time: 2 hr 51 min 49 sec) 
Heartbeat CPU 5 instructions: 510000000 cycles: 504253010 heartbeat IPC: 0.939119 cumulative IPC: 0.96013 (Simulation time: 2 hr 53 min 2 sec) 
Heartbeat CPU 2 instructions: 440000000 cycles: 506117519 heartbeat IPC: 0.669932 cumulative IPC: 0.820389 (Simulation time: 2 hr 53 min 41 sec) 
Heartbeat CPU 7 instructions: 560000000 cycles: 506956418 heartbeat IPC: 1.09626 cumulative IPC: 1.07035 (Simulation time: 2 hr 53 min 58 sec) 
Heartbeat CPU 4 instructions: 210000000 cycles: 511053009 heartbeat IPC: 0.362595 cumulative IPC: 0.348456 (Simulation time: 2 hr 55 min 22 sec) 
Heartbeat CPU 5 instructions: 520000000 cycles: 514738310 heartbeat IPC: 0.953716 cumulative IPC: 0.959993 (Simulation time: 2 hr 56 min 37 sec) 
Heartbeat CPU 2 instructions: 450000000 cycles: 514979821 heartbeat IPC: 1.12838 cumulative IPC: 0.825915 (Simulation time: 2 hr 56 min 42 sec) 
Heartbeat CPU 7 instructions: 570000003 cycles: 516123166 heartbeat IPC: 1.0909 cumulative IPC: 1.07073 (Simulation time: 2 hr 57 min 5 sec) 
Heartbeat CPU 3 instructions: 360000000 cycles: 516595739 heartbeat IPC: 0.623288 cumulative IPC: 0.63544 (Simulation time: 2 hr 57 min 14 sec) 
Heartbeat CPU 5 instructions: 530000002 cycles: 525408474 heartbeat IPC: 0.937193 cumulative IPC: 0.959511 (Simulation time: 2 hr 59 min 56 sec) 
Heartbeat CPU 7 instructions: 580000000 cycles: 525897038 heartbeat IPC: 1.02314 cumulative IPC: 1.06981 (Simulation time: 3 hr 0 min 5 sec) 
Heartbeat CPU 1 instructions: 110000001 cycles: 528506807 heartbeat IPC: 0.134076 cumulative IPC: 0.131249 (Simulation time: 3 hr 0 min 56 sec) 
Heartbeat CPU 6 instructions: 200000000 cycles: 529341617 heartbeat IPC: 0.32034 cumulative IPC: 0.319308 (Simulation time: 3 hr 1 min 13 sec) 
Heartbeat CPU 2 instructions: 460000000 cycles: 529774542 heartbeat IPC: 0.675917 cumulative IPC: 0.821553 (Simulation time: 3 hr 1 min 21 sec) 
Heartbeat CPU 3 instructions: 370000001 cycles: 532730354 heartbeat IPC: 0.619786 cumulative IPC: 0.634946 (Simulation time: 3 hr 2 min 18 sec) 
Heartbeat CPU 7 instructions: 590000003 cycles: 534869888 heartbeat IPC: 1.11447 cumulative IPC: 1.07059 (Simulation time: 3 hr 3 min 1 sec) 
Heartbeat CPU 5 instructions: 540000000 cycles: 535955580 heartbeat IPC: 0.948127 cumulative IPC: 0.959278 (Simulation time: 3 hr 3 min 23 sec) 
Heartbeat CPU 4 instructions: 220000000 cycles: 538677490 heartbeat IPC: 0.361998 cumulative IPC: 0.349179 (Simulation time: 3 hr 4 min 19 sec) 
Heartbeat CPU 0 instructions: 100000000 cycles: 539583075 heartbeat IPC: 0.151061 cumulative IPC: 0.154282 (Simulation time: 3 hr 4 min 39 sec) 
Heartbeat CPU 2 instructions: 470000002 cycles: 540910339 heartbeat IPC: 0.898005 cumulative IPC: 0.823191 (Simulation time: 3 hr 5 min 6 sec) 
Heartbeat CPU 7 instructions: 600000000 cycles: 543962715 heartbeat IPC: 1.09977 cumulative IPC: 1.0711 (Simulation time: 3 hr 6 min 9 sec) 
Heartbeat CPU 5 instructions: 550000001 cycles: 546422022 heartbeat IPC: 0.955435 cumulative IPC: 0.959201 (Simulation time: 3 hr 6 min 58 sec) 
Heartbeat CPU 3 instructions: 380000000 cycles: 548904682 heartbeat IPC: 0.618264 cumulative IPC: 0.634435 (Simulation time: 3 hr 7 min 49 sec) 
Heartbeat CPU 2 instructions: 480000000 cycles: 550684507 heartbeat IPC: 1.0231 cumulative IPC: 0.82688 (Simulation time: 3 hr 8 min 22 sec) 
Heartbeat CPU 7 instructions: 610000002 cycles: 553362711 heartbeat IPC: 1.06383 cumulative IPC: 1.07097 (Simulation time: 3 hr 9 min 10 sec) 
Heartbeat CPU 5 instructions: 560000000 cycles: 557036427 heartbeat IPC: 0.942116 cumulative IPC: 0.958863 (Simulation time: 3 hr 10 min 18 sec) 
Heartbeat CPU 6 instructions: 210000001 cycles: 560265595 heartbeat IPC: 0.323374 cumulative IPC: 0.319541 (Simulation time: 3 hr 11 min 21 sec) 
Heartbeat CPU 7 instructions: 620000000 cycles: 562471707 heartbeat IPC: 1.09782 cumulative IPC: 1.07142 (Simulation time: 3 hr 12 min 4 sec) 
Heartbeat CPU 3 instructions: 390000000 cycles: 565046405 heartbeat IPC: 0.619513 cumulative IPC: 0.633992 (Simulation time: 3 hr 12 min 54 sec) 
Heartbeat CPU 4 instructions: 230000000 cycles: 565707913 heartbeat IPC: 0.369954 cumulative IPC: 0.35021 (Simulation time: 3 hr 13 min 7 sec) 
Heartbeat CPU 2 instructions: 490000000 cycles: 566671483 heartbeat IPC: 0.625509 cumulative IPC: 0.82098 (Simulation time: 3 hr 13 min 26 sec) 
Heartbeat CPU 5 instructions: 570000001 cycles: 567597444 heartbeat IPC: 0.946879 cumulative IPC: 0.958631 (Simulation time: 3 hr 13 min 45 sec) 
Heartbeat CPU 7 instructions: 630000000 cycles: 571582811 heartbeat IPC: 1.09756 cumulative IPC: 1.07185 (Simulation time: 3 hr 15 min 7 sec) 
Heartbeat CPU 2 instructions: 500000000 cycles: 575437745 heartbeat IPC: 1.14074 cumulative IPC: 0.826036 (Simulation time: 3 hr 16 min 27 sec) 
Heartbeat CPU 5 instructions: 580000000 cycles: 578031336 heartbeat IPC: 0.958415 cumulative IPC: 0.958627 (Simulation time: 3 hr 17 min 20 sec) 
Heartbeat CPU 7 instructions: 640000000 cycles: 580675086 heartbeat IPC: 1.09983 cumulative IPC: 1.07231 (Simulation time: 3 hr 18 min 11 sec) 
Heartbeat CPU 3 instructions: 400000000 cycles: 580945827 heartbeat IPC: 0.628954 cumulative IPC: 0.633849 (Simulation time: 3 hr 18 min 16 sec) 
Heartbeat CPU 5 instructions: 590000000 cycles: 588696833 heartbeat IPC: 0.937603 cumulative IPC: 0.958232 (Simulation time: 3 hr 20 min 38 sec) 
Heartbeat CPU 2 instructions: 510000001 cycles: 589324268 heartbeat IPC: 0.720123 cumulative IPC: 0.823448 (Simulation time: 3 hr 20 min 50 sec) 
Heartbeat CPU 7 instructions: 650000002 cycles: 590185351 heartbeat IPC: 1.0515 cumulative IPC: 1.07196 (Simulation time: 3 hr 21 min 7 sec) 
Heartbeat CPU 6 instructions: 220000000 cycles: 591517015 heartbeat IPC: 0.319985 cumulative IPC: 0.319565 (Simulation time: 3 hr 21 min 32 sec) 
Heartbeat CPU 4 instructions: 240000000 cycles: 593108098 heartbeat IPC: 0.364961 cumulative IPC: 0.350916 (Simulation time: 3 hr 22 min 2 sec) 
Heartbeat CPU 3 instructions: 410000001 cycles: 596934772 heartbeat IPC: 0.625432 cumulative IPC: 0.633616 (Simulation time: 3 hr 23 min 15 sec) 
Heartbeat CPU 5 instructions: 600000000 cycles: 599298529 heartbeat IPC: 0.943245 cumulative IPC: 0.957958 (Simulation time: 3 hr 24 min 3 sec) 
Heartbeat CPU 7 instructions: 660000000 cycles: 599335061 heartbeat IPC: 1.09293 cumulative IPC: 1.07229 (Simulation time: 3 hr 24 min 4 sec) 
Heartbeat CPU 2 instructions: 520000000 cycles: 601320097 heartbeat IPC: 0.833623 cumulative IPC: 0.823658 (Simulation time: 3 hr 24 min 46 sec) 
Heartbeat CPU 1 instructions: 120000000 cycles: 601967517 heartbeat IPC: 0.136127 cumulative IPC: 0.131866 (Simulation time: 3 hr 24 min 59 sec) 
Heartbeat CPU 0 instructions: 110000002 cycles: 606422273 heartbeat IPC: 0.149613 cumulative IPC: 0.153749 (Simulation time: 3 hr 26 min 29 sec) 
Heartbeat CPU 7 instructions: 670000003 cycles: 608367813 heartbeat IPC: 1.10708 cumulative IPC: 1.07283 (Simulation time: 3 hr 27 min 8 sec) 
Heartbeat CPU 5 instructions: 610000003 cycles: 609703040 heartbeat IPC: 0.961122 cumulative IPC: 0.958014 (Simulation time: 3 hr 27 min 36 sec) 
Heartbeat CPU 2 instructions: 530000000 cycles: 610147773 heartbeat IPC: 1.1328 cumulative IPC: 0.828291 (Simulation time: 3 hr 27 min 46 sec) 
Heartbeat CPU 3 instructions: 420000000 cycles: 612848232 heartbeat IPC: 0.628399 cumulative IPC: 0.633475 (Simulation time: 3 hr 28 min 35 sec) 
Heartbeat CPU 7 instructions: 680000000 cycles: 618049659 heartbeat IPC: 1.03286 cumulative IPC: 1.07218 (Simulation time: 3 hr 30 min 7 sec) 
Heartbeat CPU 5 instructions: 620000000 cycles: 620329054 heartbeat IPC: 0.941086 cumulative IPC: 0.957713 (Simulation time: 3 hr 30 min 49 sec) 
Heartbeat CPU 4 instructions: 250000000 cycles: 621075656 heartbeat IPC: 0.357557 cumulative IPC: 0.351226 (Simulation time: 3 hr 31 min 3 sec) 
Heartbeat CPU 6 instructions: 230000002 cycles: 622793573 heartbeat IPC: 0.319728 cumulative IPC: 0.319574 (Simulation time: 3 hr 31 min 36 sec) 
Heartbeat CPU 7 instructions: 690000002 cycles: 627007239 heartbeat IPC: 1.11637 cumulative IPC: 1.07283 (Simulation time: 3 hr 32 min 59 sec) 
Heartbeat CPU 2 instructions: 540000000 cycles: 627136905 heartbeat IPC: 0.588612 cumulative IPC: 0.821572 (Simulation time: 3 hr 33 min 1 sec) 
Heartbeat CPU 3 instructions: 430000001 cycles: 628653927 heartbeat IPC: 0.632683 cumulative IPC: 0.633455 (Simulation time: 3 hr 33 min 32 sec) 
Heartbeat CPU 5 instructions: 630000003 cycles: 630846962 heartbeat IPC: 0.95076 cumulative IPC: 0.957593 (Simulation time: 3 hr 34 min 17 sec) 
Heartbeat CPU 2 instructions: 550000001 cycles: 635952792 heartbeat IPC: 1.13432 cumulative IPC: 0.826056 (Simulation time: 3 hr 36 min 3 sec) 
Heartbeat CPU 7 instructions: 700000000 cycles: 636035108 heartbeat IPC: 1.10768 cumulative IPC: 1.07334 (Simulation time: 3 hr 36 min 4 sec) 
Heartbeat CPU 5 instructions: 640000000 cycles: 641242751 heartbeat IPC: 0.961928 cumulative IPC: 0.957666 (Simulation time: 3 hr 37 min 50 sec) 
Heartbeat CPU 3 instructions: 440000000 cycles: 644814780 heartbeat IPC: 0.618779 cumulative IPC: 0.633075 (Simulation time: 3 hr 38 min 55 sec) 
Heartbeat CPU 7 instructions: 710000002 cycles: 645419704 heartbeat IPC: 1.06558 cumulative IPC: 1.07323 (Simulation time: 3 hr 39 min 6 sec) 
Heartbeat CPU 4 instructions: 260000000 cycles: 647833354 heartbeat IPC: 0.373724 cumulative IPC: 0.352186 (Simulation time: 3 hr 39 min 50 sec) 
Heartbeat CPU 2 instructions: 560000000 cycles: 648697617 heartbeat IPC: 0.784632 cumulative IPC: 0.825215 (Simulation time: 3 hr 40 min 7 sec) 
Heartbeat CPU 5 instructions: 650000000 cycles: 651883903 heartbeat IPC: 0.939748 cumulative IPC: 0.957364 (Simulation time: 3 hr 41 min 7 sec) 
Heartbeat CPU 6 instructions: 240000000 cycles: 653594431 heartbeat IPC: 0.324666 cumulative IPC: 0.319822 (Simulation time: 3 hr 41 min 40 sec) 
Heartbeat CPU 7 instructions: 720000000 cycles: 654629416 heartbeat IPC: 1.08581 cumulative IPC: 1.07341 (Simulation time: 3 hr 42 min 0 sec) 
Heartbeat CPU 3 instructions: 450000002 cycles: 660624014 heartbeat IPC: 0.632542 cumulative IPC: 0.633061 (Simulation time: 3 hr 43 min 57 sec) 
Heartbeat CPU 2 instructions: 570000000 cycles: 661641045 heartbeat IPC: 0.772593 cumulative IPC: 0.824152 (Simulation time: 3 hr 44 min 18 sec) 
Heartbeat CPU 5 instructions: 660000000 cycles: 662441974 heartbeat IPC: 0.947143 cumulative IPC: 0.957196 (Simulation time: 3 hr 44 min 34 sec) 
Heartbeat CPU 7 instructions: 730000002 cycles: 663862334 heartbeat IPC: 1.08308 cumulative IPC: 1.07355 (Simulation time: 3 hr 45 min 3 sec) 
Heartbeat CPU 2 instructions: 580000000 cycles: 670504692 heartbeat IPC: 1.1282 cumulative IPC: 0.828301 (Simulation time: 3 hr 47 min 16 sec) 
Heartbeat CPU 5 instructions: 670000001 cycles: 672903041 heartbeat IPC: 0.955926 cumulative IPC: 0.957175 (Simulation time: 3 hr 48 min 2 sec) 
Heartbeat CPU 7 instructions: 740000000 cycles: 673036282 heartbeat IPC: 1.09004 cumulative IPC: 1.07378 (Simulation time: 3 hr 48 min 5 sec) 
Heartbeat CPU 0 instructions: 120000000 cycles: 674016942 heartbeat IPC: 0.147941 cumulative IPC: 0.153148 (Simulation time: 3 hr 48 min 22 sec) 
Finished CPU 0 instructions: 100000000 cycles: 652964141 cumulative IPC: 0.153148 (Simulation time: 3 hr 48 min 22 sec) 
Heartbeat CPU 4 instructions: 270000002 cycles: 674610312 heartbeat IPC: 0.373455 cumulative IPC: 0.353058 (Simulation time: 3 hr 48 min 32 sec) 
Heartbeat CPU 3 instructions: 460000000 cycles: 676268449 heartbeat IPC: 0.639205 cumulative IPC: 0.633208 (Simulation time: 3 hr 49 min 1 sec) 
Heartbeat CPU 1 instructions: 130000000 cycles: 677205181 heartbeat IPC: 0.132912 cumulative IPC: 0.131986 (Simulation time: 3 hr 49 min 16 sec) 
Heartbeat CPU 7 instructions: 750000000 cycles: 682709306 heartbeat IPC: 1.0338 cumulative IPC: 1.0732 (Simulation time: 3 hr 50 min 59 sec) 
Heartbeat CPU 5 instructions: 680000000 cycles: 683557883 heartbeat IPC: 0.93854 cumulative IPC: 0.956876 (Simulation time: 3 hr 51 min 14 sec) 
Heartbeat CPU 6 instructions: 250000003 cycles: 685189548 heartbeat IPC: 0.316505 cumulative IPC: 0.319664 (Simulation time: 3 hr 51 min 44 sec) 
Heartbeat CPU 2 instructions: 590000001 cycles: 687115524 heartbeat IPC: 0.602017 cumulative IPC: 0.822658 (Simulation time: 3 hr 52 min 20 sec) 
Heartbeat CPU 3 instructions: 470000002 cycles: 691902783 heartbeat IPC: 0.639618 cumulative IPC: 0.633357 (Simulation time: 3 hr 53 min 55 sec) 
Heartbeat CPU 7 instructions: 760000000 cycles: 691951138 heartbeat IPC: 1.08204 cumulative IPC: 1.07332 (Simulation time: 3 hr 53 min 56 sec) 
Heartbeat CPU 5 instructions: 690000003 cycles: 694115440 heartbeat IPC: 0.947189 cumulative IPC: 0.956724 (Simulation time: 3 hr 54 min 39 sec) 
Heartbeat CPU 2 instructions: 600000000 cycles: 696397121 heartbeat IPC: 1.0774 cumulative IPC: 0.826159 (Simulation time: 3 hr 55 min 26 sec) 
Heartbeat CPU 7 instructions: 770000000 cycles: 700927438 heartbeat IPC: 1.11404 cumulative IPC: 1.07386 (Simulation time: 3 hr 56 min 59 sec) 
Heartbeat CPU 4 instructions: 280000000 cycles: 701228125 heartbeat IPC: 0.375688 cumulative IPC: 0.353943 (Simulation time: 3 hr 57 min 5 sec) 
Heartbeat CPU 5 instructions: 700000000 cycles: 704556095 heartbeat IPC: 0.957794 cumulative IPC: 0.95674 (Simulation time: 3 hr 58 min 8 sec) 
Heartbeat CPU 3 instructions: 480000000 cycles: 707900619 heartbeat IPC: 0.625084 cumulative IPC: 0.633165 (Simulation time: 3 hr 59 min 6 sec) 
Heartbeat CPU 2 instructions: 610000002 cycles: 708459005 heartbeat IPC: 0.829058 cumulative IPC: 0.82621 (Simulation time: 3 hr 59 min 16 sec) 
Heartbeat CPU 7 instructions: 780000000 cycles: 710512820 heartbeat IPC: 1.04326 cumulative IPC: 1.07343 (Simulation time: 3 hr 59 min 54 sec) 
Heartbeat CPU 5 instructions: 710000002 cycles: 715199404 heartbeat IPC: 0.939558 cumulative IPC: 0.956476 (Simulation time: 4 hr 1 min 22 sec) 
Heartbeat CPU 6 instructions: 260000000 cycles: 716375947 heartbeat IPC: 0.320653 cumulative IPC: 0.319708 (Simulation time: 4 hr 1 min 44 sec) 
Heartbeat CPU 7 instructions: 790000001 cycles: 719676950 heartbeat IPC: 1.09121 cumulative IPC: 1.07366 (Simulation time: 4 hr 2 min 46 sec) 
Heartbeat CPU 2 instructions: 620000000 cycles: 722187112 heartbeat IPC: 0.728432 cumulative IPC: 0.824296 (Simulation time: 4 hr 3 min 36 sec) 
Heartbeat CPU 3 instructions: 490000000 cycles: 723432783 heartbeat IPC: 0.643825 cumulative IPC: 0.6334 (Simulation time: 4 hr 4 min 1 sec) 
Heartbeat CPU 5 instructions: 720000000 cycles: 725695330 heartbeat IPC: 0.95275 cumulative IPC: 0.956421 (Simulation time: 4 hr 4 min 47 sec) 
Heartbeat CPU 7 instructions: 800000000 cycles: 728694508 heartbeat IPC: 1.10895 cumulative IPC: 1.07411 (Simulation time: 4 hr 5 min 48 sec) 
Heartbeat CPU 4 instructions: 290000000 cycles: 728792625 heartbeat IPC: 0.362785 cumulative IPC: 0.354288 (Simulation time: 4 hr 5 min 50 sec) 
Heartbeat CPU 2 instructions: 630000002 cycles: 730987441 heartbeat IPC: 1.13632 cumulative IPC: 0.828163 (Simulation time: 4 hr 6 min 34 sec) 
Heartbeat CPU 5 instructions: 730000002 cycles: 736178277 heartbeat IPC: 0.95393 cumulative IPC: 0.956384 (Simulation time: 4 hr 8 min 12 sec) 
Heartbeat CPU 7 instructions: 810000003 cycles: 738075899 heartbeat IPC: 1.06594 cumulative IPC: 1.07401 (Simulation time: 4 hr 8 min 46 sec) 
Heartbeat CPU 3 instructions: 500000000 cycles: 739265166 heartbeat IPC: 0.631617 cumulative IPC: 0.633361 (Simulation time: 4 hr 9 min 7 sec) 
Heartbeat CPU 0 instructions: 130000000 cycles: 742203135 heartbeat IPC: 0.146657 cumulative IPC: 0.152534 (Simulation time: 4 hr 10 min 4 sec) 
Heartbeat CPU 2 instructions: 640000000 cycles: 746492249 heartbeat IPC: 0.644961 cumulative IPC: 0.824248 (Simulation time: 4 hr 11 min 27 sec) 
Heartbeat CPU 5 instructions: 740000000 cycles: 746767456 heartbeat IPC: 0.94436 cumulative IPC: 0.956209 (Simulation time: 4 hr 11 min 32 sec) 
Heartbeat CPU 7 instructions: 820000000 cycles: 747039940 heartbeat IPC: 1.11557 cumulative IPC: 1.07452 (Simulation time: 4 hr 11 min 37 sec) 
Heartbeat CPU 6 instructions: 270000001 cycles: 747491608 heartbeat IPC: 0.321382 cumulative IPC: 0.31978 (Simulation time: 4 hr 11 min 46 sec) 
Heartbeat CPU 1 instructions: 140000000 cycles: 750411797 heartbeat IPC: 0.1366 cumulative IPC: 0.132449 (Simulation time: 4 hr 12 min 40 sec) 
Heartbeat CPU 3 instructions: 510000002 cycles: 754765182 heartbeat IPC: 0.645161 cumulative IPC: 0.63361 (Simulation time: 4 hr 14 min 8 sec) 
Heartbeat CPU 4 instructions: 300000000 cycles: 755961989 heartbeat IPC: 0.368062 cumulative IPC: 0.354797 (Simulation time: 4 hr 14 min 33 sec) 
Heartbeat CPU 7 instructions: 830000001 cycles: 756290998 heartbeat IPC: 1.08096 cumulative IPC: 1.0746 (Simulation time: 4 hr 14 min 39 sec) 
Heartbeat CPU 2 instructions: 650000002 cycles: 756627863 heartbeat IPC: 0.98662 cumulative IPC: 0.826485 (Simulation time: 4 hr 14 min 47 sec) 
Heartbeat CPU 5 instructions: 750000003 cycles: 757275536 heartbeat IPC: 0.951649 cumulative IPC: 0.956144 (Simulation time: 4 hr 15 min 0 sec) 
Heartbeat CPU 7 instructions: 840000000 cycles: 765554735 heartbeat IPC: 1.07948 cumulative IPC: 1.07466 (Simulation time: 4 hr 17 min 40 sec) 
Heartbeat CPU 2 instructions: 660000000 cycles: 767646853 heartbeat IPC: 0.907524 cumulative IPC: 0.827681 (Simulation time: 4 hr 18 min 18 sec) 
Heartbeat CPU 5 instructions: 760000000 cycles: 767805261 heartbeat IPC: 0.949692 cumulative IPC: 0.956053 (Simulation time: 4 hr 18 min 20 sec) 
Heartbeat CPU 3 instructions: 520000000 cycles: 770359697 heartbeat IPC: 0.641251 cumulative IPC: 0.633769 (Simulation time: 4 hr 19 min 2 sec) 
Heartbeat CPU 7 instructions: 850000002 cycles: 775598912 heartbeat IPC: 0.995602 cumulative IPC: 1.07361 (Simulation time: 4 hr 20 min 32 sec) 
Finished CPU 1 instructions: 100000000 cycles: 755888569 cumulative IPC: 0.132295 (Simulation time: 4 hr 20 min 55 sec) 

CPU 0 Branch Prediction Accuracy: 92.401% MPKI: 6.11913

CPU 1 Branch Prediction Accuracy: 99.5572% MPKI: 1.26708

CPU 2 Branch Prediction Accuracy: 99.8832% MPKI: 0.0593808

CPU 3 Branch Prediction Accuracy: 96.607% MPKI: 4.28707

CPU 4 Branch Prediction Accuracy: 98.3098% MPKI: 2.88118

CPU 5 Branch Prediction Accuracy: 99.9252% MPKI: 0.0331144

CPU 6 Branch Prediction Accuracy: 96.3225% MPKI: 8.0453

CPU 7 Branch Prediction Accuracy: 99.9708% MPKI: 0.00710876

ChampSim completed all CPUs

Total Simulation Statistics (not including warmup)

CPU 0 cumulative IPC: 0.152315 instructions: 115132919 cycles: 755888568
L1D TOTAL     ACCESS:   61735449  HIT:   51347684  MISS:   10387765
L1D LOAD      ACCESS:   39057726  HIT:   33705351  MISS:    5352375
L1D RFO       ACCESS:   22677723  HIT:   17642333  MISS:    5035390
L1D PREFETCH  ACCESS:          0  HIT:          0  MISS:          0
L1D WRITEBACK ACCESS:          0  HIT:          0  MISS:          0
L1I TOTAL     ACCESS:   27632803  HIT:   27632803  MISS:          0
L1I LOAD      ACCESS:   27632803  HIT:   27632803  MISS:          0
L1I RFO       ACCESS:          0  HIT:          0  MISS:          0
L1I PREFETCH  ACCESS:          0  HIT:          0  MISS:          0
L1I WRITEBACK ACCESS:          0  HIT:          0  MISS:          0
L2C TOTAL     ACCESS:   25042473  HIT:   14431397  MISS:   10611076
L2C LOAD      ACCESS:    5352296  HIT:    2965519  MISS:    2386777
L2C RFO       ACCESS:    5035390  HIT:         10  MISS:    5035380
L2C PREFETCH  ACCESS:    4267022  HIT:    1083452  MISS:    3183570
L2C WRITEBACK ACCESS:   10387765  HIT:   10382416  MISS:       5349

Avg Lookahead Depth:	4.19741
TOTAL: 1.82778e+08	L2C: 1.53451e+08	LLC: 2.93269e+07	GOOD_L2C: 9.42492e+07
Printing all the perceptron weights to: perc_weights_0.csv
LLC TOTAL     ACCESS:   22119194  HIT:   12966005  MISS:    9153189
LLC LOAD      ACCESS:    2223421  HIT:    1644655  MISS:     578766
LLC RFO       ACCESS:    5035380  HIT:      14703  MISS:    5020677
LLC PREFETCH  ACCESS:    4798768  HIT:    1245581  MISS:    3553187
LLC WRITEBACK ACCESS:   10061625  HIT:   10061066  MISS:        559

CPU 1 cumulative IPC: 0.132295 instructions: 100000000 cycles: 755888569
L1D TOTAL     ACCESS:   17560495  HIT:   10318340  MISS:    7242155
L1D LOAD      ACCESS:   16091334  HIT:    8851929  MISS:    7239405
L1D RFO       ACCESS:    1469161  HIT:    1466411  MISS:       2750
L1D PREFETCH  ACCESS:          0  HIT:          0  MISS:          0
L1D WRITEBACK ACCESS:          0  HIT:          0  MISS:          0
L1I TOTAL     ACCESS:   36432143  HIT:   36432118  MISS:         25
L1I LOAD      ACCESS:   36432143  HIT:   36432118  MISS:         25
L1I RFO       ACCESS:          0  HIT:          0  MISS:          0
L1I PREFETCH  ACCESS:          0  HIT:          0  MISS:          0
L1I WRITEBACK ACCESS:          0  HIT:          0  MISS:          0
L2C TOTAL     ACCESS:   12939995  HIT:    5825557  MISS:    7114438
L2C LOAD      ACCESS:    7239430  HIT:    4810104  MISS:    2429326
L2C RFO       ACCESS:       2750  HIT:         87  MISS:       2663
L2C PREFETCH  ACCESS:    5672355  HIT:     989906  MISS:    4682449
L2C WRITEBACK ACCESS:      25460  HIT:      25460  MISS:          0

Avg Lookahead Depth:	4.19741
TOTAL: 1.82778e+08	L2C: 1.53451e+08	LLC: 2.93269e+07	GOOD_L2C: 9.42492e+07
Printing all the perceptron weights to: perc_weights_0.csv
LLC TOTAL     ACCESS:    7292849  HIT:     150886  MISS:    7141963
LLC LOAD      ACCESS:     269595  HIT:       6789  MISS:     262806
LLC RFO       ACCESS:       2637  HIT:        220  MISS:       2417
LLC PREFETCH  ACCESS:    7009403  HIT:     132675  MISS:    6876728
LLC WRITEBACK ACCESS:      11214  HIT:      11202  MISS:         12

CPU 2 cumulative IPC: 0.824507 instructions: 623235146 cycles: 755888569
L1D TOTAL     ACCESS:  161986041  HIT:  145054851  MISS:   16931190
L1D LOAD      ACCESS:  154263098  HIT:  141448461  MISS:   12814637
L1D RFO       ACCESS:    7722943  HIT:    3606390  MISS:    4116553
L1D PREFETCH  ACCESS:          0  HIT:          0  MISS:          0
L1D WRITEBACK ACCESS:          0  HIT:          0  MISS:          0
L1I TOTAL     ACCESS:  158393424  HIT:  158393374  MISS:         50
L1I LOAD      ACCESS:  158393424  HIT:  158393374  MISS:         50
L1I RFO       ACCESS:          0  HIT:          0  MISS:          0
L1I PREFETCH  ACCESS:          0  HIT:          0  MISS:          0
L1I WRITEBACK ACCESS:          0  HIT:          0  MISS:          0
L2C TOTAL     ACCESS:   40391033  HIT:   26796652  MISS:   13594381
L2C LOAD      ACCESS:   12814549  HIT:   11950594  MISS:     863955
L2C RFO       ACCESS:    4116553  HIT:         11  MISS:    4116542
L2C PREFETCH  ACCESS:   19317622  HIT:   10703866  MISS:    8613756
L2C WRITEBACK ACCESS:    4142309  HIT:    4142181  MISS:        128

Avg Lookahead Depth:	4.19741
TOTAL: 1.82778e+08	L2C: 1.53451e+08	LLC: 2.93269e+07	GOOD_L2C: 9.42492e+07
Printing all the perceptron weights to: perc_weights_0.csv
LLC TOTAL     ACCESS:   18867060  HIT:    5177060  MISS:   13690000
LLC LOAD      ACCESS:     438335  HIT:      11454  MISS:     426881
LLC RFO       ACCESS:    4116537  HIT:         11  MISS:    4116526
LLC PREFETCH  ACCESS:   10196987  HIT:    1050493  MISS:    9146494
LLC WRITEBACK ACCESS:    4115201  HIT:    4115102  MISS:         99

CPU 3 cumulative IPC: 0.633861 instructions: 479128101 cycles: 755888569
L1D TOTAL     ACCESS:  124315601  HIT:  121008129  MISS:    3307472
L1D LOAD      ACCESS:   75568421  HIT:   72412662  MISS:    3155759
L1D RFO       ACCESS:   48747180  HIT:   48595467  MISS:     151713
L1D PREFETCH  ACCESS:          0  HIT:          0  MISS:          0
L1D WRITEBACK ACCESS:          0  HIT:          0  MISS:          0
L1I TOTAL     ACCESS:  105179670  HIT:  105179670  MISS:          0
L1I LOAD      ACCESS:  105179670  HIT:  105179670  MISS:          0
L1I RFO       ACCESS:          0  HIT:          0  MISS:          0
L1I PREFETCH  ACCESS:          0  HIT:          0  MISS:          0
L1I WRITEBACK ACCESS:          0  HIT:          0  MISS:          0
L2C TOTAL     ACCESS:    7858490  HIT:    4638682  MISS:    3219808
L2C LOAD      ACCESS:    3155759  HIT:    1571202  MISS:    1584557
L2C RFO       ACCESS:     151709  HIT:      58375  MISS:      93334
L2C PREFETCH  ACCESS:    4312093  HIT:    2773368  MISS:    1538725
L2C WRITEBACK ACCESS:     238929  HIT:     235737  MISS:       3192

Avg Lookahead Depth:	4.19741
TOTAL: 1.82778e+08	L2C: 1.53451e+08	LLC: 2.93269e+07	GOOD_L2C: 9.42492e+07
Printing all the perceptron weights to: perc_weights_0.csv
LLC TOTAL     ACCESS:    4519569  HIT:    3918393  MISS:     601176
LLC LOAD      ACCESS:    1481571  HIT:    1360441  MISS:     121130
LLC RFO       ACCESS:      93322  HIT:      23705  MISS:      69617
LLC PREFETCH  ACCESS:    2819272  HIT:    2421148  MISS:     398124
LLC WRITEBACK ACCESS:     125404  HIT:     113099  MISS:      12305

CPU 4 cumulative IPC: 0.353797 instructions: 267431157 cycles: 755888569
L1D TOTAL     ACCESS:  106506221  HIT:   64989318  MISS:   41516903
L1D LOAD      ACCESS:   90231528  HIT:   49257628  MISS:   40973900
L1D RFO       ACCESS:   16274693  HIT:   15731690  MISS:     543003
L1D PREFETCH  ACCESS:          0  HIT:          0  MISS:          0
L1D WRITEBACK ACCESS:          0  HIT:          0  MISS:          0
L1I TOTAL     ACCESS:   96001978  HIT:   96001977  MISS:          1
L1I LOAD      ACCESS:   96001978  HIT:   96001977  MISS:          1
L1I RFO       ACCESS:          0  HIT:          0  MISS:          0
L1I PREFETCH  ACCESS:          0  HIT:          0  MISS:          0
L1I WRITEBACK ACCESS:          0  HIT:          0  MISS:          0
L2C TOTAL     ACCESS:   79594470  HIT:   30344766  MISS:   49249704
L2C LOAD      ACCESS:   40973889  HIT:   25339325  MISS:   15634564
L2C RFO       ACCESS:     543003  HIT:      25778  MISS:     517225
L2C PREFETCH  ACCESS:   37335201  HIT:    4239428  MISS:   33095773
L2C WRITEBACK ACCESS:     742377  HIT:     740235  MISS:       2142

Avg Lookahead Depth:	4.19741
TOTAL: 1.82778e+08	L2C: 1.53451e+08	LLC: 2.93269e+07	GOOD_L2C: 9.42492e+07
Printing all the perceptron weights to: perc_weights_0.csv
LLC TOTAL     ACCESS:   54827797  HIT:   51555792  MISS:    3272005
LLC LOAD      ACCESS:    5483741  HIT:    5440631  MISS:      43110
LLC RFO       ACCESS:     516006  HIT:       5262  MISS:     510744
LLC PREFETCH  ACCESS:   48089847  HIT:   45371878  MISS:    2717969
LLC WRITEBACK ACCESS:     738203  HIT:     738021  MISS:        182

CPU 5 cumulative IPC: 0.951861 instructions: 719500819 cycles: 755888569
L1D TOTAL     ACCESS:  220954343  HIT:  207987625  MISS:   12966718
L1D LOAD      ACCESS:  192411469  HIT:  179923135  MISS:   12488334
L1D RFO       ACCESS:   28542874  HIT:   28064490  MISS:     478384
L1D PREFETCH  ACCESS:          0  HIT:          0  MISS:          0
L1D WRITEBACK ACCESS:          0  HIT:          0  MISS:          0
L1I TOTAL     ACCESS:  180330755  HIT:  180330566  MISS:        189
L1I LOAD      ACCESS:  180330755  HIT:  180330566  MISS:        189
L1I RFO       ACCESS:          0  HIT:          0  MISS:          0
L1I PREFETCH  ACCESS:          0  HIT:          0  MISS:          0
L1I WRITEBACK ACCESS:          0  HIT:          0  MISS:          0
L2C TOTAL     ACCESS:   36493356  HIT:   26782616  MISS:    9710740
L2C LOAD      ACCESS:   12487700  HIT:   11822964  MISS:     664736
L2C RFO       ACCESS:     478384  HIT:       4969  MISS:     473415
L2C PREFETCH  ACCESS:   20627235  HIT:   12056862  MISS:    8570373
L2C WRITEBACK ACCESS:    2900037  HIT:    2897821  MISS:       2216

Avg Lookahead Depth:	4.19741
TOTAL: 1.82778e+08	L2C: 1.53451e+08	LLC: 2.93269e+07	GOOD_L2C: 9.42492e+07
Printing all the perceptron weights to: perc_weights_0.csv
LLC TOTAL     ACCESS:   12271558  HIT:    4009812  MISS:    8261746
LLC LOAD      ACCESS:     585738  HIT:     117732  MISS:     468006
LLC RFO       ACCESS:     473401  HIT:      61815  MISS:     411586
LLC PREFETCH  ACCESS:   10729880  HIT:    3358076  MISS:    7371804
LLC WRITEBACK ACCESS:     482539  HIT:     472189  MISS:      10350

CPU 6 cumulative IPC: 0.31954 instructions: 241536650 cycles: 755888569
L1D TOTAL     ACCESS:   74357759  HIT:   67796178  MISS:    6561581
L1D LOAD      ACCESS:   50916068  HIT:   44356415  MISS:    6559653
L1D RFO       ACCESS:   23441691  HIT:   23439763  MISS:       1928
L1D PREFETCH  ACCESS:          0  HIT:          0  MISS:          0
L1D WRITEBACK ACCESS:          0  HIT:          0  MISS:          0
L1I TOTAL     ACCESS:   60336175  HIT:   60336175  MISS:          0
L1I LOAD      ACCESS:   60336175  HIT:   60336175  MISS:          0
L1I RFO       ACCESS:          0  HIT:          0  MISS:          0
L1I PREFETCH  ACCESS:          0  HIT:          0  MISS:          0
L1I WRITEBACK ACCESS:          0  HIT:          0  MISS:          0
L2C TOTAL     ACCESS:   15348985  HIT:   10999270  MISS:    4349715
L2C LOAD      ACCESS:    6559653  HIT:    5768222  MISS:     791431
L2C RFO       ACCESS:       1928  HIT:         91  MISS:       1837
L2C PREFETCH  ACCESS:    8771828  HIT:    5215381  MISS:    3556447
L2C WRITEBACK ACCESS:      15576  HIT:      15576  MISS:          0

Avg Lookahead Depth:	4.19741
TOTAL: 1.82778e+08	L2C: 1.53451e+08	LLC: 2.93269e+07	GOOD_L2C: 9.42492e+07
Printing all the perceptron weights to: perc_weights_0.csv
LLC TOTAL     ACCESS:    4537393  HIT:     181488  MISS:    4355905
LLC LOAD      ACCESS:     150955  HIT:       6526  MISS:     144429
LLC RFO       ACCESS:       1815  HIT:        217  MISS:       1598
LLC PREFETCH  ACCESS:    4378634  HIT:     168834  MISS:    4209800
LLC WRITEBACK ACCESS:       5989  HIT:       5911  MISS:         78

CPU 7 cumulative IPC: 1.07351 instructions: 811455637 cycles: 755888569
L1D TOTAL     ACCESS:  309794806  HIT:  292968362  MISS:   16826444
L1D LOAD      ACCESS:  265263542  HIT:  248936003  MISS:   16327539
L1D RFO       ACCESS:   44531264  HIT:   44032359  MISS:     498905
L1D PREFETCH  ACCESS:          0  HIT:          0  MISS:          0
L1D WRITEBACK ACCESS:          0  HIT:          0  MISS:          0
L1I TOTAL     ACCESS:  199616977  HIT:  199616977  MISS:          0
L1I LOAD      ACCESS:  199616977  HIT:  199616977  MISS:          0
L1I RFO       ACCESS:          0  HIT:          0  MISS:          0
L1I PREFETCH  ACCESS:          0  HIT:          0  MISS:          0
L1I WRITEBACK ACCESS:          0  HIT:          0  MISS:          0
L2C TOTAL     ACCESS:   39033813  HIT:   23578322  MISS:   15455491
L2C LOAD      ACCESS:   16322633  HIT:   15008810  MISS:    1313823
L2C RFO       ACCESS:     489143  HIT:      93767  MISS:     395376
L2C PREFETCH  ACCESS:   21676542  HIT:    7931955  MISS:   13744587
L2C WRITEBACK ACCESS:     545495  HIT:     543790  MISS:       1705

Avg Lookahead Depth:	4.19741
TOTAL: 1.82778e+08	L2C: 1.53451e+08	LLC: 2.93269e+07	GOOD_L2C: 9.42492e+07
Printing all the perceptron weights to: perc_weights_0.csv
LLC TOTAL     ACCESS:   17460553  HIT:    2038935  MISS:   15421618
LLC LOAD      ACCESS:     677471  HIT:      56575  MISS:     620896
LLC RFO       ACCESS:     395376  HIT:          0  MISS:     395376
LLC PREFETCH  ACCESS:   15989830  HIT:    1585021  MISS:   14404809
LLC WRITEBACK ACCESS:     397876  HIT:     397339  MISS:        537

Region of Interest Statistics

CPU 0 cumulative IPC: 0.153148 instructions: 100000000 cycles: 652964141
L1D TOTAL     ACCESS:   53619176  HIT:   44596347  MISS:    9022829
L1D LOAD      ACCESS:   33921673  HIT:   29272274  MISS:    4649399
L1D RFO       ACCESS:   19697503  HIT:   15324073  MISS:    4373430
L1D PREFETCH  ACCESS:          0  HIT:          0  MISS:          0
L1D WRITEBACK ACCESS:          0  HIT:          0  MISS:          0
L1D PREFETCH  REQUESTED:          0  ISSUED:          0  USEFUL:          0  USELESS:          0
L1I TOTAL     ACCESS:   24005773  HIT:   24005773  MISS:          0
L1I LOAD      ACCESS:   24005773  HIT:   24005773  MISS:          0
L1I RFO       ACCESS:          0  HIT:          0  MISS:          0
L1I PREFETCH  ACCESS:          0  HIT:          0  MISS:          0
L1I WRITEBACK ACCESS:          0  HIT:          0  MISS:          0
L1I PREFETCH  REQUESTED:          0  ISSUED:          0  USEFUL:          0  USELESS:          0
L2C TOTAL     ACCESS:   21763248  HIT:   12508776  MISS:    9254472
L2C LOAD      ACCESS:    4649330  HIT:    2552106  MISS:    2097224
L2C RFO       ACCESS:    4373430  HIT:         10  MISS:    4373420
L2C PREFETCH  ACCESS:    3717659  HIT:     938526  MISS:    2779133
L2C WRITEBACK ACCESS:    9022829  HIT:    9018134  MISS:       4695
L2C PREFETCH  REQUESTED:    7327779  ISSUED:    7327779  USEFUL:    3120577  USELESS:     585999
LLC TOTAL     ACCESS:   19290043  HIT:   11366294  MISS:    7923749
LLC LOAD      ACCESS:    1954196  HIT:    1469940  MISS:     484256
LLC RFO       ACCESS:    4373420  HIT:      13660  MISS:    4359760
LLC PREFETCH  ACCESS:    4197899  HIT:    1118503  MISS:    3079396
LLC WRITEBACK ACCESS:    8764528  HIT:    8764191  MISS:        337
LLC PREFETCH  REQUESTED:          0  ISSUED:          0  USEFUL:     524200  USELESS:   54163925
Major fault: 0 Minor fault: 263747

CPU 1 cumulative IPC: 0.132295 instructions: 100000000 cycles: 755888569
L1D TOTAL     ACCESS:   17560495  HIT:   10318340  MISS:    7242155
L1D LOAD      ACCESS:   16091334  HIT:    8851929  MISS:    7239405
L1D RFO       ACCESS:    1469161  HIT:    1466411  MISS:       2750
L1D PREFETCH  ACCESS:          0  HIT:          0  MISS:          0
L1D WRITEBACK ACCESS:          0  HIT:          0  MISS:          0
L1D PREFETCH  REQUESTED:          0  ISSUED:          0  USEFUL:          0  USELESS:          0
L1I TOTAL     ACCESS:   36432143  HIT:   36432118  MISS:         25
L1I LOAD      ACCESS:   36432143  HIT:   36432118  MISS:         25
L1I RFO       ACCESS:          0  HIT:          0  MISS:          0
L1I PREFETCH  ACCESS:          0  HIT:          0  MISS:          0
L1I WRITEBACK ACCESS:          0  HIT:          0  MISS:          0
L1I PREFETCH  REQUESTED:          0  ISSUED:          0  USEFUL:          0  USELESS:          0
L2C TOTAL     ACCESS:   12939995  HIT:    5825557  MISS:    7114438
L2C LOAD      ACCESS:    7239430  HIT:    4810104  MISS:    2429326
L2C RFO       ACCESS:       2750  HIT:         87  MISS:       2663
L2C PREFETCH  ACCESS:    5672355  HIT:     989906  MISS:    4682449
L2C WRITEBACK ACCESS:      25460  HIT:      25460  MISS:          0
L2C PREFETCH  REQUESTED:   12574438  ISSUED:   12574438  USEFUL:    7483340  USELESS:     178683
LLC TOTAL     ACCESS:    7292849  HIT:     150886  MISS:    7141963
LLC LOAD      ACCESS:     269595  HIT:       6789  MISS:     262806
LLC RFO       ACCESS:       2637  HIT:        220  MISS:       2417
LLC PREFETCH  ACCESS:    7009403  HIT:     132675  MISS:    6876728
LLC WRITEBACK ACCESS:      11214  HIT:      11202  MISS:         12
LLC PREFETCH  REQUESTED:          0  ISSUED:          0  USEFUL:     524200  USELESS:   54163925
Major fault: 0 Minor fault: 48146

CPU 2 cumulative IPC: 0.805978 instructions: 100000002 cycles: 124072870
L1D TOTAL     ACCESS:   25611555  HIT:   23429787  MISS:    2181768
L1D LOAD      ACCESS:   24443536  HIT:   22930138  MISS:    1513398
L1D RFO       ACCESS:    1168019  HIT:     499649  MISS:     668370
L1D PREFETCH  ACCESS:          0  HIT:          0  MISS:          0
L1D WRITEBACK ACCESS:          0  HIT:          0  MISS:          0
L1D PREFETCH  REQUESTED:          0  ISSUED:          0  USEFUL:          0  USELESS:          0
L1I TOTAL     ACCESS:   27777403  HIT:   27777403  MISS:          0
L1I LOAD      ACCESS:   27777403  HIT:   27777403  MISS:          0
L1I RFO       ACCESS:          0  HIT:          0  MISS:          0
L1I PREFETCH  ACCESS:          0  HIT:          0  MISS:          0
L1I WRITEBACK ACCESS:          0  HIT:          0  MISS:          0
L1I PREFETCH  REQUESTED:          0  ISSUED:          0  USEFUL:          0  USELESS:          0
L2C TOTAL     ACCESS:    4861751  HIT:    2623978  MISS:    2237773
L2C LOAD      ACCESS:    1513398  HIT:    1376842  MISS:     136556
L2C RFO       ACCESS:     668370  HIT:          3  MISS:     668367
L2C PREFETCH  ACCESS:    2007374  HIT:     574526  MISS:    1432848
L2C WRITEBACK ACCESS:     672609  HIT:     672607  MISS:          2
L2C PREFETCH  REQUESTED:   24053761  ISSUED:   24047231  USEFUL:    8770060  USELESS:     470073
LLC TOTAL     ACCESS:    3059974  HIT:     808592  MISS:    2251382
LLC LOAD      ACCESS:      73064  HIT:       1766  MISS:      71298
LLC RFO       ACCESS:     668367  HIT:          3  MISS:     668364
LLC PREFETCH  ACCESS:    1650146  HIT:     138439  MISS:    1511707
LLC WRITEBACK ACCESS:     668397  HIT:     668384  MISS:         13
LLC PREFETCH  REQUESTED:          0  ISSUED:          0  USEFUL:     524200  USELESS:   54163925
Major fault: 0 Minor fault: 127069

CPU 3 cumulative IPC: 0.642061 instructions: 100000000 cycles: 155748518
L1D TOTAL     ACCESS:   25959346  HIT:   25278061  MISS:     681285
L1D LOAD      ACCESS:   15739369  HIT:   15090253  MISS:     649116
L1D RFO       ACCESS:   10219977  HIT:   10187808  MISS:      32169
L1D PREFETCH  ACCESS:          0  HIT:          0  MISS:          0
L1D WRITEBACK ACCESS:          0  HIT:          0  MISS:          0
L1D PREFETCH  REQUESTED:          0  ISSUED:          0  USEFUL:          0  USELESS:          0
L1I TOTAL     ACCESS:   21824108  HIT:   21824108  MISS:          0
L1I LOAD      ACCESS:   21824108  HIT:   21824108  MISS:          0
L1I RFO       ACCESS:          0  HIT:          0  MISS:          0
L1I PREFETCH  ACCESS:          0  HIT:          0  MISS:          0
L1I WRITEBACK ACCESS:          0  HIT:          0  MISS:          0
L1I PREFETCH  REQUESTED:          0  ISSUED:          0  USEFUL:          0  USELESS:          0
L2C TOTAL     ACCESS:    1649061  HIT:    1068822  MISS:     580239
L2C LOAD      ACCESS:     649116  HIT:     372381  MISS:     276735
L2C RFO       ACCESS:      32169  HIT:      12674  MISS:      19495
L2C PREFETCH  ACCESS:     916081  HIT:     632689  MISS:     283392
L2C WRITEBACK ACCESS:      51695  HIT:      51078  MISS:        617
L2C PREFETCH  REQUESTED:    6315963  ISSUED:    6315963  USEFUL:    1224327  USELESS:     437927
LLC TOTAL     ACCESS:     814669  HIT:     724707  MISS:      89962
LLC LOAD      ACCESS:     256323  HIT:     240103  MISS:      16220
LLC RFO       ACCESS:      19490  HIT:       4705  MISS:      14785
LLC PREFETCH  ACCESS:     517030  HIT:     461079  MISS:      55951
LLC WRITEBACK ACCESS:      21826  HIT:      18820  MISS:       3006
LLC PREFETCH  REQUESTED:          0  ISSUED:          0  USEFUL:     524200  USELESS:   54163925
Major fault: 0 Minor fault: 1486

CPU 4 cumulative IPC: 0.337418 instructions: 100000000 cycles: 296367927
L1D TOTAL     ACCESS:   39766328  HIT:   24394576  MISS:   15371752
L1D LOAD      ACCESS:   33576188  HIT:   18487377  MISS:   15088811
L1D RFO       ACCESS:    6190140  HIT:    5907199  MISS:     282941
L1D PREFETCH  ACCESS:          0  HIT:          0  MISS:          0
L1D WRITEBACK ACCESS:          0  HIT:          0  MISS:          0
L1D PREFETCH  REQUESTED:          0  ISSUED:          0  USEFUL:          0  USELESS:          0
L1I TOTAL     ACCESS:   35081384  HIT:   35081384  MISS:          0
L1I LOAD      ACCESS:   35081384  HIT:   35081384  MISS:          0
L1I RFO       ACCESS:          0  HIT:          0  MISS:          0
L1I PREFETCH  ACCESS:          0  HIT:          0  MISS:          0
L1I WRITEBACK ACCESS:          0  HIT:          0  MISS:          0
L1I PREFETCH  REQUESTED:          0  ISSUED:          0  USEFUL:          0  USELESS:          0
L2C TOTAL     ACCESS:   29574695  HIT:   11364787  MISS:   18209908
L2C LOAD      ACCESS:   15088810  HIT:    9396918  MISS:    5691892
L2C RFO       ACCESS:     282941  HIT:      10454  MISS:     272487
L2C PREFETCH  ACCESS:   13848709  HIT:    1604045  MISS:   12244664
L2C WRITEBACK ACCESS:     354235  HIT:     353370  MISS:        865
L2C PREFETCH  REQUESTED:   66150867  ISSUED:   66133204  USEFUL:   30828178  USELESS:    8346046
LLC TOTAL     ACCESS:   20349003  HIT:   18992159  MISS:    1356844
LLC LOAD      ACCESS:    2001412  HIT:    1979468  MISS:      21944
LLC RFO       ACCESS:     272153  HIT:       1979  MISS:     270174
LLC PREFETCH  ACCESS:   17722701  HIT:   16658030  MISS:    1064671
LLC WRITEBACK ACCESS:     352737  HIT:     352682  MISS:         55
LLC PREFETCH  REQUESTED:          0  ISSUED:          0  USEFUL:     524200  USELESS:   54163925
Major fault: 0 Minor fault: 19901

CPU 5 cumulative IPC: 1.01637 instructions: 100000001 cycles: 98389006
L1D TOTAL     ACCESS:   29898480  HIT:   28587630  MISS:    1310850
L1D LOAD      ACCESS:   22644916  HIT:   21747519  MISS:     897397
L1D RFO       ACCESS:    7253564  HIT:    6840111  MISS:     413453
L1D PREFETCH  ACCESS:          0  HIT:          0  MISS:          0
L1D WRITEBACK ACCESS:          0  HIT:          0  MISS:          0
L1D PREFETCH  REQUESTED:          0  ISSUED:          0  USEFUL:          0  USELESS:          0
L1I TOTAL     ACCESS:   24895907  HIT:   24895734  MISS:        173
L1I LOAD      ACCESS:   24895907  HIT:   24895734  MISS:        173
L1I RFO       ACCESS:          0  HIT:          0  MISS:          0
L1I PREFETCH  ACCESS:          0  HIT:          0  MISS:          0
L1I WRITEBACK ACCESS:          0  HIT:          0  MISS:          0
L1I PREFETCH  REQUESTED:          0  ISSUED:          0  USEFUL:          0  USELESS:          0
L2C TOTAL     ACCESS:    3151613  HIT:    2068066  MISS:    1083547
L2C LOAD      ACCESS:     897551  HIT:     844761  MISS:      52790
L2C RFO       ACCESS:     413453  HIT:        215  MISS:     413238
L2C PREFETCH  ACCESS:    1358014  HIT:     741987  MISS:     616027
L2C WRITEBACK ACCESS:     482595  HIT:     481103  MISS:       1492
L2C PREFETCH  REQUESTED:   24696593  ISSUED:   24696132  USEFUL:    8165056  USELESS:     625771
LLC TOTAL     ACCESS:    1649948  HIT:     777547  MISS:     872401
LLC LOAD      ACCESS:      38160  HIT:       9659  MISS:      28501
LLC RFO       ACCESS:     413235  HIT:      59741  MISS:     353494
LLC PREFETCH  ACCESS:     783056  HIT:     292906  MISS:     490150
LLC WRITEBACK ACCESS:     415497  HIT:     415241  MISS:        256
LLC PREFETCH  REQUESTED:          0  ISSUED:          0  USEFUL:     524200  USELESS:   54163925
Major fault: 0 Minor fault: 216841

CPU 6 cumulative IPC: 0.317911 instructions: 100000000 cycles: 314553786
L1D TOTAL     ACCESS:   30791729  HIT:   28075944  MISS:    2715785
L1D LOAD      ACCESS:   21086653  HIT:   18371616  MISS:    2715037
L1D RFO       ACCESS:    9705076  HIT:    9704328  MISS:        748
L1D PREFETCH  ACCESS:          0  HIT:          0  MISS:          0
L1D WRITEBACK ACCESS:          0  HIT:          0  MISS:          0
L1D PREFETCH  REQUESTED:          0  ISSUED:          0  USEFUL:          0  USELESS:          0
L1I TOTAL     ACCESS:   24940020  HIT:   24940020  MISS:          0
L1I LOAD      ACCESS:   24940020  HIT:   24940020  MISS:          0
L1I RFO       ACCESS:          0  HIT:          0  MISS:          0
L1I PREFETCH  ACCESS:          0  HIT:          0  MISS:          0
L1I WRITEBACK ACCESS:          0  HIT:          0  MISS:          0
L1I PREFETCH  REQUESTED:          0  ISSUED:          0  USEFUL:          0  USELESS:          0
L2C TOTAL     ACCESS:    6323784  HIT:    4525237  MISS:    1798547
L2C LOAD      ACCESS:    2715037  HIT:    2385102  MISS:     329935
L2C RFO       ACCESS:        748  HIT:         34  MISS:        714
L2C PREFETCH  ACCESS:    3601551  HIT:    2133653  MISS:    1467898
L2C WRITEBACK ACCESS:       6448  HIT:       6448  MISS:          0
L2C PREFETCH  REQUESTED:   11901015  ISSUED:   11901015  USEFUL:    4146928  USELESS:      66685
LLC TOTAL     ACCESS:    1874002  HIT:      73186  MISS:    1800816
LLC LOAD      ACCESS:      60708  HIT:       2489  MISS:      58219
LLC RFO       ACCESS:        704  HIT:         94  MISS:        610
LLC PREFETCH  ACCESS:    1810171  HIT:      68223  MISS:    1741948
LLC WRITEBACK ACCESS:       2419  HIT:       2380  MISS:         39
LLC PREFETCH  REQUESTED:          0  ISSUED:          0  USEFUL:     524200  USELESS:   54163925
Major fault: 0 Minor fault: 84666

CPU 7 cumulative IPC: 1.03223 instructions: 100000000 cycles: 96877280
L1D TOTAL     ACCESS:   38161213  HIT:   36088559  MISS:    2072654
L1D LOAD      ACCESS:   32683671  HIT:   30672058  MISS:    2011613
L1D RFO       ACCESS:    5477542  HIT:    5416501  MISS:      61041
L1D PREFETCH  ACCESS:          0  HIT:          0  MISS:          0
L1D WRITEBACK ACCESS:          0  HIT:          0  MISS:          0
L1D PREFETCH  REQUESTED:          0  ISSUED:          0  USEFUL:          0  USELESS:          0
L1I TOTAL     ACCESS:   24607895  HIT:   24607895  MISS:          0
L1I LOAD      ACCESS:   24607895  HIT:   24607895  MISS:          0
L1I RFO       ACCESS:          0  HIT:          0  MISS:          0
L1I PREFETCH  ACCESS:          0  HIT:          0  MISS:          0
L1I WRITEBACK ACCESS:          0  HIT:          0  MISS:          0
L1I PREFETCH  REQUESTED:          0  ISSUED:          0  USEFUL:          0  USELESS:          0
L2C TOTAL     ACCESS:    4754908  HIT:    2849931  MISS:    1904977
L2C LOAD      ACCESS:    2011037  HIT:    1835241  MISS:     175796
L2C RFO       ACCESS:      59867  HIT:      11143  MISS:      48724
L2C PREFETCH  ACCESS:    2617252  HIT:     937009  MISS:    1680243
L2C WRITEBACK ACCESS:      66752  HIT:      66538  MISS:        214
L2C PREFETCH  REQUESTED:   29757593  ISSUED:   29288324  USEFUL:   14439727  USELESS:       5586
LLC TOTAL     ACCESS:    2148255  HIT:     247778  MISS:    1900477
LLC LOAD      ACCESS:      96443  HIT:       8328  MISS:      88115
LLC RFO       ACCESS:      48724  HIT:          0  MISS:      48724
LLC PREFETCH  ACCESS:    1954031  HIT:     190459  MISS:    1763572
LLC WRITEBACK ACCESS:      49057  HIT:      48991  MISS:         66
LLC PREFETCH  REQUESTED:          0  ISSUED:          0  USEFUL:     524200  USELESS:   54163925
Major fault: 0 Minor fault: 240107

Avg Lookahead Depth:	4.19741
TOTAL: 1.82778e+08	L2C: 1.53451e+08	LLC: 2.93269e+07	GOOD_L2C: 9.42492e+07
Printing all the perceptron weights to: perc_weights_0.csv

Avg Lookahead Depth:	4.19741
TOTAL: 1.82778e+08	L2C: 1.53451e+08	LLC: 2.93269e+07	GOOD_L2C: 9.42492e+07
Printing all the perceptron weights to: perc_weights_0.csv

Avg Lookahead Depth:	4.19741
TOTAL: 1.82778e+08	L2C: 1.53451e+08	LLC: 2.93269e+07	GOOD_L2C: 9.42492e+07
Printing all the perceptron weights to: perc_weights_0.csv

Avg Lookahead Depth:	4.19741
TOTAL: 1.82778e+08	L2C: 1.53451e+08	LLC: 2.93269e+07	GOOD_L2C: 9.42492e+07
Printing all the perceptron weights to: perc_weights_0.csv

Avg Lookahead Depth:	4.19741
TOTAL: 1.82778e+08	L2C: 1.53451e+08	LLC: 2.93269e+07	GOOD_L2C: 9.42492e+07
Printing all the perceptron weights to: perc_weights_0.csv

Avg Lookahead Depth:	4.19741
TOTAL: 1.82778e+08	L2C: 1.53451e+08	LLC: 2.93269e+07	GOOD_L2C: 9.42492e+07
Printing all the perceptron weights to: perc_weights_0.csv

Avg Lookahead Depth:	4.19741
TOTAL: 1.82778e+08	L2C: 1.53451e+08	LLC: 2.93269e+07	GOOD_L2C: 9.42492e+07
Printing all the perceptron weights to: perc_weights_0.csv

Avg Lookahead Depth:	4.19741
TOTAL: 1.82778e+08	L2C: 1.53451e+08	LLC: 2.93269e+07	GOOD_L2C: 9.42492e+07
Printing all the perceptron weights to: perc_weights_0.csv

DRAM Statistics
 CHANNEL 0
 RQ ROW_BUFFER_HIT:   13742927  ROW_BUFFER_MISS:   17197212
 DBUS_CONGESTED:   66235893
 WQ ROW_BUFFER_HIT:     364685  ROW_BUFFER_MISS:    6773052  FULL:          0

 CHANNEL 1
 RQ ROW_BUFFER_HIT:   13715813  ROW_BUFFER_MISS:   17216369
 DBUS_CONGESTED:   66235893
 WQ ROW_BUFFER_HIT:     364981  ROW_BUFFER_MISS:    6775220  FULL:          0

 AVG_CONGESTED_CYCLE: 14
