Initialize SIGNATURE TABLE
ST_SET: 1
ST_WAY: 256
ST_TAG_BIT: 16
ST_TAG_MASK: ffff

Initialize PATTERN TABLE
PT_SET: 512
PT_WAY: 4
SIG_DELTA_BIT: 7
C_SIG_BIT: 4
C_DELTA_BIT: 4

Initialize PREFETCH FILTER
FILTER_SET: 1024

Initialize PERCEPTRON
PERC_ENTRIES: 4096
PERC_FEATURES: 9

*** ChampSim Multicore Out-of-Order Simulator ***

Warmup Instructions: 20000000
Simulation Instructions: 100000000
Number of CPUs: 8
LLC sets: 16384
LLC ways: 16
Off-chip DRAM Size: 8192 MB Channels: 2 Width: 64-bit Data Rate: 1600 MT/s

CPU 0 runs /scratch/user/djimenez/champsim-traces/speccpu2017/xz/623.xalancbmk_s/623.xalancbmk_s-592B.champsimtrace.xz
CPU 1 runs /scratch/user/djimenez/champsim-traces/speccpu2017/xz/605.mcf_s/605.mcf_s-1554B.champsimtrace.xz
CPU 2 runs /scratch/user/djimenez/champsim-traces/speccpu2017/xz/623.xalancbmk_s/623.xalancbmk_s-700B.champsimtrace.xz
CPU 3 runs /scratch/user/djimenez/champsim-traces/speccpu2017/xz/649.fotonik3d_s/649.fotonik3d_s-10881B.champsimtrace.xz
CPU 4 runs /scratch/user/djimenez/champsim-traces/speccpu2017/xz/603.bwaves_s/603.bwaves_s-891B.champsimtrace.xz
CPU 5 runs /scratch/user/djimenez/champsim-traces/speccpu2017/xz/619.lbm_s/619.lbm_s-3766B.champsimtrace.xz
CPU 6 runs /scratch/user/djimenez/champsim-traces/speccpu2017/xz/603.bwaves_s/603.bwaves_s-2609B.champsimtrace.xz
CPU 7 runs /scratch/user/djimenez/champsim-traces/speccpu2017/xz/603.bwaves_s/603.bwaves_s-2931B.champsimtrace.xz
Heartbeat CPU 4 instructions: 10000003 cycles: 3201362 heartbeat IPC: 3.12367 cumulative IPC: 3.12367 (Simulation time: 0 hr 2 min 42 sec) 
Heartbeat CPU 5 instructions: 10000000 cycles: 4280376 heartbeat IPC: 2.33624 cumulative IPC: 2.33624 (Simulation time: 0 hr 3 min 37 sec) 
Heartbeat CPU 0 instructions: 10000002 cycles: 5072380 heartbeat IPC: 1.97146 cumulative IPC: 1.97146 (Simulation time: 0 hr 4 min 18 sec) 
Heartbeat CPU 7 instructions: 10000000 cycles: 5228451 heartbeat IPC: 1.91261 cumulative IPC: 1.91261 (Simulation time: 0 hr 4 min 26 sec) 
Heartbeat CPU 6 instructions: 10000001 cycles: 5275342 heartbeat IPC: 1.89561 cumulative IPC: 1.89561 (Simulation time: 0 hr 4 min 28 sec) 
Heartbeat CPU 1 instructions: 10000001 cycles: 5429342 heartbeat IPC: 1.84184 cumulative IPC: 1.84184 (Simulation time: 0 hr 4 min 36 sec) 
Heartbeat CPU 2 instructions: 10000001 cycles: 6010833 heartbeat IPC: 1.66366 cumulative IPC: 1.66366 (Simulation time: 0 hr 5 min 7 sec) 
Heartbeat CPU 4 instructions: 20000000 cycles: 6401613 heartbeat IPC: 3.12475 cumulative IPC: 3.12421 (Simulation time: 0 hr 5 min 27 sec) 
Heartbeat CPU 3 instructions: 10000001 cycles: 8410982 heartbeat IPC: 1.18892 cumulative IPC: 1.18892 (Simulation time: 0 hr 7 min 11 sec) 
Heartbeat CPU 5 instructions: 20000000 cycles: 8569635 heartbeat IPC: 2.3314 cumulative IPC: 2.33382 (Simulation time: 0 hr 7 min 20 sec) 
Heartbeat CPU 4 instructions: 30000003 cycles: 9603134 heartbeat IPC: 3.12352 cumulative IPC: 1.04133 (Simulation time: 0 hr 8 min 13 sec) 
Heartbeat CPU 0 instructions: 20000000 cycles: 10236421 heartbeat IPC: 1.93647 cumulative IPC: 1.95381 (Simulation time: 0 hr 8 min 46 sec) 
Heartbeat CPU 7 instructions: 20000000 cycles: 10456203 heartbeat IPC: 1.91287 cumulative IPC: 1.91274 (Simulation time: 0 hr 8 min 58 sec) 
Heartbeat CPU 6 instructions: 20000000 cycles: 10552496 heartbeat IPC: 1.89496 cumulative IPC: 1.89529 (Simulation time: 0 hr 9 min 3 sec) 
Heartbeat CPU 1 instructions: 20000000 cycles: 10844016 heartbeat IPC: 1.84683 cumulative IPC: 1.84434 (Simulation time: 0 hr 9 min 18 sec) 
Heartbeat CPU 2 instructions: 20000000 cycles: 10962881 heartbeat IPC: 2.01937 cumulative IPC: 1.82434 (Simulation time: 0 hr 9 min 24 sec) 
Heartbeat CPU 4 instructions: 40000000 cycles: 12804666 heartbeat IPC: 3.1235 cumulative IPC: 1.56193 (Simulation time: 0 hr 10 min 59 sec) 
Heartbeat CPU 5 instructions: 30000001 cycles: 12850499 heartbeat IPC: 2.33598 cumulative IPC: 0.77818 (Simulation time: 0 hr 11 min 2 sec) 
Heartbeat CPU 7 instructions: 30000002 cycles: 15684217 heartbeat IPC: 1.91277 cumulative IPC: 0.637584 (Simulation time: 0 hr 13 min 22 sec) 
Heartbeat CPU 6 instructions: 30000000 cycles: 15826500 heartbeat IPC: 1.89609 cumulative IPC: 0.631852 (Simulation time: 0 hr 13 min 29 sec) 
Heartbeat CPU 4 instructions: 50000001 cycles: 16070671 heartbeat IPC: 3.06185 cumulative IPC: 1.86675 (Simulation time: 0 hr 13 min 41 sec) 
Heartbeat CPU 1 instructions: 30000003 cycles: 16216870 heartbeat IPC: 1.86121 cumulative IPC: 0.616642 (Simulation time: 0 hr 13 min 48 sec) 
Heartbeat CPU 0 instructions: 30000003 cycles: 16296201 heartbeat IPC: 1.65023 cumulative IPC: 0.61364 (Simulation time: 0 hr 13 min 52 sec) 
Heartbeat CPU 3 instructions: 20000000 cycles: 16788627 heartbeat IPC: 1.19365 cumulative IPC: 1.19128 (Simulation time: 0 hr 14 min 16 sec) 

Warmup complete CPU 0 instructions: 30719502 cycles: 16788646 (Simulation time: 0 hr 14 min 16 sec) 
Warmup complete CPU 1 instructions: 31056998 cycles: 16788646 (Simulation time: 0 hr 14 min 16 sec) 
Warmup complete CPU 2 instructions: 29507274 cycles: 16788646 (Simulation time: 0 hr 14 min 16 sec) 
Warmup complete CPU 3 instructions: 20000001 cycles: 16788646 (Simulation time: 0 hr 14 min 16 sec) 
Warmup complete CPU 4 instructions: 52180928 cycles: 16788645 (Simulation time: 0 hr 14 min 16 sec) 
Warmup complete CPU 5 instructions: 39179688 cycles: 16788645 (Simulation time: 0 hr 14 min 16 sec) 
Warmup complete CPU 6 instructions: 31824898 cycles: 16788645 (Simulation time: 0 hr 14 min 16 sec) 
Warmup complete CPU 7 instructions: 32112718 cycles: 16788645 (Simulation time: 0 hr 14 min 16 sec) 

Heartbeat CPU 5 instructions: 40000000 cycles: 17822137 heartbeat IPC: 2.01141 cumulative IPC: 0.793728 (Simulation time: 0 hr 14 min 39 sec) 
Heartbeat CPU 2 instructions: 30000001 cycles: 18525446 heartbeat IPC: 1.3223 cumulative IPC: 0.283698 (Simulation time: 0 hr 14 min 54 sec) 
Heartbeat CPU 7 instructions: 40000000 cycles: 24492898 heartbeat IPC: 1.13524 cumulative IPC: 1.02376 (Simulation time: 0 hr 17 min 5 sec) 
Heartbeat CPU 6 instructions: 40000000 cycles: 25174008 heartbeat IPC: 1.0698 cumulative IPC: 0.974925 (Simulation time: 0 hr 17 min 20 sec) 
Heartbeat CPU 5 instructions: 50000003 cycles: 30613558 heartbeat IPC: 0.781774 cumulative IPC: 0.782668 (Simulation time: 0 hr 19 min 20 sec) 
Heartbeat CPU 4 instructions: 60000000 cycles: 31945629 heartbeat IPC: 0.629923 cumulative IPC: 0.515873 (Simulation time: 0 hr 19 min 48 sec) 
Heartbeat CPU 7 instructions: 50000002 cycles: 34250516 heartbeat IPC: 1.02484 cumulative IPC: 1.02436 (Simulation time: 0 hr 20 min 39 sec) 
Heartbeat CPU 6 instructions: 50000001 cycles: 35412665 heartbeat IPC: 0.976691 cumulative IPC: 0.975896 (Simulation time: 0 hr 21 min 5 sec) 
Heartbeat CPU 5 instructions: 60000000 cycles: 43368638 heartbeat IPC: 0.784001 cumulative IPC: 0.783308 (Simulation time: 0 hr 24 min 0 sec) 
Heartbeat CPU 3 instructions: 30000000 cycles: 43543868 heartbeat IPC: 0.373759 cumulative IPC: 0.373759 (Simulation time: 0 hr 24 min 3 sec) 
Heartbeat CPU 7 instructions: 60000000 cycles: 43974544 heartbeat IPC: 1.02838 cumulative IPC: 1.0258 (Simulation time: 0 hr 24 min 13 sec) 
Heartbeat CPU 6 instructions: 60000000 cycles: 45788547 heartbeat IPC: 0.963773 cumulative IPC: 0.971559 (Simulation time: 0 hr 24 min 53 sec) 
Heartbeat CPU 0 instructions: 40000000 cycles: 50266484 heartbeat IPC: 0.294375 cumulative IPC: 0.277213 (Simulation time: 0 hr 26 min 32 sec) 
Heartbeat CPU 4 instructions: 70000002 cycles: 51482997 heartbeat IPC: 0.51184 cumulative IPC: 0.513602 (Simulation time: 0 hr 26 min 58 sec) 
Heartbeat CPU 2 instructions: 40000000 cycles: 52532609 heartbeat IPC: 0.294056 cumulative IPC: 0.293552 (Simulation time: 0 hr 27 min 22 sec) 
Heartbeat CPU 1 instructions: 40000000 cycles: 53127756 heartbeat IPC: 0.270923 cumulative IPC: 0.246099 (Simulation time: 0 hr 27 min 35 sec) 
Heartbeat CPU 7 instructions: 70000001 cycles: 53720572 heartbeat IPC: 1.02606 cumulative IPC: 1.02587 (Simulation time: 0 hr 27 min 48 sec) 
Heartbeat CPU 6 instructions: 70000003 cycles: 56230628 heartbeat IPC: 0.957664 cumulative IPC: 0.96788 (Simulation time: 0 hr 28 min 43 sec) 
Heartbeat CPU 5 instructions: 70000003 cycles: 56316511 heartbeat IPC: 0.772328 cumulative IPC: 0.779711 (Simulation time: 0 hr 28 min 45 sec) 
Heartbeat CPU 7 instructions: 80000000 cycles: 63431065 heartbeat IPC: 1.02981 cumulative IPC: 1.02669 (Simulation time: 0 hr 31 min 23 sec) 
Heartbeat CPU 6 instructions: 80000000 cycles: 66652052 heartbeat IPC: 0.959561 cumulative IPC: 0.966141 (Simulation time: 0 hr 32 min 35 sec) 
Heartbeat CPU 3 instructions: 40000000 cycles: 67365510 heartbeat IPC: 0.419786 cumulative IPC: 0.395438 (Simulation time: 0 hr 32 min 51 sec) 
Heartbeat CPU 5 instructions: 80000000 cycles: 69155313 heartbeat IPC: 0.778889 cumulative IPC: 0.779509 (Simulation time: 0 hr 33 min 31 sec) 
Heartbeat CPU 4 instructions: 80000000 cycles: 71107106 heartbeat IPC: 0.509577 cumulative IPC: 0.512148 (Simulation time: 0 hr 34 min 16 sec) 
Heartbeat CPU 7 instructions: 90000002 cycles: 73121793 heartbeat IPC: 1.03191 cumulative IPC: 1.02759 (Simulation time: 0 hr 35 min 0 sec) 
Heartbeat CPU 6 instructions: 90000002 cycles: 76946167 heartbeat IPC: 0.971429 cumulative IPC: 0.967046 (Simulation time: 0 hr 36 min 25 sec) 
Heartbeat CPU 5 instructions: 90000000 cycles: 81992548 heartbeat IPC: 0.778984 cumulative IPC: 0.779406 (Simulation time: 0 hr 38 min 17 sec) 
Heartbeat CPU 7 instructions: 100000000 cycles: 82820914 heartbeat IPC: 1.03102 cumulative IPC: 1.02809 (Simulation time: 0 hr 38 min 35 sec) 
Heartbeat CPU 0 instructions: 50000002 cycles: 83596517 heartbeat IPC: 0.30003 cumulative IPC: 0.288596 (Simulation time: 0 hr 38 min 52 sec) 
Heartbeat CPU 2 instructions: 50000001 cycles: 84354111 heartbeat IPC: 0.314253 cumulative IPC: 0.303302 (Simulation time: 0 hr 39 min 10 sec) 
Heartbeat CPU 6 instructions: 100000000 cycles: 87349790 heartbeat IPC: 0.961203 cumulative IPC: 0.966185 (Simulation time: 0 hr 40 min 15 sec) 
Heartbeat CPU 4 instructions: 90000000 cycles: 90821207 heartbeat IPC: 0.507251 cumulative IPC: 0.510844 (Simulation time: 0 hr 41 min 33 sec) 
Heartbeat CPU 7 instructions: 110000000 cycles: 92533526 heartbeat IPC: 1.02959 cumulative IPC: 1.02828 (Simulation time: 0 hr 42 min 10 sec) 
Heartbeat CPU 3 instructions: 50000001 cycles: 92544299 heartbeat IPC: 0.39716 cumulative IPC: 0.39601 (Simulation time: 0 hr 42 min 10 sec) 
Heartbeat CPU 1 instructions: 50000000 cycles: 94409295 heartbeat IPC: 0.242239 cumulative IPC: 0.244046 (Simulation time: 0 hr 42 min 51 sec) 
Heartbeat CPU 5 instructions: 100000000 cycles: 94745400 heartbeat IPC: 0.784138 cumulative IPC: 0.78018 (Simulation time: 0 hr 42 min 59 sec) 
Heartbeat CPU 6 instructions: 110000002 cycles: 97641784 heartbeat IPC: 0.971629 cumulative IPC: 0.966878 (Simulation time: 0 hr 44 min 5 sec) 
Heartbeat CPU 7 instructions: 120000000 cycles: 102200137 heartbeat IPC: 1.03449 cumulative IPC: 1.02899 (Simulation time: 0 hr 45 min 49 sec) 
Heartbeat CPU 6 instructions: 120000000 cycles: 107865768 heartbeat IPC: 0.978092 cumulative IPC: 0.968137 (Simulation time: 0 hr 47 min 55 sec) 
Heartbeat CPU 5 instructions: 110000001 cycles: 107932723 heartbeat IPC: 0.758304 cumulative IPC: 0.777015 (Simulation time: 0 hr 47 min 57 sec) 
Heartbeat CPU 2 instructions: 60000000 cycles: 109220206 heartbeat IPC: 0.402154 cumulative IPC: 0.329895 (Simulation time: 0 hr 48 min 25 sec) 
Heartbeat CPU 4 instructions: 100000000 cycles: 110049163 heartbeat IPC: 0.520076 cumulative IPC: 0.512747 (Simulation time: 0 hr 48 min 43 sec) 
Heartbeat CPU 7 instructions: 130000001 cycles: 111908348 heartbeat IPC: 1.03006 cumulative IPC: 1.0291 (Simulation time: 0 hr 49 min 24 sec) 
Finished CPU 7 instructions: 100000003 cycles: 97184547 cumulative IPC: 1.02897 (Simulation time: 0 hr 50 min 9 sec) 
Heartbeat CPU 0 instructions: 60000000 cycles: 114551302 heartbeat IPC: 0.323052 cumulative IPC: 0.299506 (Simulation time: 0 hr 50 min 22 sec) 
Heartbeat CPU 6 instructions: 130000002 cycles: 118265099 heartbeat IPC: 0.9616 cumulative IPC: 0.967467 (Simulation time: 0 hr 51 min 44 sec) 
Heartbeat CPU 3 instructions: 60000000 cycles: 118882594 heartbeat IPC: 0.379675 cumulative IPC: 0.391796 (Simulation time: 0 hr 51 min 58 sec) 
Finished CPU 6 instructions: 100000000 cycles: 103353199 cumulative IPC: 0.967556 (Simulation time: 0 hr 52 min 26 sec) 
Heartbeat CPU 7 instructions: 140000000 cycles: 121639993 heartbeat IPC: 1.02758 cumulative IPC: 1.02895 (Simulation time: 0 hr 52 min 59 sec) 
Heartbeat CPU 5 instructions: 120000000 cycles: 121675979 heartbeat IPC: 0.72763 cumulative IPC: 0.770544 (Simulation time: 0 hr 53 min 0 sec) 
Heartbeat CPU 6 instructions: 140000000 cycles: 128632283 heartbeat IPC: 0.964582 cumulative IPC: 0.967199 (Simulation time: 0 hr 55 min 30 sec) 
Heartbeat CPU 4 instructions: 110000002 cycles: 129651258 heartbeat IPC: 0.51015 cumulative IPC: 0.512296 (Simulation time: 0 hr 55 min 52 sec) 
Heartbeat CPU 7 instructions: 150000002 cycles: 131384663 heartbeat IPC: 1.0262 cumulative IPC: 1.02872 (Simulation time: 0 hr 56 min 29 sec) 
Heartbeat CPU 1 instructions: 60000000 cycles: 135685508 heartbeat IPC: 0.24227 cumulative IPC: 0.243429 (Simulation time: 0 hr 57 min 59 sec) 
Heartbeat CPU 5 instructions: 130000000 cycles: 137739948 heartbeat IPC: 0.622511 cumulative IPC: 0.750883 (Simulation time: 0 hr 58 min 44 sec) 
Heartbeat CPU 6 instructions: 150000002 cycles: 139149148 heartbeat IPC: 0.950854 cumulative IPC: 0.965795 (Simulation time: 0 hr 59 min 14 sec) 
Heartbeat CPU 2 instructions: 70000001 cycles: 139576917 heartbeat IPC: 0.329416 cumulative IPC: 0.329777 (Simulation time: 0 hr 59 min 23 sec) 
Heartbeat CPU 7 instructions: 160000000 cycles: 141137817 heartbeat IPC: 1.02531 cumulative IPC: 1.02845 (Simulation time: 0 hr 59 min 56 sec) 
Heartbeat CPU 0 instructions: 70000001 cycles: 144330702 heartbeat IPC: 0.335803 cumulative IPC: 0.307981 (Simulation time: 1 hr 1 min 3 sec) 
Heartbeat CPU 3 instructions: 70000003 cycles: 145162004 heartbeat IPC: 0.380526 cumulative IPC: 0.389489 (Simulation time: 1 hr 1 min 19 sec) 
Heartbeat CPU 6 instructions: 160000000 cycles: 149767826 heartbeat IPC: 0.941737 cumulative IPC: 0.963873 (Simulation time: 1 hr 2 min 54 sec) 
Heartbeat CPU 4 instructions: 120000000 cycles: 149906619 heartbeat IPC: 0.493696 cumulative IPC: 0.509466 (Simulation time: 1 hr 2 min 57 sec) 
Heartbeat CPU 7 instructions: 170000002 cycles: 150946873 heartbeat IPC: 1.01947 cumulative IPC: 1.0278 (Simulation time: 1 hr 3 min 19 sec) 
Finished CPU 5 instructions: 100000001 cycles: 137051206 cumulative IPC: 0.729654 (Simulation time: 1 hr 4 min 21 sec) 
Heartbeat CPU 5 instructions: 140000000 cycles: 155475781 heartbeat IPC: 0.56383 cumulative IPC: 0.726962 (Simulation time: 1 hr 4 min 58 sec) 
Heartbeat CPU 6 instructions: 170000002 cycles: 160280329 heartbeat IPC: 0.951248 cumulative IPC: 0.962949 (Simulation time: 1 hr 6 min 40 sec) 
Heartbeat CPU 7 instructions: 180000000 cycles: 160700023 heartbeat IPC: 1.02531 cumulative IPC: 1.02763 (Simulation time: 1 hr 6 min 49 sec) 
Heartbeat CPU 0 instructions: 80000000 cycles: 167968393 heartbeat IPC: 0.423053 cumulative IPC: 0.325973 (Simulation time: 1 hr 9 min 23 sec) 
Heartbeat CPU 3 instructions: 80000000 cycles: 170378230 heartbeat IPC: 0.39657 cumulative IPC: 0.390651 (Simulation time: 1 hr 10 min 15 sec) 
Heartbeat CPU 7 instructions: 190000003 cycles: 170443373 heartbeat IPC: 1.02634 cumulative IPC: 1.02755 (Simulation time: 1 hr 10 min 17 sec) 
Heartbeat CPU 4 instructions: 130000001 cycles: 170642401 heartbeat IPC: 0.482258 cumulative IPC: 0.505799 (Simulation time: 1 hr 10 min 20 sec) 
Heartbeat CPU 6 instructions: 180000000 cycles: 170922423 heartbeat IPC: 0.939664 cumulative IPC: 0.961341 (Simulation time: 1 hr 10 min 26 sec) 
Heartbeat CPU 5 instructions: 150000001 cycles: 175698126 heartbeat IPC: 0.494503 cumulative IPC: 0.69738 (Simulation time: 1 hr 12 min 4 sec) 
Heartbeat CPU 7 instructions: 200000000 cycles: 180247263 heartbeat IPC: 1.02 cumulative IPC: 1.02709 (Simulation time: 1 hr 13 min 38 sec) 
Heartbeat CPU 1 instructions: 70000001 cycles: 180261188 heartbeat IPC: 0.224338 cumulative IPC: 0.238224 (Simulation time: 1 hr 13 min 38 sec) 
Heartbeat CPU 6 instructions: 190000000 cycles: 181619418 heartbeat IPC: 0.934842 cumulative IPC: 0.959621 (Simulation time: 1 hr 14 min 6 sec) 
Heartbeat CPU 2 instructions: 80000000 cycles: 182372816 heartbeat IPC: 0.233667 cumulative IPC: 0.304937 (Simulation time: 1 hr 14 min 23 sec) 
Heartbeat CPU 7 instructions: 210000003 cycles: 190013648 heartbeat IPC: 1.02392 cumulative IPC: 1.02691 (Simulation time: 1 hr 17 min 4 sec) 
Heartbeat CPU 0 instructions: 90000000 cycles: 190147497 heartbeat IPC: 0.450875 cumulative IPC: 0.341953 (Simulation time: 1 hr 17 min 7 sec) 
Heartbeat CPU 4 instructions: 140000000 cycles: 191279058 heartbeat IPC: 0.484575 cumulative IPC: 0.503289 (Simulation time: 1 hr 17 min 30 sec) 
Heartbeat CPU 6 instructions: 200000000 cycles: 192099949 heartbeat IPC: 0.95415 cumulative IPC: 0.959294 (Simulation time: 1 hr 17 min 47 sec) 
Heartbeat CPU 3 instructions: 90000000 cycles: 198646743 heartbeat IPC: 0.35375 cumulative IPC: 0.384916 (Simulation time: 1 hr 20 min 3 sec) 
Heartbeat CPU 7 instructions: 220000000 cycles: 199822219 heartbeat IPC: 1.01952 cumulative IPC: 1.02652 (Simulation time: 1 hr 20 min 27 sec) 
Heartbeat CPU 5 instructions: 160000000 cycles: 199914155 heartbeat IPC: 0.41295 cumulative IPC: 0.659768 (Simulation time: 1 hr 20 min 29 sec) 
Heartbeat CPU 6 instructions: 210000002 cycles: 202866659 heartbeat IPC: 0.928789 cumulative IPC: 0.957529 (Simulation time: 1 hr 21 min 28 sec) 
Heartbeat CPU 7 instructions: 230000003 cycles: 209694467 heartbeat IPC: 1.01294 cumulative IPC: 1.02582 (Simulation time: 1 hr 23 min 45 sec) 
Heartbeat CPU 4 instructions: 150000000 cycles: 212725357 heartbeat IPC: 0.466281 cumulative IPC: 0.499238 (Simulation time: 1 hr 24 min 48 sec) 
Heartbeat CPU 6 instructions: 220000000 cycles: 213723023 heartbeat IPC: 0.921118 cumulative IPC: 0.955522 (Simulation time: 1 hr 25 min 8 sec) 
Heartbeat CPU 0 instructions: 100000000 cycles: 216829201 heartbeat IPC: 0.374789 cumulative IPC: 0.346332 (Simulation time: 1 hr 26 min 10 sec) 
Finished CPU 4 instructions: 100000001 cycles: 200578315 cumulative IPC: 0.498558 (Simulation time: 1 hr 26 min 21 sec) 
Heartbeat CPU 2 instructions: 90000001 cycles: 219401181 heartbeat IPC: 0.270063 cumulative IPC: 0.298564 (Simulation time: 1 hr 27 min 3 sec) 
Heartbeat CPU 7 instructions: 240000000 cycles: 219457778 heartbeat IPC: 1.02424 cumulative IPC: 1.02575 (Simulation time: 1 hr 27 min 4 sec) 
Heartbeat CPU 6 instructions: 230000001 cycles: 224335876 heartbeat IPC: 0.942254 cumulative IPC: 0.954843 (Simulation time: 1 hr 28 min 41 sec) 
Heartbeat CPU 3 instructions: 100000000 cycles: 224970695 heartbeat IPC: 0.379882 cumulative IPC: 0.384279 (Simulation time: 1 hr 28 min 53 sec) 
Heartbeat CPU 1 instructions: 80000000 cycles: 226786055 heartbeat IPC: 0.214939 cumulative IPC: 0.233065 (Simulation time: 1 hr 29 min 28 sec) 
Heartbeat CPU 7 instructions: 250000000 cycles: 229264161 heartbeat IPC: 1.01974 cumulative IPC: 1.02547 (Simulation time: 1 hr 30 min 18 sec) 
Heartbeat CPU 5 instructions: 170000002 cycles: 229298114 heartbeat IPC: 0.340322 cumulative IPC: 0.615598 (Simulation time: 1 hr 30 min 18 sec) 
Heartbeat CPU 4 instructions: 160000000 cycles: 233493933 heartbeat IPC: 0.481497 cumulative IPC: 0.497538 (Simulation time: 1 hr 31 min 45 sec) 
Heartbeat CPU 6 instructions: 240000000 cycles: 235016400 heartbeat IPC: 0.936284 cumulative IPC: 0.953935 (Simulation time: 1 hr 32 min 15 sec) 
Heartbeat CPU 7 instructions: 260000000 cycles: 239019200 heartbeat IPC: 1.02511 cumulative IPC: 1.02545 (Simulation time: 1 hr 33 min 33 sec) 
Heartbeat CPU 6 instructions: 250000001 cycles: 245930075 heartbeat IPC: 0.916282 cumulative IPC: 0.952142 (Simulation time: 1 hr 35 min 47 sec) 
Heartbeat CPU 7 instructions: 270000000 cycles: 248864707 heartbeat IPC: 1.01569 cumulative IPC: 1.02504 (Simulation time: 1 hr 36 min 41 sec) 
Heartbeat CPU 3 instructions: 110000002 cycles: 251433445 heartbeat IPC: 0.37789 cumulative IPC: 0.383558 (Simulation time: 1 hr 37 min 31 sec) 
Heartbeat CPU 0 instructions: 110000000 cycles: 254243513 heartbeat IPC: 0.267277 cumulative IPC: 0.333876 (Simulation time: 1 hr 38 min 29 sec) 
Heartbeat CPU 4 instructions: 170000003 cycles: 255632992 heartbeat IPC: 0.451691 cumulative IPC: 0.493288 (Simulation time: 1 hr 38 min 56 sec) 
Heartbeat CPU 6 instructions: 260000000 cycles: 256953727 heartbeat IPC: 0.90714 cumulative IPC: 0.950076 (Simulation time: 1 hr 39 min 22 sec) 
Heartbeat CPU 7 instructions: 280000000 cycles: 258780416 heartbeat IPC: 1.0085 cumulative IPC: 1.02436 (Simulation time: 1 hr 39 min 58 sec) 
Heartbeat CPU 5 instructions: 180000000 cycles: 261108043 heartbeat IPC: 0.314367 cumulative IPC: 0.576378 (Simulation time: 1 hr 40 min 43 sec) 
Heartbeat CPU 2 instructions: 100000000 cycles: 262670459 heartbeat IPC: 0.231111 cumulative IPC: 0.286694 (Simulation time: 1 hr 41 min 13 sec) 
Heartbeat CPU 6 instructions: 270000003 cycles: 268240871 heartbeat IPC: 0.885964 cumulative IPC: 0.947198 (Simulation time: 1 hr 43 min 1 sec) 
Heartbeat CPU 7 instructions: 290000002 cycles: 268757580 heartbeat IPC: 1.00229 cumulative IPC: 1.02349 (Simulation time: 1 hr 43 min 11 sec) 
Heartbeat CPU 1 instructions: 90000003 cycles: 276900979 heartbeat IPC: 0.199541 cumulative IPC: 0.226606 (Simulation time: 1 hr 45 min 55 sec) 
Heartbeat CPU 7 instructions: 300000000 cycles: 278624759 heartbeat IPC: 1.01346 cumulative IPC: 1.02311 (Simulation time: 1 hr 46 min 30 sec) 
Heartbeat CPU 4 instructions: 180000000 cycles: 278696242 heartbeat IPC: 0.43359 cumulative IPC: 0.488031 (Simulation time: 1 hr 46 min 31 sec) 
Heartbeat CPU 3 instructions: 120000000 cycles: 279127809 heartbeat IPC: 0.361084 cumulative IPC: 0.381186 (Simulation time: 1 hr 46 min 39 sec) 
Finished CPU 3 instructions: 100000000 cycles: 262339193 cumulative IPC: 0.381186 (Simulation time: 1 hr 46 min 39 sec) 
Heartbeat CPU 6 instructions: 280000000 cycles: 279133591 heartbeat IPC: 0.918044 cumulative IPC: 0.945988 (Simulation time: 1 hr 46 min 39 sec) 
Heartbeat CPU 7 instructions: 310000003 cycles: 288528311 heartbeat IPC: 1.00974 cumulative IPC: 1.02262 (Simulation time: 1 hr 49 min 46 sec) 
Heartbeat CPU 6 instructions: 290000003 cycles: 290419399 heartbeat IPC: 0.886069 cumulative IPC: 0.943516 (Simulation time: 1 hr 50 min 22 sec) 
Heartbeat CPU 0 instructions: 120000000 cycles: 291752157 heartbeat IPC: 0.266605 cumulative IPC: 0.324699 (Simulation time: 1 hr 50 min 49 sec) 
Heartbeat CPU 5 instructions: 190000000 cycles: 295238682 heartbeat IPC: 0.292992 cumulative IPC: 0.541642 (Simulation time: 1 hr 51 min 55 sec) 
Heartbeat CPU 7 instructions: 320000000 cycles: 298527801 heartbeat IPC: 1.00005 cumulative IPC: 1.02182 (Simulation time: 1 hr 53 min 1 sec) 
Heartbeat CPU 2 instructions: 110000002 cycles: 299462933 heartbeat IPC: 0.271795 cumulative IPC: 0.284754 (Simulation time: 1 hr 53 min 20 sec) 
Heartbeat CPU 6 instructions: 300000000 cycles: 301947824 heartbeat IPC: 0.867421 cumulative IPC: 0.94044 (Simulation time: 1 hr 54 min 9 sec) 
Heartbeat CPU 4 instructions: 190000003 cycles: 303834347 heartbeat IPC: 0.397803 cumulative IPC: 0.480129 (Simulation time: 1 hr 54 min 46 sec) 
Heartbeat CPU 3 instructions: 130000001 cycles: 305379545 heartbeat IPC: 0.380927 cumulative IPC: 0.381162 (Simulation time: 1 hr 55 min 17 sec) 
Heartbeat CPU 7 instructions: 330000000 cycles: 308480800 heartbeat IPC: 1.00472 cumulative IPC: 1.02124 (Simulation time: 1 hr 56 min 17 sec) 
Heartbeat CPU 6 instructions: 310000001 cycles: 313773205 heartbeat IPC: 0.845639 cumulative IPC: 0.936665 (Simulation time: 1 hr 57 min 57 sec) 
Heartbeat CPU 7 instructions: 340000000 cycles: 318606908 heartbeat IPC: 0.987546 cumulative IPC: 1.02011 (Simulation time: 1 hr 59 min 30 sec) 
Heartbeat CPU 6 instructions: 320000000 cycles: 325387029 heartbeat IPC: 0.861043 cumulative IPC: 0.933819 (Simulation time: 2 hr 1 min 44 sec) 
Heartbeat CPU 5 instructions: 200000000 cycles: 327166251 heartbeat IPC: 0.313209 cumulative IPC: 0.518144 (Simulation time: 2 hr 2 min 18 sec) 
Heartbeat CPU 0 instructions: 130000002 cycles: 327189257 heartbeat IPC: 0.28219 cumulative IPC: 0.319846 (Simulation time: 2 hr 2 min 18 sec) 
Heartbeat CPU 7 instructions: 350000000 cycles: 328639646 heartbeat IPC: 0.996737 cumulative IPC: 1.01936 (Simulation time: 2 hr 2 min 47 sec) 
Finished CPU 0 instructions: 100000000 cycles: 312904809 cumulative IPC: 0.319586 (Simulation time: 2 hr 3 min 7 sec) 
Heartbeat CPU 4 instructions: 200000000 cycles: 331374148 heartbeat IPC: 0.363111 cumulative IPC: 0.469885 (Simulation time: 2 hr 3 min 39 sec) 
Heartbeat CPU 3 instructions: 140000000 cycles: 332166209 heartbeat IPC: 0.37332 cumulative IPC: 0.380496 (Simulation time: 2 hr 3 min 54 sec) 
Heartbeat CPU 2 instructions: 120000000 cycles: 334430372 heartbeat IPC: 0.28598 cumulative IPC: 0.284889 (Simulation time: 2 hr 4 min 38 sec) 
Heartbeat CPU 6 instructions: 330000002 cycles: 337218146 heartbeat IPC: 0.845229 cumulative IPC: 0.930548 (Simulation time: 2 hr 5 min 31 sec) 
Heartbeat CPU 7 instructions: 360000000 cycles: 338642260 heartbeat IPC: 0.999739 cumulative IPC: 1.01875 (Simulation time: 2 hr 5 min 59 sec) 
Heartbeat CPU 1 instructions: 100000000 cycles: 339903508 heartbeat IPC: 0.158724 cumulative IPC: 0.21337 (Simulation time: 2 hr 6 min 24 sec) 
Heartbeat CPU 7 instructions: 370000000 cycles: 348707694 heartbeat IPC: 0.993499 cumulative IPC: 1.01798 (Simulation time: 2 hr 9 min 12 sec) 
Heartbeat CPU 6 instructions: 340000000 cycles: 349208329 heartbeat IPC: 0.834015 cumulative IPC: 0.927066 (Simulation time: 2 hr 9 min 22 sec) 
Heartbeat CPU 5 instructions: 210000002 cycles: 357565084 heartbeat IPC: 0.32896 cumulative IPC: 0.501268 (Simulation time: 2 hr 12 min 5 sec) 
Heartbeat CPU 7 instructions: 380000000 cycles: 358718191 heartbeat IPC: 0.998951 cumulative IPC: 1.01742 (Simulation time: 2 hr 12 min 28 sec) 
Heartbeat CPU 4 instructions: 210000000 cycles: 359228200 heartbeat IPC: 0.359014 cumulative IPC: 0.460867 (Simulation time: 2 hr 12 min 38 sec) 
Heartbeat CPU 3 instructions: 150000001 cycles: 360318490 heartbeat IPC: 0.355211 cumulative IPC: 0.378424 (Simulation time: 2 hr 13 min 0 sec) 
Heartbeat CPU 0 instructions: 140000000 cycles: 360788128 heartbeat IPC: 0.297629 cumulative IPC: 0.317676 (Simulation time: 2 hr 13 min 9 sec) 
Heartbeat CPU 6 instructions: 350000000 cycles: 360948201 heartbeat IPC: 0.851798 cumulative IPC: 0.924499 (Simulation time: 2 hr 13 min 12 sec) 
Finished CPU 2 instructions: 100000000 cycles: 345372597 cumulative IPC: 0.289542 (Simulation time: 2 hr 13 min 38 sec) 
Heartbeat CPU 2 instructions: 130000001 cycles: 363493620 heartbeat IPC: 0.344077 cumulative IPC: 0.289851 (Simulation time: 2 hr 14 min 4 sec) 
Heartbeat CPU 7 instructions: 390000001 cycles: 368703972 heartbeat IPC: 1.00142 cumulative IPC: 1.01697 (Simulation time: 2 hr 15 min 46 sec) 
Heartbeat CPU 6 instructions: 360000000 cycles: 372309694 heartbeat IPC: 0.880166 cumulative IPC: 0.923082 (Simulation time: 2 hr 16 min 59 sec) 
Heartbeat CPU 7 instructions: 400000000 cycles: 378626826 heartbeat IPC: 1.00777 cumulative IPC: 1.01672 (Simulation time: 2 hr 19 min 2 sec) 
Heartbeat CPU 6 instructions: 370000000 cycles: 383789705 heartbeat IPC: 0.871079 cumulative IPC: 0.921455 (Simulation time: 2 hr 20 min 44 sec) 
Heartbeat CPU 5 instructions: 220000000 cycles: 384732369 heartbeat IPC: 0.36809 cumulative IPC: 0.491435 (Simulation time: 2 hr 21 min 3 sec) 
Heartbeat CPU 4 instructions: 220000000 cycles: 385406781 heartbeat IPC: 0.381992 cumulative IPC: 0.455265 (Simulation time: 2 hr 21 min 16 sec) 
Heartbeat CPU 3 instructions: 160000000 cycles: 387952506 heartbeat IPC: 0.361873 cumulative IPC: 0.377192 (Simulation time: 2 hr 22 min 7 sec) 
Heartbeat CPU 7 instructions: 410000002 cycles: 388548120 heartbeat IPC: 1.00793 cumulative IPC: 1.01648 (Simulation time: 2 hr 22 min 20 sec) 
Heartbeat CPU 0 instructions: 150000000 cycles: 388929549 heartbeat IPC: 0.355348 cumulative IPC: 0.320525 (Simulation time: 2 hr 22 min 28 sec) 
Heartbeat CPU 6 instructions: 380000000 cycles: 394853149 heartbeat IPC: 0.903878 cumulative IPC: 0.920941 (Simulation time: 2 hr 24 min 27 sec) 
Heartbeat CPU 2 instructions: 140000000 cycles: 396386301 heartbeat IPC: 0.304019 cumulative IPC: 0.291079 (Simulation time: 2 hr 24 min 56 sec) 
Heartbeat CPU 7 instructions: 420000000 cycles: 398420256 heartbeat IPC: 1.01295 cumulative IPC: 1.01639 (Simulation time: 2 hr 25 min 36 sec) 
Heartbeat CPU 1 instructions: 110000000 cycles: 404058057 heartbeat IPC: 0.155874 cumulative IPC: 0.203845 (Simulation time: 2 hr 27 min 25 sec) 
Heartbeat CPU 6 instructions: 390000003 cycles: 406156436 heartbeat IPC: 0.884699 cumulative IPC: 0.919889 (Simulation time: 2 hr 28 min 8 sec) 
Heartbeat CPU 7 instructions: 430000001 cycles: 408288951 heartbeat IPC: 1.01331 cumulative IPC: 1.01631 (Simulation time: 2 hr 28 min 51 sec) 
Heartbeat CPU 4 instructions: 230000000 cycles: 410990232 heartbeat IPC: 0.390878 cumulative IPC: 0.451087 (Simulation time: 2 hr 29 min 46 sec) 
Heartbeat CPU 5 instructions: 230000003 cycles: 411046421 heartbeat IPC: 0.380025 cumulative IPC: 0.483999 (Simulation time: 2 hr 29 min 48 sec) 
Heartbeat CPU 0 instructions: 160000000 cycles: 412569831 heartbeat IPC: 0.423007 cumulative IPC: 0.326646 (Simulation time: 2 hr 30 min 17 sec) 
Heartbeat CPU 3 instructions: 170000000 cycles: 415887723 heartbeat IPC: 0.357971 cumulative IPC: 0.375847 (Simulation time: 2 hr 31 min 24 sec) 
Heartbeat CPU 6 instructions: 400000000 cycles: 417219525 heartbeat IPC: 0.903906 cumulative IPC: 0.919447 (Simulation time: 2 hr 31 min 50 sec) 
Heartbeat CPU 7 instructions: 440000000 cycles: 418182655 heartbeat IPC: 1.01074 cumulative IPC: 1.01618 (Simulation time: 2 hr 32 min 8 sec) 
Heartbeat CPU 7 instructions: 450000000 cycles: 428072423 heartbeat IPC: 1.01115 cumulative IPC: 1.01606 (Simulation time: 2 hr 35 min 26 sec) 
Heartbeat CPU 6 instructions: 410000000 cycles: 428441469 heartbeat IPC: 0.891111 cumulative IPC: 0.918675 (Simulation time: 2 hr 35 min 33 sec) 
Heartbeat CPU 5 instructions: 240000000 cycles: 436290392 heartbeat IPC: 0.396134 cumulative IPC: 0.478712 (Simulation time: 2 hr 38 min 11 sec) 
Heartbeat CPU 2 instructions: 150000001 cycles: 436413330 heartbeat IPC: 0.249831 cumulative IPC: 0.287144 (Simulation time: 2 hr 38 min 14 sec) 
Heartbeat CPU 4 instructions: 240000000 cycles: 436486542 heartbeat IPC: 0.392214 cumulative IPC: 0.44751 (Simulation time: 2 hr 38 min 15 sec) 
Heartbeat CPU 7 instructions: 460000000 cycles: 437924143 heartbeat IPC: 1.01505 cumulative IPC: 1.01603 (Simulation time: 2 hr 38 min 44 sec) 
Heartbeat CPU 6 instructions: 420000000 cycles: 439403315 heartbeat IPC: 0.912255 cumulative IPC: 0.918508 (Simulation time: 2 hr 39 min 13 sec) 
Heartbeat CPU 0 instructions: 170000002 cycles: 441857671 heartbeat IPC: 0.341439 cumulative IPC: 0.327666 (Simulation time: 2 hr 40 min 0 sec) 
Heartbeat CPU 3 instructions: 180000000 cycles: 442951677 heartbeat IPC: 0.369495 cumulative IPC: 0.375443 (Simulation time: 2 hr 40 min 20 sec) 
Heartbeat CPU 7 instructions: 470000001 cycles: 447863121 heartbeat IPC: 1.00614 cumulative IPC: 1.0158 (Simulation time: 2 hr 41 min 57 sec) 
Heartbeat CPU 6 instructions: 430000000 cycles: 450647108 heartbeat IPC: 0.88938 cumulative IPC: 0.917753 (Simulation time: 2 hr 42 min 52 sec) 
Heartbeat CPU 7 instructions: 480000000 cycles: 457703370 heartbeat IPC: 1.01623 cumulative IPC: 1.01581 (Simulation time: 2 hr 45 min 9 sec) 
Heartbeat CPU 1 instructions: 120000000 cycles: 458940722 heartbeat IPC: 0.182207 cumulative IPC: 0.201159 (Simulation time: 2 hr 45 min 32 sec) 
Heartbeat CPU 6 instructions: 440000000 cycles: 461601099 heartbeat IPC: 0.912909 cumulative IPC: 0.917634 (Simulation time: 2 hr 46 min 23 sec) 
Heartbeat CPU 5 instructions: 250000001 cycles: 461649170 heartbeat IPC: 0.394341 cumulative IPC: 0.473902 (Simulation time: 2 hr 46 min 24 sec) 
Heartbeat CPU 4 instructions: 250000003 cycles: 462303603 heartbeat IPC: 0.387341 cumulative IPC: 0.444023 (Simulation time: 2 hr 46 min 36 sec) 
Heartbeat CPU 7 instructions: 490000001 cycles: 467635678 heartbeat IPC: 1.00682 cumulative IPC: 1.01562 (Simulation time: 2 hr 48 min 15 sec) 
Heartbeat CPU 3 instructions: 190000000 cycles: 471881217 heartbeat IPC: 0.345667 cumulative IPC: 0.37355 (Simulation time: 2 hr 49 min 36 sec) 
Heartbeat CPU 6 instructions: 450000002 cycles: 472943506 heartbeat IPC: 0.881647 cumulative IPC: 0.916739 (Simulation time: 2 hr 49 min 57 sec) 
Heartbeat CPU 2 instructions: 160000000 cycles: 474618697 heartbeat IPC: 0.261743 cumulative IPC: 0.285024 (Simulation time: 2 hr 50 min 30 sec) 
Heartbeat CPU 7 instructions: 500000000 cycles: 477521319 heartbeat IPC: 1.01157 cumulative IPC: 1.01553 (Simulation time: 2 hr 51 min 28 sec) 
Heartbeat CPU 0 instructions: 180000000 cycles: 481481961 heartbeat IPC: 0.25237 cumulative IPC: 0.321245 (Simulation time: 2 hr 52 min 45 sec) 
Heartbeat CPU 6 instructions: 460000000 cycles: 484040198 heartbeat IPC: 0.901169 cumulative IPC: 0.91637 (Simulation time: 2 hr 53 min 35 sec) 
Heartbeat CPU 5 instructions: 260000000 cycles: 487019586 heartbeat IPC: 0.39416 cumulative IPC: 0.4696 (Simulation time: 2 hr 54 min 34 sec) 
Heartbeat CPU 7 instructions: 510000001 cycles: 487470992 heartbeat IPC: 1.00506 cumulative IPC: 1.01531 (Simulation time: 2 hr 54 min 43 sec) 
Heartbeat CPU 4 instructions: 260000000 cycles: 487992205 heartbeat IPC: 0.389278 cumulative IPC: 0.441039 (Simulation time: 2 hr 54 min 53 sec) 
Heartbeat CPU 6 instructions: 470000000 cycles: 495170782 heartbeat IPC: 0.898425 cumulative IPC: 0.915952 (Simulation time: 2 hr 57 min 15 sec) 
Heartbeat CPU 7 instructions: 520000000 cycles: 497390909 heartbeat IPC: 1.00807 cumulative IPC: 1.01516 (Simulation time: 2 hr 57 min 57 sec) 
Heartbeat CPU 3 instructions: 200000000 cycles: 500011017 heartbeat IPC: 0.355495 cumulative IPC: 0.372499 (Simulation time: 2 hr 58 min 45 sec) 
Heartbeat CPU 6 instructions: 480000000 cycles: 506737912 heartbeat IPC: 0.864519 cumulative IPC: 0.914738 (Simulation time: 3 hr 0 min 55 sec) 
Heartbeat CPU 7 instructions: 530000001 cycles: 507352111 heartbeat IPC: 1.0039 cumulative IPC: 1.01493 (Simulation time: 3 hr 1 min 7 sec) 
Heartbeat CPU 5 instructions: 270000000 cycles: 512057203 heartbeat IPC: 0.399399 cumulative IPC: 0.466051 (Simulation time: 3 hr 2 min 35 sec) 
Heartbeat CPU 4 instructions: 270000003 cycles: 514647430 heartbeat IPC: 0.375161 cumulative IPC: 0.437512 (Simulation time: 3 hr 3 min 26 sec) 
Heartbeat CPU 2 instructions: 170000000 cycles: 516733421 heartbeat IPC: 0.237447 cumulative IPC: 0.281016 (Simulation time: 3 hr 4 min 6 sec) 
Heartbeat CPU 7 instructions: 540000000 cycles: 517334954 heartbeat IPC: 1.00172 cumulative IPC: 1.01467 (Simulation time: 3 hr 4 min 18 sec) 
Heartbeat CPU 1 instructions: 130000000 cycles: 517353609 heartbeat IPC: 0.171195 cumulative IPC: 0.197663 (Simulation time: 3 hr 4 min 18 sec) 
Heartbeat CPU 0 instructions: 190000000 cycles: 517984274 heartbeat IPC: 0.273955 cumulative IPC: 0.317801 (Simulation time: 3 hr 4 min 31 sec) 
Heartbeat CPU 6 instructions: 490000001 cycles: 518249045 heartbeat IPC: 0.868724 cumulative IPC: 0.913682 (Simulation time: 3 hr 4 min 36 sec) 
Finished CPU 1 instructions: 100000001 cycles: 506622148 cumulative IPC: 0.197386 (Simulation time: 3 hr 6 min 18 sec) 

CPU 0 Branch Prediction Accuracy: 99.2933% MPKI: 1.73146

CPU 1 Branch Prediction Accuracy: 97.9411% MPKI: 3.37297

CPU 2 Branch Prediction Accuracy: 99.2353% MPKI: 1.73441

CPU 3 Branch Prediction Accuracy: 99.9931% MPKI: 0.000831474

CPU 4 Branch Prediction Accuracy: 99.867% MPKI: 0.192597

CPU 5 Branch Prediction Accuracy: 97.6064% MPKI: 0.344694

CPU 6 Branch Prediction Accuracy: 99.9708% MPKI: 0.00711787

CPU 7 Branch Prediction Accuracy: 96.7448% MPKI: 0.268417

ChampSim completed all CPUs

Total Simulation Statistics (not including warmup)

CPU 0 cumulative IPC: 0.317452 instructions: 160828056 cycles: 506622148
L1D TOTAL     ACCESS:   37820567  HIT:   29882395  MISS:    7938172
L1D LOAD      ACCESS:   27331356  HIT:   19693722  MISS:    7637634
L1D RFO       ACCESS:   10489211  HIT:   10188673  MISS:     300538
L1D PREFETCH  ACCESS:          0  HIT:          0  MISS:          0
L1D WRITEBACK ACCESS:          0  HIT:          0  MISS:          0
L1I TOTAL     ACCESS:   69572469  HIT:   69191275  MISS:     381194
L1I LOAD      ACCESS:   69572469  HIT:   69191275  MISS:     381194
L1I RFO       ACCESS:          0  HIT:          0  MISS:          0
L1I PREFETCH  ACCESS:          0  HIT:          0  MISS:          0
L1I WRITEBACK ACCESS:          0  HIT:          0  MISS:          0
L2C TOTAL     ACCESS:   14257893  HIT:    8543371  MISS:    5714522
L2C LOAD      ACCESS:    8018772  HIT:    4135364  MISS:    3883408
L2C RFO       ACCESS:     300526  HIT:      48650  MISS:     251876
L2C PREFETCH  ACCESS:    5465178  HIT:    3886054  MISS:    1579124
L2C WRITEBACK ACCESS:     473417  HIT:     473303  MISS:        114

Avg Lookahead Depth:	2.92652
TOTAL: 9.72972e+07	L2C: 7.22781e+07	LLC: 2.50191e+07	GOOD_L2C: 4.39573e+07
Printing all the perceptron weights to: perc_weights_0.csv
LLC TOTAL     ACCESS:    8302332  HIT:    7540631  MISS:     761701
LLC LOAD      ACCESS:    3392320  HIT:    3317621  MISS:      74699
LLC RFO       ACCESS:     250548  HIT:      27751  MISS:     222797
LLC PREFETCH  ACCESS:    4305375  HIT:    3844479  MISS:     460896
LLC WRITEBACK ACCESS:     354089  HIT:     350780  MISS:       3309

CPU 1 cumulative IPC: 0.197386 instructions: 100000001 cycles: 506622148
L1D TOTAL     ACCESS:   39838981  HIT:   24473339  MISS:   15365642
L1D LOAD      ACCESS:   33580979  HIT:   18500600  MISS:   15080379
L1D RFO       ACCESS:    6258002  HIT:    5972739  MISS:     285263
L1D PREFETCH  ACCESS:          0  HIT:          0  MISS:          0
L1D WRITEBACK ACCESS:          0  HIT:          0  MISS:          0
L1I TOTAL     ACCESS:   34893592  HIT:   34893592  MISS:          0
L1I LOAD      ACCESS:   34893592  HIT:   34893592  MISS:          0
L1I RFO       ACCESS:          0  HIT:          0  MISS:          0
L1I PREFETCH  ACCESS:          0  HIT:          0  MISS:          0
L1I WRITEBACK ACCESS:          0  HIT:          0  MISS:          0
L2C TOTAL     ACCESS:   28630082  HIT:    9988837  MISS:   18641245
L2C LOAD      ACCESS:   15080379  HIT:    7707309  MISS:    7373070
L2C RFO       ACCESS:     285263  HIT:       9406  MISS:     275857
L2C PREFETCH  ACCESS:   12908218  HIT:    1916811  MISS:   10991407
L2C WRITEBACK ACCESS:     356222  HIT:     355311  MISS:        911

Avg Lookahead Depth:	2.92652
TOTAL: 9.72972e+07	L2C: 7.22781e+07	LLC: 2.50191e+07	GOOD_L2C: 4.39573e+07
Printing all the perceptron weights to: perc_weights_0.csv
LLC TOTAL     ACCESS:   21093394  HIT:   18570612  MISS:    2522782
LLC LOAD      ACCESS:    2523101  HIT:    2411427  MISS:     111674
LLC RFO       ACCESS:     274677  HIT:       1989  MISS:     272688
LLC PREFETCH  ACCESS:   17941041  HIT:   15802783  MISS:    2138258
LLC WRITEBACK ACCESS:     354575  HIT:     354413  MISS:        162

CPU 2 cumulative IPC: 0.280565 instructions: 142140627 cycles: 506622148
L1D TOTAL     ACCESS:   37289330  HIT:   29656039  MISS:    7633291
L1D LOAD      ACCESS:   26652868  HIT:   19216833  MISS:    7436035
L1D RFO       ACCESS:   10636462  HIT:   10439206  MISS:     197256
L1D PREFETCH  ACCESS:          0  HIT:          0  MISS:          0
L1D WRITEBACK ACCESS:          0  HIT:          0  MISS:          0
L1I TOTAL     ACCESS:   60261635  HIT:   59884403  MISS:     377232
L1I LOAD      ACCESS:   60261635  HIT:   59884403  MISS:     377232
L1I RFO       ACCESS:          0  HIT:          0  MISS:          0
L1I PREFETCH  ACCESS:          0  HIT:          0  MISS:          0
L1I WRITEBACK ACCESS:          0  HIT:          0  MISS:          0
L2C TOTAL     ACCESS:   13353752  HIT:    7562507  MISS:    5791245
L2C LOAD      ACCESS:    7813244  HIT:    3782322  MISS:    4030922
L2C RFO       ACCESS:     197251  HIT:      28042  MISS:     169209
L2C PREFETCH  ACCESS:    5003143  HIT:    3412302  MISS:    1590841
L2C WRITEBACK ACCESS:     340114  HIT:     339841  MISS:        273

Avg Lookahead Depth:	2.92652
TOTAL: 9.72972e+07	L2C: 7.22781e+07	LLC: 2.50191e+07	GOOD_L2C: 4.39573e+07
Printing all the perceptron weights to: perc_weights_0.csv
LLC TOTAL     ACCESS:    8386943  HIT:    7648257  MISS:     738686
LLC LOAD      ACCESS:    3555102  HIT:    3444408  MISS:     110694
LLC RFO       ACCESS:     168033  HIT:      30514  MISS:     137519
LLC PREFETCH  ACCESS:    4392451  HIT:    3906472  MISS:     485979
LLC WRITEBACK ACCESS:     271357  HIT:     266863  MISS:       4494

CPU 3 cumulative IPC: 0.372706 instructions: 188821197 cycles: 506622148
L1D TOTAL     ACCESS:  105870136  HIT:  102237168  MISS:    3632968
L1D LOAD      ACCESS:   93764224  HIT:   90131256  MISS:    3632968
L1D RFO       ACCESS:   12105912  HIT:   12105912  MISS:          0
L1D PREFETCH  ACCESS:          0  HIT:          0  MISS:          0
L1D WRITEBACK ACCESS:          0  HIT:          0  MISS:          0
L1I TOTAL     ACCESS:   56223427  HIT:   56223427  MISS:          0
L1I LOAD      ACCESS:   56223427  HIT:   56223427  MISS:          0
L1I RFO       ACCESS:          0  HIT:          0  MISS:          0
L1I PREFETCH  ACCESS:          0  HIT:          0  MISS:          0
L1I WRITEBACK ACCESS:          0  HIT:          0  MISS:          0
L2C TOTAL     ACCESS:    8853155  HIT:    4427392  MISS:    4425763
L2C LOAD      ACCESS:    3632968  HIT:    2074386  MISS:    1558582
L2C RFO       ACCESS:          0  HIT:          0  MISS:          0
L2C PREFETCH  ACCESS:    3385819  HIT:     518642  MISS:    2867177
L2C WRITEBACK ACCESS:    1834368  HIT:    1834364  MISS:          4

Avg Lookahead Depth:	2.92652
TOTAL: 9.72972e+07	L2C: 7.22781e+07	LLC: 2.50191e+07	GOOD_L2C: 4.39573e+07
Printing all the perceptron weights to: perc_weights_0.csv
LLC TOTAL     ACCESS:    8237481  HIT:    3177221  MISS:    5060260
LLC LOAD      ACCESS:    1441972  HIT:     321084  MISS:    1120888
LLC RFO       ACCESS:          0  HIT:          0  MISS:          0
LLC PREFETCH  ACCESS:    4960957  HIT:    1021614  MISS:    3939343
LLC WRITEBACK ACCESS:    1834552  HIT:    1834523  MISS:         29

CPU 4 cumulative IPC: 0.436582 instructions: 221182066 cycles: 506622149
L1D TOTAL     ACCESS:   19143090  HIT:   14683048  MISS:    4460042
L1D LOAD      ACCESS:   15821651  HIT:   11361611  MISS:    4460040
L1D RFO       ACCESS:    3321439  HIT:    3321437  MISS:          2
L1D PREFETCH  ACCESS:          0  HIT:          0  MISS:          0
L1D WRITEBACK ACCESS:          0  HIT:          0  MISS:          0
L1I TOTAL     ACCESS:   46651737  HIT:   46651730  MISS:          7
L1I LOAD      ACCESS:   46651737  HIT:   46651730  MISS:          7
L1I RFO       ACCESS:          0  HIT:          0  MISS:          0
L1I PREFETCH  ACCESS:          0  HIT:          0  MISS:          0
L1I WRITEBACK ACCESS:          0  HIT:          0  MISS:          0
L2C TOTAL     ACCESS:    7360675  HIT:    2900284  MISS:    4460391
L2C LOAD      ACCESS:    4460047  HIT:    2586366  MISS:    1873681
L2C RFO       ACCESS:          2  HIT:          0  MISS:          2
L2C PREFETCH  ACCESS:    2900622  HIT:     313917  MISS:    2586705
L2C WRITEBACK ACCESS:          4  HIT:          1  MISS:          3

Avg Lookahead Depth:	2.92652
TOTAL: 9.72972e+07	L2C: 7.22781e+07	LLC: 2.50191e+07	GOOD_L2C: 4.39573e+07
Printing all the perceptron weights to: perc_weights_0.csv
LLC TOTAL     ACCESS:    4481126  HIT:      21517  MISS:    4459609
LLC LOAD      ACCESS:     133559  HIT:       1504  MISS:     132055
LLC RFO       ACCESS:          2  HIT:          0  MISS:          2
LLC PREFETCH  ACCESS:    4347561  HIT:      20012  MISS:    4327549
LLC WRITEBACK ACCESS:          4  HIT:          1  MISS:          3

CPU 5 cumulative IPC: 0.464554 instructions: 235353362 cycles: 506622149
L1D TOTAL     ACCESS:   64724159  HIT:   49554043  MISS:   15170116
L1D LOAD      ACCESS:   24314142  HIT:   22014122  MISS:    2300020
L1D RFO       ACCESS:   40410017  HIT:   27539921  MISS:   12870096
L1D PREFETCH  ACCESS:          0  HIT:          0  MISS:          0
L1D WRITEBACK ACCESS:          0  HIT:          0  MISS:          0
L1I TOTAL     ACCESS:   56328330  HIT:   56328330  MISS:          0
L1I LOAD      ACCESS:   56328330  HIT:   56328330  MISS:          0
L1I RFO       ACCESS:          0  HIT:          0  MISS:          0
L1I PREFETCH  ACCESS:          0  HIT:          0  MISS:          0
L1I WRITEBACK ACCESS:          0  HIT:          0  MISS:          0
L2C TOTAL     ACCESS:   29997528  HIT:   18529816  MISS:   11467712
L2C LOAD      ACCESS:    2300020  HIT:    1605529  MISS:     694491
L2C RFO       ACCESS:   12870086  HIT:    3704116  MISS:    9165970
L2C PREFETCH  ACCESS:    1957327  HIT:     352649  MISS:    1604678
L2C WRITEBACK ACCESS:   12870095  HIT:   12867522  MISS:       2573

Avg Lookahead Depth:	2.92652
TOTAL: 9.72972e+07	L2C: 7.22781e+07	LLC: 2.50191e+07	GOOD_L2C: 4.39573e+07
Printing all the perceptron weights to: perc_weights_0.csv
LLC TOTAL     ACCESS:   20667553  HIT:   11477315  MISS:    9190238
LLC LOAD      ACCESS:     144643  HIT:       3986  MISS:     140657
LLC RFO       ACCESS:    9160611  HIT:    2268734  MISS:    6891877
LLC PREFETCH  ACCESS:    2193805  HIT:      36670  MISS:    2157135
LLC WRITEBACK ACCESS:    9168494  HIT:    9167925  MISS:        569

CPU 6 cumulative IPC: 0.913414 instructions: 462755537 cycles: 506622149
L1D TOTAL     ACCESS:  176492855  HIT:  166898382  MISS:    9594473
L1D LOAD      ACCESS:  151091639  HIT:  141781390  MISS:    9310249
L1D RFO       ACCESS:   25401216  HIT:   25116992  MISS:     284224
L1D PREFETCH  ACCESS:          0  HIT:          0  MISS:          0
L1D WRITEBACK ACCESS:          0  HIT:          0  MISS:          0
L1I TOTAL     ACCESS:  114230251  HIT:  114230251  MISS:          0
L1I LOAD      ACCESS:  114230251  HIT:  114230251  MISS:          0
L1I RFO       ACCESS:          0  HIT:          0  MISS:          0
L1I PREFETCH  ACCESS:          0  HIT:          0  MISS:          0
L1I WRITEBACK ACCESS:          0  HIT:          0  MISS:          0
L2C TOTAL     ACCESS:   20509648  HIT:   11689406  MISS:    8820242
L2C LOAD      ACCESS:    9307533  HIT:    7967722  MISS:    1339811
L2C RFO       ACCESS:     278760  HIT:      53286  MISS:     225474
L2C PREFETCH  ACCESS:   10612735  HIT:    3358220  MISS:    7254515
L2C WRITEBACK ACCESS:     310620  HIT:     310178  MISS:        442

Avg Lookahead Depth:	2.92652
TOTAL: 9.72972e+07	L2C: 7.22781e+07	LLC: 2.50191e+07	GOOD_L2C: 4.39573e+07
Printing all the perceptron weights to: perc_weights_0.csv
LLC TOTAL     ACCESS:    9826931  HIT:    1032146  MISS:    8794785
LLC LOAD      ACCESS:     446994  HIT:      50904  MISS:     396090
LLC RFO       ACCESS:     225474  HIT:          0  MISS:     225474
LLC PREFETCH  ACCESS:    8928028  HIT:     755103  MISS:    8172925
LLC WRITEBACK ACCESS:     226435  HIT:     226139  MISS:        296

CPU 7 cumulative IPC: 1.01456 instructions: 513998146 cycles: 506622149
L1D TOTAL     ACCESS:  173905483  HIT:  157017306  MISS:   16888177
L1D LOAD      ACCESS:   91521339  HIT:   81892959  MISS:    9628380
L1D RFO       ACCESS:   82384144  HIT:   75124347  MISS:    7259797
L1D PREFETCH  ACCESS:          0  HIT:          0  MISS:          0
L1D WRITEBACK ACCESS:          0  HIT:          0  MISS:          0
L1I TOTAL     ACCESS:  123914618  HIT:  123914618  MISS:          0
L1I LOAD      ACCESS:  123914618  HIT:  123914618  MISS:          0
L1I RFO       ACCESS:          0  HIT:          0  MISS:          0
L1I PREFETCH  ACCESS:          0  HIT:          0  MISS:          0
L1I WRITEBACK ACCESS:          0  HIT:          0  MISS:          0
L2C TOTAL     ACCESS:   33208693  HIT:   25312104  MISS:    7896589
L2C LOAD      ACCESS:    9624032  HIT:    9441531  MISS:     182501
L2C RFO       ACCESS:    6454821  HIT:    3394551  MISS:    3060270
L2C PREFETCH  ACCESS:    9814035  HIT:    5161401  MISS:    4652634
L2C WRITEBACK ACCESS:    7315805  HIT:    7314621  MISS:       1184

Avg Lookahead Depth:	2.92652
TOTAL: 9.72972e+07	L2C: 7.22781e+07	LLC: 2.50191e+07	GOOD_L2C: 4.39573e+07
Printing all the perceptron weights to: perc_weights_0.csv
LLC TOTAL     ACCESS:   13776834  HIT:    6768715  MISS:    7008119
LLC LOAD      ACCESS:     161259  HIT:      52713  MISS:     108546
LLC RFO       ACCESS:    3060267  HIT:          2  MISS:    3060265
LLC PREFETCH  ACCESS:    7492838  HIT:    3653806  MISS:    3839032
LLC WRITEBACK ACCESS:    3062470  HIT:    3062194  MISS:        276

Region of Interest Statistics

CPU 0 cumulative IPC: 0.319586 instructions: 100000000 cycles: 312904809
L1D TOTAL     ACCESS:   24106372  HIT:   19152431  MISS:    4953941
L1D LOAD      ACCESS:   17162204  HIT:   12423825  MISS:    4738379
L1D RFO       ACCESS:    6944168  HIT:    6728606  MISS:     215562
L1D PREFETCH  ACCESS:          0  HIT:          0  MISS:          0
L1D WRITEBACK ACCESS:          0  HIT:          0  MISS:          0
L1D PREFETCH  REQUESTED:          0  ISSUED:          0  USEFUL:          0  USELESS:          0
L1I TOTAL     ACCESS:   43096347  HIT:   42841584  MISS:     254763
L1I LOAD      ACCESS:   43096347  HIT:   42841584  MISS:     254763
L1I RFO       ACCESS:          0  HIT:          0  MISS:          0
L1I PREFETCH  ACCESS:          0  HIT:          0  MISS:          0
L1I WRITEBACK ACCESS:          0  HIT:          0  MISS:          0
L1I PREFETCH  REQUESTED:          0  ISSUED:          0  USEFUL:          0  USELESS:          0
L2C TOTAL     ACCESS:    9007982  HIT:    5419558  MISS:    3588424
L2C LOAD      ACCESS:    4993095  HIT:    2589097  MISS:    2403998
L2C RFO       ACCESS:     215554  HIT:      31949  MISS:     183605
L2C PREFETCH  ACCESS:    3471313  HIT:    2470566  MISS:    1000747
L2C WRITEBACK ACCESS:     328020  HIT:     327946  MISS:         74
L2C PREFETCH  REQUESTED:   11125517  ISSUED:   11125486  USEFUL:     452671  USELESS:    1511084
LLC TOTAL     ACCESS:    5225958  HIT:    4731452  MISS:     494506
LLC LOAD      ACCESS:    2103710  HIT:    2060467  MISS:      43243
LLC RFO       ACCESS:     182793  HIT:      18307  MISS:     164486
LLC PREFETCH  ACCESS:    2690294  HIT:    2405469  MISS:     284825
LLC WRITEBACK ACCESS:     249161  HIT:     247209  MISS:       1952
LLC PREFETCH  REQUESTED:          0  ISSUED:          0  USEFUL:     665922  USELESS:   27776143
Major fault: 0 Minor fault: 4263

CPU 1 cumulative IPC: 0.197386 instructions: 100000001 cycles: 506622148
L1D TOTAL     ACCESS:   39838981  HIT:   24473339  MISS:   15365642
L1D LOAD      ACCESS:   33580979  HIT:   18500600  MISS:   15080379
L1D RFO       ACCESS:    6258002  HIT:    5972739  MISS:     285263
L1D PREFETCH  ACCESS:          0  HIT:          0  MISS:          0
L1D WRITEBACK ACCESS:          0  HIT:          0  MISS:          0
L1D PREFETCH  REQUESTED:          0  ISSUED:          0  USEFUL:          0  USELESS:          0
L1I TOTAL     ACCESS:   34893592  HIT:   34893592  MISS:          0
L1I LOAD      ACCESS:   34893592  HIT:   34893592  MISS:          0
L1I RFO       ACCESS:          0  HIT:          0  MISS:          0
L1I PREFETCH  ACCESS:          0  HIT:          0  MISS:          0
L1I WRITEBACK ACCESS:          0  HIT:          0  MISS:          0
L1I PREFETCH  REQUESTED:          0  ISSUED:          0  USEFUL:          0  USELESS:          0
L2C TOTAL     ACCESS:   28630082  HIT:    9988837  MISS:   18641245
L2C LOAD      ACCESS:   15080379  HIT:    7707309  MISS:    7373070
L2C RFO       ACCESS:     285263  HIT:       9406  MISS:     275857
L2C PREFETCH  ACCESS:   12908218  HIT:    1916811  MISS:   10991407
L2C WRITEBACK ACCESS:     356222  HIT:     355311  MISS:        911
L2C PREFETCH  REQUESTED:   28498794  ISSUED:   28493725  USEFUL:   11959965  USELESS:    3798899
LLC TOTAL     ACCESS:   21093393  HIT:   18570611  MISS:    2522782
LLC LOAD      ACCESS:    2523101  HIT:    2411427  MISS:     111674
LLC RFO       ACCESS:     274677  HIT:       1989  MISS:     272688
LLC PREFETCH  ACCESS:   17941040  HIT:   15802782  MISS:    2138258
LLC WRITEBACK ACCESS:     354575  HIT:     354413  MISS:        162
LLC PREFETCH  REQUESTED:          0  ISSUED:          0  USEFUL:     665922  USELESS:   27776143
Major fault: 0 Minor fault: 11822

CPU 2 cumulative IPC: 0.289542 instructions: 100000000 cycles: 345372597
L1D TOTAL     ACCESS:   26171179  HIT:   21003721  MISS:    5167458
L1D LOAD      ACCESS:   18502952  HIT:   13491198  MISS:    5011754
L1D RFO       ACCESS:    7668227  HIT:    7512523  MISS:     155704
L1D PREFETCH  ACCESS:          0  HIT:          0  MISS:          0
L1D WRITEBACK ACCESS:          0  HIT:          0  MISS:          0
L1D PREFETCH  REQUESTED:          0  ISSUED:          0  USEFUL:          0  USELESS:          0
L1I TOTAL     ACCESS:   42620924  HIT:   42342569  MISS:     278355
L1I LOAD      ACCESS:   42620924  HIT:   42342569  MISS:     278355
L1I RFO       ACCESS:          0  HIT:          0  MISS:          0
L1I PREFETCH  ACCESS:          0  HIT:          0  MISS:          0
L1I WRITEBACK ACCESS:          0  HIT:          0  MISS:          0
L1I PREFETCH  REQUESTED:          0  ISSUED:          0  USEFUL:          0  USELESS:          0
L2C TOTAL     ACCESS:    9158600  HIT:    5201177  MISS:    3957423
L2C LOAD      ACCESS:    5290088  HIT:    2563763  MISS:    2726325
L2C RFO       ACCESS:     155699  HIT:      23717  MISS:     131982
L2C PREFETCH  ACCESS:    3456241  HIT:    2357301  MISS:    1098940
L2C WRITEBACK ACCESS:     256572  HIT:     256396  MISS:        176
L2C PREFETCH  REQUESTED:   10545964  ISSUED:   10545940  USEFUL:     431161  USELESS:    1533302
LLC TOTAL     ACCESS:    5725299  HIT:    5217778  MISS:     507521
LLC LOAD      ACCESS:    2396826  HIT:    2327501  MISS:      69325
LLC RFO       ACCESS:     131092  HIT:      21603  MISS:     109489
LLC PREFETCH  ACCESS:    2995843  HIT:    2670230  MISS:     325613
LLC WRITEBACK ACCESS:     201538  HIT:     198444  MISS:       3094
LLC PREFETCH  REQUESTED:          0  ISSUED:          0  USEFUL:     665922  USELESS:   27776143
Major fault: 0 Minor fault: 3642

CPU 3 cumulative IPC: 0.381186 instructions: 100000000 cycles: 262339193
L1D TOTAL     ACCESS:   56072290  HIT:   54148271  MISS:    1924019
L1D LOAD      ACCESS:   49660982  HIT:   47736963  MISS:    1924019
L1D RFO       ACCESS:    6411308  HIT:    6411308  MISS:          0
L1D PREFETCH  ACCESS:          0  HIT:          0  MISS:          0
L1D WRITEBACK ACCESS:          0  HIT:          0  MISS:          0
L1D PREFETCH  REQUESTED:          0  ISSUED:          0  USEFUL:          0  USELESS:          0
L1I TOTAL     ACCESS:   29749928  HIT:   29749928  MISS:          0
L1I LOAD      ACCESS:   29749928  HIT:   29749928  MISS:          0
L1I RFO       ACCESS:          0  HIT:          0  MISS:          0
L1I PREFETCH  ACCESS:          0  HIT:          0  MISS:          0
L1I WRITEBACK ACCESS:          0  HIT:          0  MISS:          0
L1I PREFETCH  REQUESTED:          0  ISSUED:          0  USEFUL:          0  USELESS:          0
L2C TOTAL     ACCESS:    4703780  HIT:    2356203  MISS:    2347577
L2C LOAD      ACCESS:    1924019  HIT:    1110004  MISS:     814015
L2C RFO       ACCESS:          0  HIT:          0  MISS:          0
L2C PREFETCH  ACCESS:    1808281  HIT:     274721  MISS:    1533560
L2C WRITEBACK ACCESS:     971480  HIT:     971478  MISS:          2
L2C PREFETCH  REQUESTED:    6150499  ISSUED:    6150484  USEFUL:    2267677  USELESS:     868950
LLC TOTAL     ACCESS:    4371254  HIT:    1701657  MISS:    2669597
LLC LOAD      ACCESS:     756924  HIT:     177892  MISS:     579032
LLC RFO       ACCESS:          0  HIT:          0  MISS:          0
LLC PREFETCH  ACCESS:    2642762  HIT:     552219  MISS:    2090543
LLC WRITEBACK ACCESS:     971568  HIT:     971546  MISS:         22
LLC PREFETCH  REQUESTED:          0  ISSUED:          0  USEFUL:     665922  USELESS:   27776143
Major fault: 0 Minor fault: 534689

CPU 4 cumulative IPC: 0.498558 instructions: 100000001 cycles: 200578315
L1D TOTAL     ACCESS:    8931606  HIT:    7372752  MISS:    1558854
L1D LOAD      ACCESS:    6438004  HIT:    4879150  MISS:    1558854
L1D RFO       ACCESS:    2493602  HIT:    2493602  MISS:          0
L1D PREFETCH  ACCESS:          0  HIT:          0  MISS:          0
L1D WRITEBACK ACCESS:          0  HIT:          0  MISS:          0
L1D PREFETCH  REQUESTED:          0  ISSUED:          0  USEFUL:          0  USELESS:          0
L1I TOTAL     ACCESS:   22056504  HIT:   22056504  MISS:          0
L1I LOAD      ACCESS:   22056504  HIT:   22056504  MISS:          0
L1I RFO       ACCESS:          0  HIT:          0  MISS:          0
L1I PREFETCH  ACCESS:          0  HIT:          0  MISS:          0
L1I WRITEBACK ACCESS:          0  HIT:          0  MISS:          0
L1I PREFETCH  REQUESTED:          0  ISSUED:          0  USEFUL:          0  USELESS:          0
L2C TOTAL     ACCESS:    2492368  HIT:     933458  MISS:    1558910
L2C LOAD      ACCESS:    1558854  HIT:     844139  MISS:     714715
L2C RFO       ACCESS:          0  HIT:          0  MISS:          0
L2C PREFETCH  ACCESS:     933514  HIT:      89319  MISS:     844195
L2C WRITEBACK ACCESS:          0  HIT:          0  MISS:          0
L2C PREFETCH  REQUESTED:    7105558  ISSUED:    7105557  USEFUL:    3862640  USELESS:        636
LLC TOTAL     ACCESS:    1563970  HIT:       5359  MISS:    1558611
LLC LOAD      ACCESS:      47213  HIT:        481  MISS:      46732
LLC RFO       ACCESS:          0  HIT:          0  MISS:          0
LLC PREFETCH  ACCESS:    1516757  HIT:       4878  MISS:    1511879
LLC WRITEBACK ACCESS:          0  HIT:          0  MISS:          0
LLC PREFETCH  REQUESTED:          0  ISSUED:          0  USEFUL:     665922  USELESS:   27776143
Major fault: 0 Minor fault: 66960

CPU 5 cumulative IPC: 0.729654 instructions: 100000001 cycles: 137051206
L1D TOTAL     ACCESS:   25786987  HIT:   21911990  MISS:    3874997
L1D LOAD      ACCESS:   10689729  HIT:   10102596  MISS:     587133
L1D RFO       ACCESS:   15097258  HIT:   11809394  MISS:    3287864
L1D PREFETCH  ACCESS:          0  HIT:          0  MISS:          0
L1D WRITEBACK ACCESS:          0  HIT:          0  MISS:          0
L1D PREFETCH  REQUESTED:          0  ISSUED:          0  USEFUL:          0  USELESS:          0
L1I TOTAL     ACCESS:   23530212  HIT:   23530212  MISS:          0
L1I LOAD      ACCESS:   23530212  HIT:   23530212  MISS:          0
L1I RFO       ACCESS:          0  HIT:          0  MISS:          0
L1I PREFETCH  ACCESS:          0  HIT:          0  MISS:          0
L1I WRITEBACK ACCESS:          0  HIT:          0  MISS:          0
L1I PREFETCH  REQUESTED:          0  ISSUED:          0  USEFUL:          0  USELESS:          0
L2C TOTAL     ACCESS:    7764107  HIT:    4834122  MISS:    2929985
L2C LOAD      ACCESS:     587133  HIT:     490179  MISS:      96954
L2C RFO       ACCESS:    3287864  HIT:     945061  MISS:    2342803
L2C PREFETCH  ACCESS:     601251  HIT:     111064  MISS:     490187
L2C WRITEBACK ACCESS:    3287859  HIT:    3287818  MISS:         41
L2C PREFETCH  REQUESTED:    3195763  ISSUED:    3195763  USEFUL:    1806519  USELESS:        568
LLC TOTAL     ACCESS:    5286154  HIT:    2937645  MISS:    2348509
LLC LOAD      ACCESS:      26432  HIT:        888  MISS:      25544
LLC RFO       ACCESS:    2341230  HIT:     579898  MISS:    1761332
LLC PREFETCH  ACCESS:     575647  HIT:      14050  MISS:     561597
LLC WRITEBACK ACCESS:    2342845  HIT:    2342809  MISS:         36
LLC PREFETCH  REQUESTED:          0  ISSUED:          0  USEFUL:     665922  USELESS:   27776143
Major fault: 0 Minor fault: 81538

CPU 6 cumulative IPC: 0.967556 instructions: 100000000 cycles: 103353199
L1D TOTAL     ACCESS:   38147939  HIT:   36074923  MISS:    2073016
L1D LOAD      ACCESS:   32664156  HIT:   30652414  MISS:    2011742
L1D RFO       ACCESS:    5483783  HIT:    5422509  MISS:      61274
L1D PREFETCH  ACCESS:          0  HIT:          0  MISS:          0
L1D WRITEBACK ACCESS:          0  HIT:          0  MISS:          0
L1D PREFETCH  REQUESTED:          0  ISSUED:          0  USEFUL:          0  USELESS:          0
L1I TOTAL     ACCESS:   24651052  HIT:   24651052  MISS:          0
L1I LOAD      ACCESS:   24651052  HIT:   24651052  MISS:          0
L1I RFO       ACCESS:          0  HIT:          0  MISS:          0
L1I PREFETCH  ACCESS:          0  HIT:          0  MISS:          0
L1I WRITEBACK ACCESS:          0  HIT:          0  MISS:          0
L1I PREFETCH  REQUESTED:          0  ISSUED:          0  USEFUL:          0  USELESS:          0
L2C TOTAL     ACCESS:    4523882  HIT:    2618354  MISS:    1905528
L2C LOAD      ACCESS:    2011177  HIT:    1768693  MISS:     242484
L2C RFO       ACCESS:      60084  HIT:      11360  MISS:      48724
L2C PREFETCH  ACCESS:    2385648  HIT:     771435  MISS:    1614213
L2C WRITEBACK ACCESS:      66973  HIT:      66866  MISS:        107
L2C PREFETCH  REQUESTED:   16088977  ISSUED:   15718223  USEFUL:    7803053  USELESS:       3632
LLC TOTAL     ACCESS:    2133780  HIT:     233261  MISS:    1900519
LLC LOAD      ACCESS:      91624  HIT:      11021  MISS:      80603
LLC RFO       ACCESS:      48724  HIT:          0  MISS:      48724
LLC PREFETCH  ACCESS:    1944466  HIT:     173340  MISS:    1771126
LLC WRITEBACK ACCESS:      48966  HIT:      48900  MISS:         66
LLC PREFETCH  REQUESTED:          0  ISSUED:          0  USEFUL:     665922  USELESS:   27776143
Major fault: 0 Minor fault: 139608

CPU 7 cumulative IPC: 1.02897 instructions: 100000003 cycles: 97184547
L1D TOTAL     ACCESS:   33819918  HIT:   30548370  MISS:    3271548
L1D LOAD      ACCESS:   17804032  HIT:   15938191  MISS:    1865841
L1D RFO       ACCESS:   16015886  HIT:   14610179  MISS:    1405707
L1D PREFETCH  ACCESS:          0  HIT:          0  MISS:          0
L1D WRITEBACK ACCESS:          0  HIT:          0  MISS:          0
L1D PREFETCH  REQUESTED:          0  ISSUED:          0  USEFUL:          0  USELESS:          0
L1I TOTAL     ACCESS:   24101653  HIT:   24101653  MISS:          0
L1I LOAD      ACCESS:   24101653  HIT:   24101653  MISS:          0
L1I RFO       ACCESS:          0  HIT:          0  MISS:          0
L1I PREFETCH  ACCESS:          0  HIT:          0  MISS:          0
L1I WRITEBACK ACCESS:          0  HIT:          0  MISS:          0
L1I PREFETCH  REQUESTED:          0  ISSUED:          0  USEFUL:          0  USELESS:          0
L2C TOTAL     ACCESS:    6479629  HIT:    4942486  MISS:    1537143
L2C LOAD      ACCESS:    1865020  HIT:    1830742  MISS:      34278
L2C RFO       ACCESS:    1250033  HIT:     654645  MISS:     595388
L2C PREFETCH  ACCESS:    1948009  HIT:    1040748  MISS:     907261
L2C WRITEBACK ACCESS:    1416567  HIT:    1416351  MISS:        216
L2C PREFETCH  REQUESTED:   14586124  ISSUED:   14586084  USEFUL:    4904674  USELESS:      17397
LLC TOTAL     ACCESS:    2739344  HIT:    1375807  MISS:    1363537
LLC LOAD      ACCESS:      31144  HIT:      10641  MISS:      20503
LLC RFO       ACCESS:     595386  HIT:          1  MISS:     595385
LLC PREFETCH  ACCESS:    1517048  HIT:     769449  MISS:     747599
LLC WRITEBACK ACCESS:     595766  HIT:     595716  MISS:         50
LLC PREFETCH  REQUESTED:          0  ISSUED:          0  USEFUL:     665922  USELESS:   27776143
Major fault: 0 Minor fault: 103740

Avg Lookahead Depth:	2.92652
TOTAL: 9.72972e+07	L2C: 7.22781e+07	LLC: 2.50191e+07	GOOD_L2C: 4.39573e+07
Printing all the perceptron weights to: perc_weights_0.csv

Avg Lookahead Depth:	2.92652
TOTAL: 9.72972e+07	L2C: 7.22781e+07	LLC: 2.50191e+07	GOOD_L2C: 4.39573e+07
Printing all the perceptron weights to: perc_weights_0.csv

Avg Lookahead Depth:	2.92652
TOTAL: 9.72972e+07	L2C: 7.22781e+07	LLC: 2.50191e+07	GOOD_L2C: 4.39573e+07
Printing all the perceptron weights to: perc_weights_0.csv

Avg Lookahead Depth:	2.92652
TOTAL: 9.72972e+07	L2C: 7.22781e+07	LLC: 2.50191e+07	GOOD_L2C: 4.39573e+07
Printing all the perceptron weights to: perc_weights_0.csv

Avg Lookahead Depth:	2.92652
TOTAL: 9.72972e+07	L2C: 7.22781e+07	LLC: 2.50191e+07	GOOD_L2C: 4.39573e+07
Printing all the perceptron weights to: perc_weights_0.csv

Avg Lookahead Depth:	2.92652
TOTAL: 9.72972e+07	L2C: 7.22781e+07	LLC: 2.50191e+07	GOOD_L2C: 4.39573e+07
Printing all the perceptron weights to: perc_weights_0.csv

Avg Lookahead Depth:	2.92652
TOTAL: 9.72972e+07	L2C: 7.22781e+07	LLC: 2.50191e+07	GOOD_L2C: 4.39573e+07
Printing all the perceptron weights to: perc_weights_0.csv

Avg Lookahead Depth:	2.92652
TOTAL: 9.72972e+07	L2C: 7.22781e+07	LLC: 2.50191e+07	GOOD_L2C: 4.39573e+07
Printing all the perceptron weights to: perc_weights_0.csv

DRAM Statistics
 CHANNEL 0
 RQ ROW_BUFFER_HIT:    7583079  ROW_BUFFER_MISS:   11673777
 DBUS_CONGESTED:   45415824
 WQ ROW_BUFFER_HIT:     568710  ROW_BUFFER_MISS:    5840227  FULL:          0

 CHANNEL 1
 RQ ROW_BUFFER_HIT:    7571366  ROW_BUFFER_MISS:   11698773
 DBUS_CONGESTED:   45415824
 WQ ROW_BUFFER_HIT:     568848  ROW_BUFFER_MISS:    5839908  FULL:          0

 AVG_CONGESTED_CYCLE: 14
