Initialize SIGNATURE TABLE
ST_SET: 1
ST_WAY: 256
ST_TAG_BIT: 16
ST_TAG_MASK: ffff

Initialize PATTERN TABLE
PT_SET: 512
PT_WAY: 4
SIG_DELTA_BIT: 7
C_SIG_BIT: 4
C_DELTA_BIT: 4

Initialize PREFETCH FILTER
FILTER_SET: 1024

Initialize PERCEPTRON
PERC_ENTRIES: 4096
PERC_FEATURES: 9

*** ChampSim Multicore Out-of-Order Simulator ***

Warmup Instructions: 20000000
Simulation Instructions: 100000000
Number of CPUs: 8
LLC sets: 16384
LLC ways: 16
Off-chip DRAM Size: 8192 MB Channels: 2 Width: 64-bit Data Rate: 1600 MT/s

CPU 0 runs /scratch/user/djimenez/champsim-traces/speccpu2017/xz/621.wrf_s/621.wrf_s-8065B.champsimtrace.xz
CPU 1 runs /scratch/user/djimenez/champsim-traces/speccpu2017/xz/603.bwaves_s/603.bwaves_s-1740B.champsimtrace.xz
CPU 2 runs /scratch/user/djimenez/champsim-traces/speccpu2017/xz/605.mcf_s/605.mcf_s-994B.champsimtrace.xz
CPU 3 runs /scratch/user/djimenez/champsim-traces/speccpu2017/xz/619.lbm_s/619.lbm_s-3766B.champsimtrace.xz
CPU 4 runs /scratch/user/djimenez/champsim-traces/speccpu2017/xz/628.pop2_s/628.pop2_s-17B.champsimtrace.xz
CPU 5 runs /scratch/user/djimenez/champsim-traces/speccpu2017/xz/607.cactuBSSN_s/607.cactuBSSN_s-2421B.champsimtrace.xz
CPU 6 runs /scratch/user/djimenez/champsim-traces/speccpu2017/xz/602.gcc_s/602.gcc_s-2375B.champsimtrace.xz
CPU 7 runs /scratch/user/djimenez/champsim-traces/speccpu2017/xz/627.cam4_s/627.cam4_s-490B.champsimtrace.xz
Heartbeat CPU 7 instructions: 10000002 cycles: 3992321 heartbeat IPC: 2.50481 cumulative IPC: 2.50481 (Simulation time: 0 hr 4 min 9 sec) 
Heartbeat CPU 4 instructions: 10000002 cycles: 4120923 heartbeat IPC: 2.42664 cumulative IPC: 2.42664 (Simulation time: 0 hr 4 min 17 sec) 
Heartbeat CPU 3 instructions: 10000000 cycles: 4280213 heartbeat IPC: 2.33633 cumulative IPC: 2.33633 (Simulation time: 0 hr 4 min 27 sec) 
Heartbeat CPU 0 instructions: 10000003 cycles: 4756803 heartbeat IPC: 2.10225 cumulative IPC: 2.10225 (Simulation time: 0 hr 4 min 57 sec) 
Heartbeat CPU 1 instructions: 10000001 cycles: 5273913 heartbeat IPC: 1.89613 cumulative IPC: 1.89613 (Simulation time: 0 hr 5 min 29 sec) 
Heartbeat CPU 2 instructions: 10000000 cycles: 5611500 heartbeat IPC: 1.78205 cumulative IPC: 1.78205 (Simulation time: 0 hr 5 min 51 sec) 
Heartbeat CPU 5 instructions: 10000000 cycles: 5801724 heartbeat IPC: 1.72363 cumulative IPC: 1.72363 (Simulation time: 0 hr 6 min 3 sec) 
Heartbeat CPU 6 instructions: 10000002 cycles: 6791881 heartbeat IPC: 1.47235 cumulative IPC: 1.47235 (Simulation time: 0 hr 7 min 5 sec) 
Heartbeat CPU 7 instructions: 20000000 cycles: 7771291 heartbeat IPC: 2.64622 cumulative IPC: 2.57358 (Simulation time: 0 hr 8 min 8 sec) 
Heartbeat CPU 4 instructions: 20000000 cycles: 8232910 heartbeat IPC: 2.43191 cumulative IPC: 2.42927 (Simulation time: 0 hr 8 min 38 sec) 
Heartbeat CPU 3 instructions: 20000000 cycles: 8569204 heartbeat IPC: 2.33155 cumulative IPC: 2.33394 (Simulation time: 0 hr 8 min 59 sec) 
Heartbeat CPU 0 instructions: 20000000 cycles: 9267905 heartbeat IPC: 2.21675 cumulative IPC: 2.15798 (Simulation time: 0 hr 9 min 44 sec) 
Heartbeat CPU 1 instructions: 20000000 cycles: 10549860 heartbeat IPC: 1.89539 cumulative IPC: 1.89576 (Simulation time: 0 hr 11 min 4 sec) 
Heartbeat CPU 2 instructions: 20000000 cycles: 11275984 heartbeat IPC: 1.76539 cumulative IPC: 1.77368 (Simulation time: 0 hr 11 min 52 sec) 
Heartbeat CPU 5 instructions: 20000000 cycles: 11601453 heartbeat IPC: 1.72422 cumulative IPC: 1.72392 (Simulation time: 0 hr 12 min 12 sec) 
Heartbeat CPU 7 instructions: 30000000 cycles: 11744424 heartbeat IPC: 2.51691 cumulative IPC: 0.851468 (Simulation time: 0 hr 12 min 21 sec) 
Heartbeat CPU 4 instructions: 30000002 cycles: 12343348 heartbeat IPC: 2.43283 cumulative IPC: 0.810153 (Simulation time: 0 hr 12 min 59 sec) 
Heartbeat CPU 3 instructions: 30000001 cycles: 12849007 heartbeat IPC: 2.33656 cumulative IPC: 0.77827 (Simulation time: 0 hr 13 min 29 sec) 
Heartbeat CPU 6 instructions: 20000000 cycles: 13337969 heartbeat IPC: 1.52763 cumulative IPC: 1.49948 (Simulation time: 0 hr 13 min 59 sec) 

Warmup complete CPU 0 instructions: 29240577 cycles: 13337970 (Simulation time: 0 hr 13 min 59 sec) 
Warmup complete CPU 1 instructions: 25285658 cycles: 13337970 (Simulation time: 0 hr 13 min 59 sec) 
Warmup complete CPU 2 instructions: 23681536 cycles: 13337970 (Simulation time: 0 hr 13 min 59 sec) 
Warmup complete CPU 3 instructions: 31142402 cycles: 13337970 (Simulation time: 0 hr 13 min 59 sec) 
Warmup complete CPU 4 instructions: 32418155 cycles: 13337970 (Simulation time: 0 hr 13 min 59 sec) 
Warmup complete CPU 5 instructions: 22992881 cycles: 13337970 (Simulation time: 0 hr 13 min 59 sec) 
Warmup complete CPU 6 instructions: 20000001 cycles: 13337970 (Simulation time: 0 hr 13 min 59 sec) 
Warmup complete CPU 7 instructions: 34262265 cycles: 13337969 (Simulation time: 0 hr 13 min 59 sec) 

Heartbeat CPU 0 instructions: 30000000 cycles: 14310987 heartbeat IPC: 1.98291 cumulative IPC: 0.780483 (Simulation time: 0 hr 14 min 34 sec) 
Heartbeat CPU 1 instructions: 30000003 cycles: 17880528 heartbeat IPC: 1.36413 cumulative IPC: 1.03782 (Simulation time: 0 hr 16 min 35 sec) 
Heartbeat CPU 7 instructions: 40000000 cycles: 19123802 heartbeat IPC: 1.35513 cumulative IPC: 0.991687 (Simulation time: 0 hr 17 min 19 sec) 
Heartbeat CPU 5 instructions: 30000001 cycles: 20458545 heartbeat IPC: 1.12904 cumulative IPC: 0.984067 (Simulation time: 0 hr 18 min 5 sec) 
Heartbeat CPU 4 instructions: 40000000 cycles: 20671965 heartbeat IPC: 1.20068 cumulative IPC: 1.03379 (Simulation time: 0 hr 18 min 13 sec) 
Heartbeat CPU 0 instructions: 40000000 cycles: 23100127 heartbeat IPC: 1.13777 cumulative IPC: 1.10216 (Simulation time: 0 hr 19 min 40 sec) 
Heartbeat CPU 3 instructions: 40000000 cycles: 24189609 heartbeat IPC: 0.881787 cumulative IPC: 0.816245 (Simulation time: 0 hr 20 min 19 sec) 
Heartbeat CPU 1 instructions: 40000000 cycles: 26953227 heartbeat IPC: 1.10221 cumulative IPC: 1.08072 (Simulation time: 0 hr 21 min 56 sec) 
Heartbeat CPU 7 instructions: 50000000 cycles: 28868576 heartbeat IPC: 1.02619 cumulative IPC: 1.01334 (Simulation time: 0 hr 23 min 7 sec) 
Heartbeat CPU 4 instructions: 50000001 cycles: 29898299 heartbeat IPC: 1.08385 cumulative IPC: 1.06168 (Simulation time: 0 hr 23 min 44 sec) 
Heartbeat CPU 5 instructions: 40000000 cycles: 30495413 heartbeat IPC: 0.996327 cumulative IPC: 0.991239 (Simulation time: 0 hr 24 min 6 sec) 
Heartbeat CPU 0 instructions: 50000002 cycles: 31873374 heartbeat IPC: 1.13983 cumulative IPC: 1.11999 (Simulation time: 0 hr 24 min 51 sec) 
Heartbeat CPU 1 instructions: 50000003 cycles: 36498713 heartbeat IPC: 1.04762 cumulative IPC: 1.06708 (Simulation time: 0 hr 27 min 27 sec) 
Heartbeat CPU 3 instructions: 50000003 cycles: 36672702 heartbeat IPC: 0.801084 cumulative IPC: 0.808134 (Simulation time: 0 hr 27 min 34 sec) 
Heartbeat CPU 4 instructions: 60000000 cycles: 39489749 heartbeat IPC: 1.0426 cumulative IPC: 1.05468 (Simulation time: 0 hr 29 min 16 sec) 
Heartbeat CPU 7 instructions: 60000000 cycles: 39882543 heartbeat IPC: 0.907938 cumulative IPC: 0.969604 (Simulation time: 0 hr 29 min 31 sec) 
Heartbeat CPU 5 instructions: 50000003 cycles: 40702877 heartbeat IPC: 0.979676 cumulative IPC: 0.986925 (Simulation time: 0 hr 30 min 2 sec) 
Heartbeat CPU 0 instructions: 60000000 cycles: 41174673 heartbeat IPC: 1.07512 cumulative IPC: 1.105 (Simulation time: 0 hr 30 min 20 sec) 
Heartbeat CPU 1 instructions: 60000000 cycles: 45848019 heartbeat IPC: 1.0696 cumulative IPC: 1.0678 (Simulation time: 0 hr 33 min 6 sec) 
Heartbeat CPU 6 instructions: 30000001 cycles: 47318111 heartbeat IPC: 0.29429 cumulative IPC: 0.29429 (Simulation time: 0 hr 33 min 55 sec) 
Heartbeat CPU 4 instructions: 70000002 cycles: 48889273 heartbeat IPC: 1.06388 cumulative IPC: 1.05712 (Simulation time: 0 hr 34 min 50 sec) 
Heartbeat CPU 3 instructions: 60000000 cycles: 48894259 heartbeat IPC: 0.818226 cumulative IPC: 0.811603 (Simulation time: 0 hr 34 min 51 sec) 
Heartbeat CPU 0 instructions: 70000001 cycles: 49431244 heartbeat IPC: 1.21116 cumulative IPC: 1.12928 (Simulation time: 0 hr 35 min 9 sec) 
Heartbeat CPU 7 instructions: 70000000 cycles: 49654219 heartbeat IPC: 1.02337 cumulative IPC: 0.98407 (Simulation time: 0 hr 35 min 16 sec) 
Heartbeat CPU 2 instructions: 30000000 cycles: 50467127 heartbeat IPC: 0.25516 cumulative IPC: 0.170175 (Simulation time: 0 hr 35 min 44 sec) 
Heartbeat CPU 5 instructions: 60000000 cycles: 52318002 heartbeat IPC: 0.860946 cumulative IPC: 0.949387 (Simulation time: 0 hr 36 min 51 sec) 
Heartbeat CPU 1 instructions: 70000001 cycles: 55788132 heartbeat IPC: 1.00602 cumulative IPC: 1.05334 (Simulation time: 0 hr 38 min 44 sec) 
Heartbeat CPU 4 instructions: 80000000 cycles: 57826203 heartbeat IPC: 1.11895 cumulative IPC: 1.06954 (Simulation time: 0 hr 39 min 53 sec) 
Heartbeat CPU 0 instructions: 80000000 cycles: 59684605 heartbeat IPC: 0.97529 cumulative IPC: 1.09521 (Simulation time: 0 hr 40 min 55 sec) 
Heartbeat CPU 7 instructions: 80000000 cycles: 60721967 heartbeat IPC: 0.903526 cumulative IPC: 0.965257 (Simulation time: 0 hr 41 min 29 sec) 
Heartbeat CPU 3 instructions: 70000003 cycles: 61525603 heartbeat IPC: 0.791682 cumulative IPC: 0.806381 (Simulation time: 0 hr 41 min 56 sec) 
Heartbeat CPU 5 instructions: 70000000 cycles: 64176466 heartbeat IPC: 0.84328 cumulative IPC: 0.924636 (Simulation time: 0 hr 43 min 20 sec) 
Heartbeat CPU 1 instructions: 80000000 cycles: 65270161 heartbeat IPC: 1.05463 cumulative IPC: 1.05357 (Simulation time: 0 hr 43 min 56 sec) 
Heartbeat CPU 0 instructions: 90000003 cycles: 67918587 heartbeat IPC: 1.21448 cumulative IPC: 1.11321 (Simulation time: 0 hr 45 min 23 sec) 
Heartbeat CPU 4 instructions: 90000002 cycles: 68693722 heartbeat IPC: 0.920173 cumulative IPC: 1.04021 (Simulation time: 0 hr 45 min 47 sec) 
Heartbeat CPU 7 instructions: 90000002 cycles: 70525987 heartbeat IPC: 1.01999 cumulative IPC: 0.97464 (Simulation time: 0 hr 46 min 40 sec) 
Heartbeat CPU 3 instructions: 80000000 cycles: 73752158 heartbeat IPC: 0.817892 cumulative IPC: 0.808711 (Simulation time: 0 hr 48 min 16 sec) 
Heartbeat CPU 1 instructions: 90000000 cycles: 75084384 heartbeat IPC: 1.01893 cumulative IPC: 1.04807 (Simulation time: 0 hr 49 min 2 sec) 
Heartbeat CPU 5 instructions: 80000000 cycles: 75888435 heartbeat IPC: 0.853827 cumulative IPC: 0.911378 (Simulation time: 0 hr 49 min 30 sec) 
Heartbeat CPU 0 instructions: 100000000 cycles: 78394180 heartbeat IPC: 0.9546 cumulative IPC: 1.08767 (Simulation time: 0 hr 50 min 50 sec) 
Heartbeat CPU 4 instructions: 100000000 cycles: 78777976 heartbeat IPC: 0.991645 cumulative IPC: 1.03273 (Simulation time: 0 hr 51 min 4 sec) 
Heartbeat CPU 6 instructions: 40000000 cycles: 80599336 heartbeat IPC: 0.30047 cumulative IPC: 0.297347 (Simulation time: 0 hr 52 min 4 sec) 
Heartbeat CPU 7 instructions: 100000000 cycles: 81384697 heartbeat IPC: 0.92092 cumulative IPC: 0.966068 (Simulation time: 0 hr 52 min 30 sec) 
Heartbeat CPU 1 instructions: 100000000 cycles: 85022562 heartbeat IPC: 1.00622 cumulative IPC: 1.04227 (Simulation time: 0 hr 54 min 16 sec) 
Heartbeat CPU 3 instructions: 90000000 cycles: 86679220 heartbeat IPC: 0.773571 cumulative IPC: 0.802517 (Simulation time: 0 hr 55 min 5 sec) 
Heartbeat CPU 0 instructions: 110000003 cycles: 87103775 heartbeat IPC: 1.14816 cumulative IPC: 1.09481 (Simulation time: 0 hr 55 min 18 sec) 
Heartbeat CPU 4 instructions: 110000001 cycles: 88367794 heartbeat IPC: 1.04277 cumulative IPC: 1.03401 (Simulation time: 0 hr 55 min 56 sec) 
Heartbeat CPU 5 instructions: 90000000 cycles: 88608561 heartbeat IPC: 0.786156 cumulative IPC: 0.890216 (Simulation time: 0 hr 56 min 2 sec) 
Heartbeat CPU 7 instructions: 110000001 cycles: 93504554 heartbeat IPC: 0.825092 cumulative IPC: 0.944754 (Simulation time: 0 hr 58 min 23 sec) 
Heartbeat CPU 2 instructions: 40000000 cycles: 93716639 heartbeat IPC: 0.231216 cumulative IPC: 0.20302 (Simulation time: 0 hr 58 min 29 sec) 
Heartbeat CPU 1 instructions: 110000000 cycles: 95688409 heartbeat IPC: 0.937572 cumulative IPC: 1.02871 (Simulation time: 0 hr 59 min 31 sec) 
Heartbeat CPU 4 instructions: 120000000 cycles: 98235890 heartbeat IPC: 1.01337 cumulative IPC: 1.03161 (Simulation time: 1 hr 0 min 49 sec) 
Heartbeat CPU 3 instructions: 100000000 cycles: 99088341 heartbeat IPC: 0.805859 cumulative IPC: 0.803001 (Simulation time: 1 hr 1 min 17 sec) 
Heartbeat CPU 5 instructions: 100000000 cycles: 101129871 heartbeat IPC: 0.798638 cumulative IPC: 0.877155 (Simulation time: 1 hr 2 min 24 sec) 
Heartbeat CPU 0 instructions: 120000000 cycles: 102916346 heartbeat IPC: 0.632408 cumulative IPC: 1.01318 (Simulation time: 1 hr 3 min 20 sec) 
Heartbeat CPU 7 instructions: 120000000 cycles: 103439322 heartbeat IPC: 1.00657 cumulative IPC: 0.95157 (Simulation time: 1 hr 3 min 37 sec) 
Heartbeat CPU 1 instructions: 120000000 cycles: 104428270 heartbeat IPC: 1.14418 cumulative IPC: 1.03979 (Simulation time: 1 hr 4 min 7 sec) 
Heartbeat CPU 6 instructions: 50000000 cycles: 107814465 heartbeat IPC: 0.367443 cumulative IPC: 0.317539 (Simulation time: 1 hr 5 min 46 sec) 
Heartbeat CPU 4 instructions: 130000001 cycles: 108336167 heartbeat IPC: 0.990072 cumulative IPC: 1.0272 (Simulation time: 1 hr 6 min 2 sec) 
Finished CPU 1 instructions: 100000000 cycles: 95869680 cumulative IPC: 1.04308 (Simulation time: 1 hr 6 min 27 sec) 
Heartbeat CPU 3 instructions: 110000001 cycles: 110919940 heartbeat IPC: 0.845194 cumulative IPC: 0.808116 (Simulation time: 1 hr 7 min 17 sec) 
Finished CPU 4 instructions: 100000001 cycles: 98772963 cumulative IPC: 1.01242 (Simulation time: 1 hr 7 min 48 sec) 
Heartbeat CPU 5 instructions: 110000003 cycles: 113223464 heartbeat IPC: 0.826884 cumulative IPC: 0.871069 (Simulation time: 1 hr 8 min 21 sec) 
Heartbeat CPU 7 instructions: 130000001 cycles: 113606821 heartbeat IPC: 0.983526 cumulative IPC: 0.95481 (Simulation time: 1 hr 8 min 32 sec) 
Heartbeat CPU 1 instructions: 130000003 cycles: 113728314 heartbeat IPC: 1.07526 cumulative IPC: 1.04307 (Simulation time: 1 hr 8 min 36 sec) 
Finished CPU 0 instructions: 100000000 cycles: 103908787 cumulative IPC: 0.962383 (Simulation time: 1 hr 10 min 24 sec) 
Heartbeat CPU 4 instructions: 140000000 cycles: 117358471 heartbeat IPC: 1.10836 cumulative IPC: 1.03424 (Simulation time: 1 hr 10 min 27 sec) 
Finished CPU 7 instructions: 100000003 cycles: 104813634 cumulative IPC: 0.954074 (Simulation time: 1 hr 10 min 51 sec) 
Heartbeat CPU 0 instructions: 130000000 cycles: 118418167 heartbeat IPC: 0.645086 cumulative IPC: 0.958881 (Simulation time: 1 hr 11 min 0 sec) 
Heartbeat CPU 1 instructions: 140000000 cycles: 122701980 heartbeat IPC: 1.11437 cumulative IPC: 1.04892 (Simulation time: 1 hr 13 min 9 sec) 
Heartbeat CPU 3 instructions: 120000000 cycles: 123280192 heartbeat IPC: 0.809045 cumulative IPC: 0.808221 (Simulation time: 1 hr 13 min 27 sec) 
Heartbeat CPU 7 instructions: 140000000 cycles: 123708814 heartbeat IPC: 0.989904 cumulative IPC: 0.958022 (Simulation time: 1 hr 13 min 40 sec) 
Heartbeat CPU 5 instructions: 120000000 cycles: 124339296 heartbeat IPC: 0.899617 cumulative IPC: 0.873928 (Simulation time: 1 hr 13 min 59 sec) 
Heartbeat CPU 4 instructions: 150000001 cycles: 125328320 heartbeat IPC: 1.25473 cumulative IPC: 1.04993 (Simulation time: 1 hr 14 min 28 sec) 
Finished CPU 5 instructions: 100000003 cycles: 114478249 cumulative IPC: 0.873528 (Simulation time: 1 hr 15 min 43 sec) 
Heartbeat CPU 6 instructions: 60000000 cycles: 131630384 heartbeat IPC: 0.419887 cumulative IPC: 0.338145 (Simulation time: 1 hr 17 min 31 sec) 
Heartbeat CPU 1 instructions: 150000001 cycles: 131880212 heartbeat IPC: 1.08953 cumulative IPC: 1.05207 (Simulation time: 1 hr 17 min 38 sec) 
Heartbeat CPU 7 instructions: 150000001 cycles: 133842831 heartbeat IPC: 0.986776 cumulative IPC: 0.96044 (Simulation time: 1 hr 18 min 34 sec) 
Heartbeat CPU 0 instructions: 140000000 cycles: 133896152 heartbeat IPC: 0.646079 cumulative IPC: 0.918722 (Simulation time: 1 hr 18 min 36 sec) 
Heartbeat CPU 4 instructions: 160000000 cycles: 134844440 heartbeat IPC: 1.05085 cumulative IPC: 1.05 (Simulation time: 1 hr 19 min 2 sec) 
Heartbeat CPU 5 instructions: 130000001 cycles: 135968650 heartbeat IPC: 0.859893 cumulative IPC: 0.872597 (Simulation time: 1 hr 19 min 34 sec) 
Heartbeat CPU 3 instructions: 130000000 cycles: 137565757 heartbeat IPC: 0.700007 cumulative IPC: 0.795777 (Simulation time: 1 hr 20 min 23 sec) 
Finished CPU 3 instructions: 100000000 cycles: 125795799 cumulative IPC: 0.794939 (Simulation time: 1 hr 21 min 13 sec) 
Heartbeat CPU 1 instructions: 160000000 cycles: 140916476 heartbeat IPC: 1.10665 cumulative IPC: 1.05593 (Simulation time: 1 hr 22 min 6 sec) 
Heartbeat CPU 7 instructions: 160000000 cycles: 144329613 heartbeat IPC: 0.953581 cumulative IPC: 0.959891 (Simulation time: 1 hr 23 min 46 sec) 
Heartbeat CPU 4 instructions: 170000001 cycles: 144944966 heartbeat IPC: 0.990048 cumulative IPC: 1.0454 (Simulation time: 1 hr 24 min 5 sec) 
Heartbeat CPU 5 instructions: 140000000 cycles: 148543599 heartbeat IPC: 0.795232 cumulative IPC: 0.865401 (Simulation time: 1 hr 25 min 43 sec) 
Heartbeat CPU 1 instructions: 170000000 cycles: 150301314 heartbeat IPC: 1.06555 cumulative IPC: 1.05659 (Simulation time: 1 hr 26 min 28 sec) 
Heartbeat CPU 0 instructions: 150000001 cycles: 151698363 heartbeat IPC: 0.561728 cumulative IPC: 0.872789 (Simulation time: 1 hr 27 min 2 sec) 
Heartbeat CPU 3 instructions: 140000000 cycles: 154138187 heartbeat IPC: 0.603412 cumulative IPC: 0.773135 (Simulation time: 1 hr 27 min 59 sec) 
Heartbeat CPU 7 instructions: 170000001 cycles: 155887497 heartbeat IPC: 0.86521 cumulative IPC: 0.952215 (Simulation time: 1 hr 28 min 46 sec) 
Heartbeat CPU 4 instructions: 180000000 cycles: 156578487 heartbeat IPC: 0.859585 cumulative IPC: 1.03031 (Simulation time: 1 hr 29 min 4 sec) 
Heartbeat CPU 1 instructions: 180000000 cycles: 160864075 heartbeat IPC: 0.946722 cumulative IPC: 1.04873 (Simulation time: 1 hr 31 min 1 sec) 
Heartbeat CPU 5 instructions: 150000002 cycles: 162555374 heartbeat IPC: 0.713686 cumulative IPC: 0.851155 (Simulation time: 1 hr 31 min 47 sec) 
Heartbeat CPU 0 instructions: 160000000 cycles: 165075236 heartbeat IPC: 0.747559 cumulative IPC: 0.861749 (Simulation time: 1 hr 32 min 56 sec) 
Heartbeat CPU 7 instructions: 180000000 cycles: 166793608 heartbeat IPC: 0.916917 cumulative IPC: 0.949706 (Simulation time: 1 hr 33 min 44 sec) 
Heartbeat CPU 4 instructions: 190000002 cycles: 166794880 heartbeat IPC: 0.978819 cumulative IPC: 1.02688 (Simulation time: 1 hr 33 min 44 sec) 
Heartbeat CPU 6 instructions: 70000000 cycles: 170022667 heartbeat IPC: 0.260469 cumulative IPC: 0.319112 (Simulation time: 1 hr 35 min 10 sec) 
Heartbeat CPU 1 instructions: 190000002 cycles: 171163091 heartbeat IPC: 0.970967 cumulative IPC: 1.04365 (Simulation time: 1 hr 35 min 39 sec) 
Heartbeat CPU 3 instructions: 150000001 cycles: 174412121 heartbeat IPC: 0.493244 cumulative IPC: 0.737906 (Simulation time: 1 hr 36 min 59 sec) 
Heartbeat CPU 5 instructions: 160000000 cycles: 175726787 heartbeat IPC: 0.75922 cumulative IPC: 0.843698 (Simulation time: 1 hr 37 min 29 sec) 
Heartbeat CPU 4 instructions: 200000000 cycles: 178247076 heartbeat IPC: 0.873195 cumulative IPC: 1.01621 (Simulation time: 1 hr 38 min 32 sec) 
Heartbeat CPU 7 instructions: 190000000 cycles: 179718502 heartbeat IPC: 0.773701 cumulative IPC: 0.936033 (Simulation time: 1 hr 39 min 16 sec) 
Heartbeat CPU 0 instructions: 170000002 cycles: 182206822 heartbeat IPC: 0.583717 cumulative IPC: 0.833543 (Simulation time: 1 hr 40 min 30 sec) 
Heartbeat CPU 1 instructions: 200000000 cycles: 182555525 heartbeat IPC: 0.877775 cumulative IPC: 1.03248 (Simulation time: 1 hr 40 min 40 sec) 
Heartbeat CPU 5 instructions: 170000003 cycles: 187912164 heartbeat IPC: 0.820656 cumulative IPC: 0.84209 (Simulation time: 1 hr 43 min 21 sec) 
Heartbeat CPU 4 instructions: 210000001 cycles: 188266234 heartbeat IPC: 0.998088 cumulative IPC: 1.01517 (Simulation time: 1 hr 43 min 31 sec) 
Heartbeat CPU 7 instructions: 200000000 cycles: 190376709 heartbeat IPC: 0.938244 cumulative IPC: 0.936166 (Simulation time: 1 hr 44 min 37 sec) 
Heartbeat CPU 0 instructions: 180000000 cycles: 191441127 heartbeat IPC: 1.08292 cumulative IPC: 0.846473 (Simulation time: 1 hr 45 min 9 sec) 
Heartbeat CPU 1 instructions: 210000002 cycles: 192138280 heartbeat IPC: 1.04354 cumulative IPC: 1.03308 (Simulation time: 1 hr 45 min 30 sec) 
Heartbeat CPU 6 instructions: 80000000 cycles: 194240469 heartbeat IPC: 0.412919 cumulative IPC: 0.33167 (Simulation time: 1 hr 46 min 33 sec) 
Heartbeat CPU 4 instructions: 220000000 cycles: 198075209 heartbeat IPC: 1.01947 cumulative IPC: 1.0154 (Simulation time: 1 hr 48 min 28 sec) 
Heartbeat CPU 3 instructions: 160000000 cycles: 198176922 heartbeat IPC: 0.42079 cumulative IPC: 0.697134 (Simulation time: 1 hr 48 min 31 sec) 
Heartbeat CPU 5 instructions: 180000000 cycles: 199346238 heartbeat IPC: 0.874579 cumulative IPC: 0.844087 (Simulation time: 1 hr 49 min 7 sec) 
Heartbeat CPU 0 instructions: 190000001 cycles: 200239824 heartbeat IPC: 1.13653 cumulative IPC: 0.860128 (Simulation time: 1 hr 49 min 34 sec) 
Heartbeat CPU 7 instructions: 210000002 cycles: 201626075 heartbeat IPC: 0.888939 cumulative IPC: 0.933345 (Simulation time: 1 hr 50 min 15 sec) 
Heartbeat CPU 1 instructions: 220000000 cycles: 201743354 heartbeat IPC: 1.04112 cumulative IPC: 1.03349 (Simulation time: 1 hr 50 min 18 sec) 
Heartbeat CPU 4 instructions: 230000003 cycles: 207942082 heartbeat IPC: 1.01349 cumulative IPC: 1.0153 (Simulation time: 1 hr 53 min 22 sec) 
Heartbeat CPU 0 instructions: 200000000 cycles: 209645733 heartbeat IPC: 1.06316 cumulative IPC: 0.869856 (Simulation time: 1 hr 54 min 15 sec) 
Heartbeat CPU 5 instructions: 190000002 cycles: 210809268 heartbeat IPC: 0.87237 cumulative IPC: 0.845729 (Simulation time: 1 hr 54 min 51 sec) 
Heartbeat CPU 1 instructions: 230000002 cycles: 211346585 heartbeat IPC: 1.04132 cumulative IPC: 1.03387 (Simulation time: 1 hr 55 min 6 sec) 
Heartbeat CPU 2 instructions: 50000000 cycles: 211559771 heartbeat IPC: 0.0848586 cumulative IPC: 0.132773 (Simulation time: 1 hr 55 min 12 sec) 
Heartbeat CPU 7 instructions: 220000000 cycles: 212465975 heartbeat IPC: 0.922518 cumulative IPC: 0.932755 (Simulation time: 1 hr 55 min 39 sec) 
Heartbeat CPU 6 instructions: 90000003 cycles: 215146609 heartbeat IPC: 0.478329 cumulative IPC: 0.346863 (Simulation time: 1 hr 56 min 57 sec) 
Heartbeat CPU 4 instructions: 240000000 cycles: 217790327 heartbeat IPC: 1.01541 cumulative IPC: 1.01531 (Simulation time: 1 hr 58 min 13 sec) 
Heartbeat CPU 0 instructions: 210000003 cycles: 218249541 heartbeat IPC: 1.16228 cumulative IPC: 0.882134 (Simulation time: 1 hr 58 min 26 sec) 
Heartbeat CPU 1 instructions: 240000000 cycles: 220893403 heartbeat IPC: 1.04747 cumulative IPC: 1.03449 (Simulation time: 1 hr 59 min 48 sec) 
Heartbeat CPU 5 instructions: 200000000 cycles: 222551904 heartbeat IPC: 0.851597 cumulative IPC: 0.846058 (Simulation time: 2 hr 0 min 40 sec) 
Heartbeat CPU 7 instructions: 230000003 cycles: 223849716 heartbeat IPC: 0.878446 cumulative IPC: 0.929819 (Simulation time: 2 hr 1 min 22 sec) 
Heartbeat CPU 3 instructions: 170000002 cycles: 224768188 heartbeat IPC: 0.376063 cumulative IPC: 0.656754 (Simulation time: 2 hr 1 min 53 sec) 
Heartbeat CPU 0 instructions: 220000000 cycles: 226971995 heartbeat IPC: 1.14647 cumulative IPC: 0.892926 (Simulation time: 2 hr 3 min 4 sec) 
Heartbeat CPU 4 instructions: 250000003 cycles: 227358583 heartbeat IPC: 1.04512 cumulative IPC: 1.01664 (Simulation time: 2 hr 3 min 16 sec) 
Heartbeat CPU 1 instructions: 250000003 cycles: 230428768 heartbeat IPC: 1.04873 cumulative IPC: 1.03512 (Simulation time: 2 hr 4 min 57 sec) 
Heartbeat CPU 7 instructions: 240000000 cycles: 234770758 heartbeat IPC: 0.915663 cumulative IPC: 0.92912 (Simulation time: 2 hr 7 min 4 sec) 
Heartbeat CPU 5 instructions: 210000000 cycles: 234779914 heartbeat IPC: 0.817795 cumulative IPC: 0.844497 (Simulation time: 2 hr 7 min 4 sec) 
Heartbeat CPU 4 instructions: 260000000 cycles: 237049796 heartbeat IPC: 1.03186 cumulative IPC: 1.0173 (Simulation time: 2 hr 8 min 5 sec) 
Heartbeat CPU 0 instructions: 230000000 cycles: 238468328 heartbeat IPC: 0.869843 cumulative IPC: 0.891747 (Simulation time: 2 hr 8 min 47 sec) 
Heartbeat CPU 1 instructions: 260000000 cycles: 240766948 heartbeat IPC: 0.967288 cumulative IPC: 1.03203 (Simulation time: 2 hr 10 min 3 sec) 
Heartbeat CPU 7 instructions: 250000001 cycles: 246572283 heartbeat IPC: 0.847348 cumulative IPC: 0.924983 (Simulation time: 2 hr 12 min 46 sec) 
Heartbeat CPU 6 instructions: 100000000 cycles: 247926267 heartbeat IPC: 0.305067 cumulative IPC: 0.341023 (Simulation time: 2 hr 13 min 26 sec) 
Heartbeat CPU 5 instructions: 220000000 cycles: 248325080 heartbeat IPC: 0.738271 cumulative IPC: 0.838374 (Simulation time: 2 hr 13 min 38 sec) 
Heartbeat CPU 4 instructions: 270000001 cycles: 248530264 heartbeat IPC: 0.871045 cumulative IPC: 1.01016 (Simulation time: 2 hr 13 min 44 sec) 
Heartbeat CPU 0 instructions: 240000000 cycles: 250425082 heartbeat IPC: 0.836347 cumulative IPC: 0.888954 (Simulation time: 2 hr 14 min 42 sec) 
Heartbeat CPU 1 instructions: 270000001 cycles: 251142784 heartbeat IPC: 0.963778 cumulative IPC: 1.02906 (Simulation time: 2 hr 15 min 4 sec) 
Heartbeat CPU 3 instructions: 180000000 cycles: 254600749 heartbeat IPC: 0.335204 cumulative IPC: 0.616994 (Simulation time: 2 hr 16 min 54 sec) 
Heartbeat CPU 7 instructions: 260000000 cycles: 258122319 heartbeat IPC: 0.865798 cumulative IPC: 0.92219 (Simulation time: 2 hr 18 min 55 sec) 
Heartbeat CPU 4 instructions: 280000000 cycles: 258811089 heartbeat IPC: 0.972685 cumulative IPC: 1.00859 (Simulation time: 2 hr 19 min 16 sec) 
Heartbeat CPU 5 instructions: 230000001 cycles: 260351355 heartbeat IPC: 0.831513 cumulative IPC: 0.83804 (Simulation time: 2 hr 20 min 2 sec) 
Heartbeat CPU 1 instructions: 280000000 cycles: 260769325 heartbeat IPC: 1.03879 cumulative IPC: 1.02943 (Simulation time: 2 hr 20 min 15 sec) 
Heartbeat CPU 0 instructions: 250000003 cycles: 264870010 heartbeat IPC: 0.692285 cumulative IPC: 0.877659 (Simulation time: 2 hr 22 min 16 sec) 
Heartbeat CPU 4 instructions: 290000000 cycles: 268565214 heartbeat IPC: 1.02521 cumulative IPC: 1.00923 (Simulation time: 2 hr 24 min 12 sec) 
Heartbeat CPU 7 instructions: 270000000 cycles: 269734484 heartbeat IPC: 0.861166 cumulative IPC: 0.919426 (Simulation time: 2 hr 24 min 48 sec) 
Heartbeat CPU 1 instructions: 290000002 cycles: 271745787 heartbeat IPC: 0.911041 cumulative IPC: 1.02441 (Simulation time: 2 hr 25 min 48 sec) 
Heartbeat CPU 5 instructions: 240000000 cycles: 273857843 heartbeat IPC: 0.740385 cumulative IPC: 0.832977 (Simulation time: 2 hr 26 min 44 sec) 
Heartbeat CPU 2 instructions: 60000000 cycles: 274504914 heartbeat IPC: 0.158868 cumulative IPC: 0.139062 (Simulation time: 2 hr 27 min 3 sec) 
Heartbeat CPU 0 instructions: 260000000 cycles: 276537095 heartbeat IPC: 0.857112 cumulative IPC: 0.876748 (Simulation time: 2 hr 28 min 8 sec) 
Heartbeat CPU 6 instructions: 110000000 cycles: 277588792 heartbeat IPC: 0.337126 cumulative IPC: 0.340586 (Simulation time: 2 hr 28 min 43 sec) 
Heartbeat CPU 4 instructions: 300000000 cycles: 278867308 heartbeat IPC: 0.970676 cumulative IPC: 1.00773 (Simulation time: 2 hr 29 min 22 sec) 
Heartbeat CPU 7 instructions: 280000000 cycles: 282034195 heartbeat IPC: 0.813027 cumulative IPC: 0.914556 (Simulation time: 2 hr 30 min 54 sec) 
Heartbeat CPU 1 instructions: 300000000 cycles: 282236367 heartbeat IPC: 0.953236 cumulative IPC: 1.02163 (Simulation time: 2 hr 31 min 1 sec) 
Heartbeat CPU 5 instructions: 250000003 cycles: 285908005 heartbeat IPC: 0.829865 cumulative IPC: 0.83284 (Simulation time: 2 hr 32 min 49 sec) 
Heartbeat CPU 0 instructions: 270000000 cycles: 286011488 heartbeat IPC: 1.05548 cumulative IPC: 0.882959 (Simulation time: 2 hr 32 min 52 sec) 
Heartbeat CPU 3 instructions: 190000000 cycles: 287054838 heartbeat IPC: 0.308128 cumulative IPC: 0.580372 (Simulation time: 2 hr 33 min 21 sec) 
Heartbeat CPU 4 instructions: 310000000 cycles: 289975777 heartbeat IPC: 0.900214 cumulative IPC: 1.00341 (Simulation time: 2 hr 34 min 34 sec) 
Heartbeat CPU 1 instructions: 310000001 cycles: 293280732 heartbeat IPC: 0.905439 cumulative IPC: 1.01704 (Simulation time: 2 hr 35 min 50 sec) 
Heartbeat CPU 7 instructions: 290000001 cycles: 294041370 heartbeat IPC: 0.832835 cumulative IPC: 0.91106 (Simulation time: 2 hr 36 min 6 sec) 
Heartbeat CPU 5 instructions: 260000000 cycles: 300229024 heartbeat IPC: 0.698274 cumulative IPC: 0.826122 (Simulation time: 2 hr 38 min 29 sec) 
Heartbeat CPU 4 instructions: 320000000 cycles: 300526493 heartbeat IPC: 0.947803 cumulative IPC: 1.00137 (Simulation time: 2 hr 38 min 37 sec) 
Heartbeat CPU 1 instructions: 320000000 cycles: 305526586 heartbeat IPC: 0.816603 cumulative IPC: 1.00864 (Simulation time: 2 hr 40 min 47 sec) 
Heartbeat CPU 0 instructions: 280000000 cycles: 306318051 heartbeat IPC: 0.492452 cumulative IPC: 0.855892 (Simulation time: 2 hr 41 min 9 sec) 
Heartbeat CPU 7 instructions: 300000000 cycles: 307211611 heartbeat IPC: 0.759287 cumulative IPC: 0.904258 (Simulation time: 2 hr 41 min 33 sec) 
Heartbeat CPU 4 instructions: 330000002 cycles: 309570073 heartbeat IPC: 1.10576 cumulative IPC: 1.00456 (Simulation time: 2 hr 42 min 28 sec) 
Heartbeat CPU 5 instructions: 270000000 cycles: 313869739 heartbeat IPC: 0.733099 cumulative IPC: 0.8219 (Simulation time: 2 hr 44 min 20 sec) 
Heartbeat CPU 1 instructions: 330000003 cycles: 316709995 heartbeat IPC: 0.894182 cumulative IPC: 1.00442 (Simulation time: 2 hr 45 min 26 sec) 
Heartbeat CPU 6 instructions: 120000000 cycles: 319076918 heartbeat IPC: 0.241033 cumulative IPC: 0.327076 (Simulation time: 2 hr 46 min 34 sec) 
Finished CPU 6 instructions: 100000001 cycles: 305738956 cumulative IPC: 0.327076 (Simulation time: 2 hr 46 min 34 sec) 
Heartbeat CPU 7 instructions: 310000000 cycles: 319397459 heartbeat IPC: 0.820624 cumulative IPC: 0.900929 (Simulation time: 2 hr 46 min 43 sec) 
Heartbeat CPU 3 instructions: 200000000 cycles: 319744326 heartbeat IPC: 0.305909 cumulative IPC: 0.55109 (Simulation time: 2 hr 46 min 53 sec) 
Heartbeat CPU 4 instructions: 340000000 cycles: 319811053 heartbeat IPC: 0.976469 cumulative IPC: 1.00362 (Simulation time: 2 hr 46 min 55 sec) 
Heartbeat CPU 0 instructions: 290000001 cycles: 322253977 heartbeat IPC: 0.627513 cumulative IPC: 0.844111 (Simulation time: 2 hr 48 min 7 sec) 
Heartbeat CPU 5 instructions: 280000000 cycles: 326192616 heartbeat IPC: 0.811499 cumulative IPC: 0.821491 (Simulation time: 2 hr 50 min 5 sec) 
Heartbeat CPU 1 instructions: 340000000 cycles: 326669560 heartbeat IPC: 1.00406 cumulative IPC: 1.00441 (Simulation time: 2 hr 50 min 20 sec) 
Heartbeat CPU 4 instructions: 350000000 cycles: 330112660 heartbeat IPC: 0.970722 cumulative IPC: 1.00255 (Simulation time: 2 hr 52 min 3 sec) 
Heartbeat CPU 7 instructions: 320000000 cycles: 331416043 heartbeat IPC: 0.832045 cumulative IPC: 0.898326 (Simulation time: 2 hr 52 min 41 sec) 
Heartbeat CPU 0 instructions: 300000000 cycles: 336690319 heartbeat IPC: 0.692696 cumulative IPC: 0.837351 (Simulation time: 2 hr 55 min 20 sec) 
Heartbeat CPU 1 instructions: 350000002 cycles: 336864190 heartbeat IPC: 0.980909 cumulative IPC: 1.00367 (Simulation time: 2 hr 55 min 25 sec) 
Heartbeat CPU 5 instructions: 290000000 cycles: 338659817 heartbeat IPC: 0.802105 cumulative IPC: 0.820748 (Simulation time: 2 hr 56 min 15 sec) 
Heartbeat CPU 4 instructions: 360000000 cycles: 341615767 heartbeat IPC: 0.86933 cumulative IPC: 0.99788 (Simulation time: 2 hr 57 min 40 sec) 
Heartbeat CPU 7 instructions: 330000001 cycles: 342738258 heartbeat IPC: 0.883219 cumulative IPC: 0.897807 (Simulation time: 2 hr 58 min 13 sec) 
Heartbeat CPU 3 instructions: 210000002 cycles: 347347000 heartbeat IPC: 0.362284 cumulative IPC: 0.535487 (Simulation time: 3 hr 0 min 14 sec) 
Heartbeat CPU 1 instructions: 360000000 cycles: 347391190 heartbeat IPC: 0.949938 cumulative IPC: 1.00198 (Simulation time: 3 hr 0 min 15 sec) 
Heartbeat CPU 2 instructions: 70000000 cycles: 349653299 heartbeat IPC: 0.13307 cumulative IPC: 0.137723 (Simulation time: 3 hr 1 min 10 sec) 
Heartbeat CPU 5 instructions: 300000000 cycles: 351797627 heartbeat IPC: 0.761162 cumulative IPC: 0.818435 (Simulation time: 3 hr 2 min 8 sec) 
Heartbeat CPU 4 instructions: 370000001 cycles: 352779886 heartbeat IPC: 0.895727 cumulative IPC: 0.99452 (Simulation time: 3 hr 2 min 34 sec) 
Heartbeat CPU 7 instructions: 340000000 cycles: 355210302 heartbeat IPC: 0.801793 cumulative IPC: 0.894304 (Simulation time: 3 hr 3 min 41 sec) 
Heartbeat CPU 0 instructions: 310000002 cycles: 355245662 heartbeat IPC: 0.538928 cumulative IPC: 0.821156 (Simulation time: 3 hr 3 min 42 sec) 
Heartbeat CPU 1 instructions: 370000000 cycles: 358151725 heartbeat IPC: 0.929322 cumulative IPC: 0.999712 (Simulation time: 3 hr 5 min 4 sec) 
Heartbeat CPU 6 instructions: 130000003 cycles: 358979663 heartbeat IPC: 0.250609 cumulative IPC: 0.318249 (Simulation time: 3 hr 5 min 29 sec) 
Heartbeat CPU 4 instructions: 380000000 cycles: 363266157 heartbeat IPC: 0.953628 cumulative IPC: 0.993295 (Simulation time: 3 hr 7 min 37 sec) 
Heartbeat CPU 5 instructions: 310000002 cycles: 364035390 heartbeat IPC: 0.817143 cumulative IPC: 0.81839 (Simulation time: 3 hr 7 min 59 sec) 
Heartbeat CPU 7 instructions: 350000001 cycles: 366624512 heartbeat IPC: 0.876101 cumulative IPC: 0.893716 (Simulation time: 3 hr 9 min 13 sec) 
Heartbeat CPU 1 instructions: 380000000 cycles: 368179123 heartbeat IPC: 0.997268 cumulative IPC: 0.999643 (Simulation time: 3 hr 9 min 56 sec) 
Heartbeat CPU 0 instructions: 320000000 cycles: 369285949 heartbeat IPC: 0.712236 cumulative IPC: 0.816859 (Simulation time: 3 hr 10 min 29 sec) 
Heartbeat CPU 3 instructions: 220000000 cycles: 372801863 heartbeat IPC: 0.392852 cumulative IPC: 0.525387 (Simulation time: 3 hr 12 min 8 sec) 
Heartbeat CPU 4 instructions: 390000003 cycles: 373705136 heartbeat IPC: 0.957948 cumulative IPC: 0.992271 (Simulation time: 3 hr 12 min 32 sec) 
Heartbeat CPU 5 instructions: 320000000 cycles: 376464938 heartbeat IPC: 0.804534 cumulative IPC: 0.817915 (Simulation time: 3 hr 13 min 42 sec) 
Heartbeat CPU 7 instructions: 360000000 cycles: 378488426 heartbeat IPC: 0.842892 cumulative IPC: 0.892064 (Simulation time: 3 hr 14 min 38 sec) 
Heartbeat CPU 1 instructions: 390000001 cycles: 378547712 heartbeat IPC: 0.964451 cumulative IPC: 0.998644 (Simulation time: 3 hr 14 min 40 sec) 
Heartbeat CPU 4 instructions: 400000000 cycles: 384280609 heartbeat IPC: 0.945584 cumulative IPC: 0.99094 (Simulation time: 3 hr 17 min 18 sec) 
Heartbeat CPU 0 instructions: 330000001 cycles: 384467270 heartbeat IPC: 0.658704 cumulative IPC: 0.81039 (Simulation time: 3 hr 17 min 23 sec) 
Heartbeat CPU 1 instructions: 400000000 cycles: 388849144 heartbeat IPC: 0.970739 cumulative IPC: 0.997878 (Simulation time: 3 hr 19 min 20 sec) 
Heartbeat CPU 5 instructions: 330000001 cycles: 389103485 heartbeat IPC: 0.79123 cumulative IPC: 0.817018 (Simulation time: 3 hr 19 min 27 sec) 
Heartbeat CPU 7 instructions: 370000000 cycles: 391301299 heartbeat IPC: 0.780465 cumulative IPC: 0.888281 (Simulation time: 3 hr 20 min 30 sec) 
Heartbeat CPU 4 instructions: 410000001 cycles: 395484568 heartbeat IPC: 0.892542 cumulative IPC: 0.988055 (Simulation time: 3 hr 22 min 26 sec) 
Heartbeat CPU 6 instructions: 140000000 cycles: 397719873 heartbeat IPC: 0.25813 cumulative IPC: 0.31219 (Simulation time: 3 hr 23 min 30 sec) 
Heartbeat CPU 2 instructions: 80000000 cycles: 398581134 heartbeat IPC: 0.204383 cumulative IPC: 0.146189 (Simulation time: 3 hr 23 min 56 sec) 
Heartbeat CPU 3 instructions: 230000003 cycles: 398611244 heartbeat IPC: 0.387456 cumulative IPC: 0.516147 (Simulation time: 3 hr 23 min 56 sec) 
Heartbeat CPU 1 instructions: 410000000 cycles: 399698383 heartbeat IPC: 0.921724 cumulative IPC: 0.99574 (Simulation time: 3 hr 24 min 30 sec) 
Heartbeat CPU 5 instructions: 340000000 cycles: 401947043 heartbeat IPC: 0.7786 cumulative IPC: 0.815748 (Simulation time: 3 hr 25 min 31 sec) 
Heartbeat CPU 7 instructions: 380000000 cycles: 403054673 heartbeat IPC: 0.85082 cumulative IPC: 0.887151 (Simulation time: 3 hr 26 min 5 sec) 
Heartbeat CPU 4 instructions: 420000000 cycles: 406390473 heartbeat IPC: 0.916934 cumulative IPC: 0.986082 (Simulation time: 3 hr 27 min 46 sec) 
Heartbeat CPU 0 instructions: 340000000 cycles: 406419101 heartbeat IPC: 0.455543 cumulative IPC: 0.790573 (Simulation time: 3 hr 27 min 47 sec) 
Heartbeat CPU 1 instructions: 420000000 cycles: 410167077 heartbeat IPC: 0.955229 cumulative IPC: 0.994671 (Simulation time: 3 hr 29 min 52 sec) 
Heartbeat CPU 5 instructions: 350000002 cycles: 413723328 heartbeat IPC: 0.849164 cumulative IPC: 0.816731 (Simulation time: 3 hr 31 min 43 sec) 
Heartbeat CPU 0 instructions: 350000002 cycles: 414802512 heartbeat IPC: 1.19283 cumulative IPC: 0.798973 (Simulation time: 3 hr 32 min 15 sec) 
Heartbeat CPU 4 instructions: 430000003 cycles: 416493940 heartbeat IPC: 0.98976 cumulative IPC: 0.986174 (Simulation time: 3 hr 33 min 4 sec) 
Heartbeat CPU 1 instructions: 430000000 cycles: 420405690 heartbeat IPC: 0.976695 cumulative IPC: 0.994219 (Simulation time: 3 hr 34 min 59 sec) 
Heartbeat CPU 3 instructions: 240000000 cycles: 423397217 heartbeat IPC: 0.403454 cumulative IPC: 0.509335 (Simulation time: 3 hr 36 min 16 sec) 
Heartbeat CPU 4 instructions: 440000000 cycles: 425758383 heartbeat IPC: 1.0794 cumulative IPC: 0.988268 (Simulation time: 3 hr 37 min 25 sec) 
Heartbeat CPU 0 instructions: 360000000 cycles: 426468038 heartbeat IPC: 0.857226 cumulative IPC: 0.800618 (Simulation time: 3 hr 37 min 44 sec) 
Heartbeat CPU 5 instructions: 360000000 cycles: 426740937 heartbeat IPC: 0.76819 cumulative IPC: 0.815202 (Simulation time: 3 hr 37 min 51 sec) 
Heartbeat CPU 6 instructions: 150000000 cycles: 426960870 heartbeat IPC: 0.341986 cumulative IPC: 0.314296 (Simulation time: 3 hr 37 min 57 sec) 
Heartbeat CPU 7 instructions: 390000002 cycles: 430902593 heartbeat IPC: 0.359093 cumulative IPC: 0.851935 (Simulation time: 3 hr 39 min 50 sec) 
Heartbeat CPU 1 instructions: 440000000 cycles: 431138790 heartbeat IPC: 0.931697 cumulative IPC: 0.992613 (Simulation time: 3 hr 39 min 58 sec) 
Heartbeat CPU 0 instructions: 370000003 cycles: 434991541 heartbeat IPC: 1.17323 cumulative IPC: 0.80815 (Simulation time: 3 hr 41 min 58 sec) 
Heartbeat CPU 4 instructions: 450000000 cycles: 437811189 heartbeat IPC: 0.829682 cumulative IPC: 0.983765 (Simulation time: 3 hr 43 min 27 sec) 
Heartbeat CPU 5 instructions: 370000002 cycles: 438660253 heartbeat IPC: 0.838974 cumulative IPC: 0.815869 (Simulation time: 3 hr 43 min 52 sec) 
Heartbeat CPU 1 instructions: 450000000 cycles: 440444055 heartbeat IPC: 1.07466 cumulative IPC: 0.9944 (Simulation time: 3 hr 44 min 47 sec) 
Heartbeat CPU 7 instructions: 400000000 cycles: 443140930 heartbeat IPC: 0.817104 cumulative IPC: 0.850943 (Simulation time: 3 hr 46 min 13 sec) 
Heartbeat CPU 2 instructions: 90000000 cycles: 443211596 heartbeat IPC: 0.224062 cumulative IPC: 0.154274 (Simulation time: 3 hr 46 min 16 sec) 
Heartbeat CPU 0 instructions: 380000000 cycles: 445012887 heartbeat IPC: 0.99787 cumulative IPC: 0.812555 (Simulation time: 3 hr 47 min 13 sec) 
Heartbeat CPU 3 instructions: 250000001 cycles: 446188706 heartbeat IPC: 0.43876 cumulative IPC: 0.505619 (Simulation time: 3 hr 47 min 50 sec) 
Heartbeat CPU 4 instructions: 460000000 cycles: 447707943 heartbeat IPC: 1.01043 cumulative IPC: 0.984372 (Simulation time: 3 hr 48 min 36 sec) 
Heartbeat CPU 1 instructions: 460000000 cycles: 450007211 heartbeat IPC: 1.04568 cumulative IPC: 0.995523 (Simulation time: 3 hr 49 min 42 sec) 
Heartbeat CPU 5 instructions: 380000000 cycles: 450819042 heartbeat IPC: 0.82245 cumulative IPC: 0.816052 (Simulation time: 3 hr 50 min 5 sec) 
Heartbeat CPU 6 instructions: 160000000 cycles: 455072794 heartbeat IPC: 0.355721 cumulative IPC: 0.316932 (Simulation time: 3 hr 51 min 55 sec) 
Heartbeat CPU 7 instructions: 410000001 cycles: 455583273 heartbeat IPC: 0.803707 cumulative IPC: 0.849614 (Simulation time: 3 hr 52 min 7 sec) 
Heartbeat CPU 0 instructions: 390000001 cycles: 456395043 heartbeat IPC: 0.878568 cumulative IPC: 0.81425 (Simulation time: 3 hr 52 min 27 sec) 
Heartbeat CPU 4 instructions: 470000003 cycles: 457641573 heartbeat IPC: 1.00668 cumulative IPC: 0.984871 (Simulation time: 3 hr 53 min 2 sec) 
Heartbeat CPU 1 instructions: 470000000 cycles: 460572427 heartbeat IPC: 0.946502 cumulative IPC: 0.994365 (Simulation time: 3 hr 54 min 23 sec) 
Heartbeat CPU 5 instructions: 390000002 cycles: 463672336 heartbeat IPC: 0.778011 cumulative IPC: 0.814966 (Simulation time: 3 hr 55 min 50 sec) 
Heartbeat CPU 0 instructions: 400000000 cycles: 464657368 heartbeat IPC: 1.21031 cumulative IPC: 0.821501 (Simulation time: 3 hr 56 min 18 sec) 
Heartbeat CPU 4 instructions: 480000000 cycles: 467255142 heartbeat IPC: 1.0402 cumulative IPC: 0.986043 (Simulation time: 3 hr 57 min 32 sec) 
Heartbeat CPU 7 instructions: 420000000 cycles: 467997406 heartbeat IPC: 0.805533 cumulative IPC: 0.84841 (Simulation time: 3 hr 57 min 52 sec) 
Heartbeat CPU 3 instructions: 260000000 cycles: 469564565 heartbeat IPC: 0.427792 cumulative IPC: 0.501631 (Simulation time: 3 hr 58 min 36 sec) 
Heartbeat CPU 1 instructions: 480000000 cycles: 470148361 heartbeat IPC: 1.04428 cumulative IPC: 0.995412 (Simulation time: 3 hr 58 min 52 sec) 
Heartbeat CPU 5 instructions: 400000000 cycles: 475069324 heartbeat IPC: 0.877425 cumulative IPC: 0.816508 (Simulation time: 4 hr 1 min 7 sec) 
Heartbeat CPU 0 instructions: 410000000 cycles: 475113807 heartbeat IPC: 0.956349 cumulative IPC: 0.824555 (Simulation time: 4 hr 1 min 9 sec) 
Heartbeat CPU 4 instructions: 490000000 cycles: 477093635 heartbeat IPC: 1.01642 cumulative IPC: 0.986687 (Simulation time: 4 hr 2 min 3 sec) 
Heartbeat CPU 1 instructions: 490000003 cycles: 479766497 heartbeat IPC: 1.0397 cumulative IPC: 0.996325 (Simulation time: 4 hr 3 min 19 sec) 
Heartbeat CPU 7 instructions: 430000000 cycles: 480319934 heartbeat IPC: 0.811522 cumulative IPC: 0.847437 (Simulation time: 4 hr 3 min 35 sec) 
Heartbeat CPU 2 instructions: 100000000 cycles: 482999919 heartbeat IPC: 0.25133 cumulative IPC: 0.162497 (Simulation time: 4 hr 4 min 46 sec) 
Heartbeat CPU 0 instructions: 420000000 cycles: 483518014 heartbeat IPC: 1.18988 cumulative IPC: 0.831085 (Simulation time: 4 hr 4 min 58 sec) 
Heartbeat CPU 5 instructions: 410000002 cycles: 486897853 heartbeat IPC: 0.845414 cumulative IPC: 0.81723 (Simulation time: 4 hr 6 min 24 sec) 
Heartbeat CPU 6 instructions: 170000000 cycles: 487159444 heartbeat IPC: 0.311656 cumulative IPC: 0.316575 (Simulation time: 4 hr 6 min 29 sec) 
Heartbeat CPU 4 instructions: 500000000 cycles: 487858719 heartbeat IPC: 0.928929 cumulative IPC: 0.985377 (Simulation time: 4 hr 6 min 47 sec) 
Heartbeat CPU 1 instructions: 500000000 cycles: 489547771 heartbeat IPC: 1.02236 cumulative IPC: 0.99686 (Simulation time: 4 hr 7 min 31 sec) 
Heartbeat CPU 3 instructions: 270000000 cycles: 491372925 heartbeat IPC: 0.45854 cumulative IPC: 0.499666 (Simulation time: 4 hr 8 min 20 sec) 
Heartbeat CPU 7 instructions: 440000000 cycles: 492549443 heartbeat IPC: 0.817694 cumulative IPC: 0.846678 (Simulation time: 4 hr 8 min 51 sec) 
Heartbeat CPU 4 instructions: 510000001 cycles: 495538189 heartbeat IPC: 1.30217 cumulative IPC: 0.990422 (Simulation time: 4 hr 10 min 11 sec) 
Heartbeat CPU 5 instructions: 420000000 cycles: 498384262 heartbeat IPC: 0.870594 cumulative IPC: 0.818493 (Simulation time: 4 hr 11 min 26 sec) 
Heartbeat CPU 1 instructions: 510000002 cycles: 498694679 heartbeat IPC: 1.09327 cumulative IPC: 0.998677 (Simulation time: 4 hr 11 min 34 sec) 
Heartbeat CPU 0 instructions: 430000001 cycles: 499058052 heartbeat IPC: 0.643499 cumulative IPC: 0.825083 (Simulation time: 4 hr 11 min 43 sec) 
Heartbeat CPU 7 instructions: 450000002 cycles: 504783470 heartbeat IPC: 0.817393 cumulative IPC: 0.845949 (Simulation time: 4 hr 14 min 8 sec) 
Heartbeat CPU 4 instructions: 520000000 cycles: 505443337 heartbeat IPC: 1.00958 cumulative IPC: 0.990808 (Simulation time: 4 hr 14 min 24 sec) 
Heartbeat CPU 1 instructions: 520000000 cycles: 507999521 heartbeat IPC: 1.07471 cumulative IPC: 1.00011 (Simulation time: 4 hr 15 min 27 sec) 
Heartbeat CPU 5 instructions: 430000000 cycles: 509908744 heartbeat IPC: 0.867718 cumulative IPC: 0.819636 (Simulation time: 4 hr 16 min 13 sec) 
Heartbeat CPU 3 instructions: 280000000 cycles: 512081809 heartbeat IPC: 0.482885 cumulative IPC: 0.498969 (Simulation time: 4 hr 17 min 5 sec) 
Heartbeat CPU 6 instructions: 180000000 cycles: 513768131 heartbeat IPC: 0.375817 cumulative IPC: 0.319725 (Simulation time: 4 hr 17 min 46 sec) 
Heartbeat CPU 0 instructions: 440000000 cycles: 514574754 heartbeat IPC: 0.644467 cumulative IPC: 0.819492 (Simulation time: 4 hr 18 min 6 sec) 
Heartbeat CPU 4 instructions: 530000001 cycles: 514893004 heartbeat IPC: 1.05824 cumulative IPC: 0.992078 (Simulation time: 4 hr 18 min 14 sec) 
Heartbeat CPU 7 instructions: 460000000 cycles: 516919213 heartbeat IPC: 0.824012 cumulative IPC: 0.84542 (Simulation time: 4 hr 19 min 3 sec) 
Heartbeat CPU 1 instructions: 530000003 cycles: 517060286 heartbeat IPC: 1.10366 cumulative IPC: 1.00197 (Simulation time: 4 hr 19 min 7 sec) 
Heartbeat CPU 5 instructions: 440000000 cycles: 521128933 heartbeat IPC: 0.891251 cumulative IPC: 0.821218 (Simulation time: 4 hr 20 min 46 sec) 
Heartbeat CPU 4 instructions: 540000000 cycles: 525828175 heartbeat IPC: 0.91448 cumulative IPC: 0.990423 (Simulation time: 4 hr 22 min 40 sec) 
Heartbeat CPU 1 instructions: 540000000 cycles: 526249177 heartbeat IPC: 1.08827 cumulative IPC: 1.00352 (Simulation time: 4 hr 22 min 51 sec) 
Heartbeat CPU 7 instructions: 470000003 cycles: 529054807 heartbeat IPC: 0.824023 cumulative IPC: 0.844917 (Simulation time: 4 hr 24 min 2 sec) 
Heartbeat CPU 0 instructions: 450000000 cycles: 530064463 heartbeat IPC: 0.64559 cumulative IPC: 0.814279 (Simulation time: 4 hr 24 min 28 sec) 
Heartbeat CPU 5 instructions: 450000000 cycles: 532488008 heartbeat IPC: 0.880353 cumulative IPC: 0.822512 (Simulation time: 4 hr 25 min 29 sec) 
Heartbeat CPU 3 instructions: 290000002 cycles: 532500507 heartbeat IPC: 0.489747 cumulative IPC: 0.498606 (Simulation time: 4 hr 25 min 30 sec) 
Heartbeat CPU 4 instructions: 550000003 cycles: 535157645 heartbeat IPC: 1.07187 cumulative IPC: 0.991879 (Simulation time: 4 hr 26 min 38 sec) 
Heartbeat CPU 1 instructions: 550000001 cycles: 535228832 heartbeat IPC: 1.11363 cumulative IPC: 1.00541 (Simulation time: 4 hr 26 min 40 sec) 
Heartbeat CPU 7 instructions: 480000000 cycles: 541227582 heartbeat IPC: 0.821505 cumulative IPC: 0.844377 (Simulation time: 4 hr 29 min 10 sec) 
Heartbeat CPU 5 instructions: 460000000 cycles: 543336785 heartbeat IPC: 0.921763 cumulative IPC: 0.824544 (Simulation time: 4 hr 30 min 3 sec) 
Heartbeat CPU 1 instructions: 560000000 cycles: 544467945 heartbeat IPC: 1.08235 cumulative IPC: 1.00675 (Simulation time: 4 hr 30 min 30 sec) 
Heartbeat CPU 4 instructions: 560000000 cycles: 544738633 heartbeat IPC: 1.04373 cumulative IPC: 0.992814 (Simulation time: 4 hr 30 min 36 sec) 
Heartbeat CPU 6 instructions: 190000001 cycles: 546627023 heartbeat IPC: 0.304332 cumulative IPC: 0.318776 (Simulation time: 4 hr 31 min 21 sec) 
Heartbeat CPU 0 instructions: 460000000 cycles: 547716277 heartbeat IPC: 0.566514 cumulative IPC: 0.806095 (Simulation time: 4 hr 31 min 46 sec) 
Heartbeat CPU 7 instructions: 490000003 cycles: 553581209 heartbeat IPC: 0.809479 cumulative IPC: 0.843579 (Simulation time: 4 hr 34 min 9 sec) 
Heartbeat CPU 1 instructions: 570000003 cycles: 554498326 heartbeat IPC: 0.996971 cumulative IPC: 1.00657 (Simulation time: 4 hr 34 min 31 sec) 
Heartbeat CPU 4 instructions: 570000000 cycles: 554930950 heartbeat IPC: 0.981131 cumulative IPC: 0.992594 (Simulation time: 4 hr 34 min 41 sec) 
Heartbeat CPU 3 instructions: 300000000 cycles: 554995467 heartbeat IPC: 0.444544 cumulative IPC: 0.496361 (Simulation time: 4 hr 34 min 43 sec) 
Heartbeat CPU 5 instructions: 470000003 cycles: 555460295 heartbeat IPC: 0.824844 cumulative IPC: 0.82455 (Simulation time: 4 hr 34 min 54 sec) 
Heartbeat CPU 2 instructions: 110000000 cycles: 557937558 heartbeat IPC: 0.133444 cumulative IPC: 0.158499 (Simulation time: 4 hr 35 min 55 sec) 
Heartbeat CPU 0 instructions: 470000000 cycles: 559889429 heartbeat IPC: 0.82148 cumulative IPC: 0.806437 (Simulation time: 4 hr 36 min 44 sec) 
Heartbeat CPU 1 instructions: 580000000 cycles: 564341985 heartbeat IPC: 1.01588 cumulative IPC: 1.00673 (Simulation time: 4 hr 38 min 30 sec) 
Heartbeat CPU 4 instructions: 580000000 cycles: 564947975 heartbeat IPC: 0.9983 cumulative IPC: 0.992697 (Simulation time: 4 hr 38 min 43 sec) 
Heartbeat CPU 7 instructions: 500000000 cycles: 565929492 heartbeat IPC: 0.809829 cumulative IPC: 0.842825 (Simulation time: 4 hr 39 min 6 sec) 
Heartbeat CPU 5 instructions: 480000000 cycles: 568327138 heartbeat IPC: 0.777191 cumulative IPC: 0.823452 (Simulation time: 4 hr 39 min 58 sec) 
Heartbeat CPU 1 instructions: 590000001 cycles: 574974917 heartbeat IPC: 0.940474 cumulative IPC: 1.00548 (Simulation time: 4 hr 42 min 41 sec) 
Heartbeat CPU 4 instructions: 590000002 cycles: 575603000 heartbeat IPC: 0.938524 cumulative IPC: 0.991671 (Simulation time: 4 hr 42 min 56 sec) 
Heartbeat CPU 0 instructions: 480000000 cycles: 575777518 heartbeat IPC: 0.629402 cumulative IPC: 0.801436 (Simulation time: 4 hr 43 min 1 sec) 
Heartbeat CPU 3 instructions: 310000002 cycles: 579874808 heartbeat IPC: 0.40194 cumulative IPC: 0.492214 (Simulation time: 4 hr 44 min 37 sec) 
Heartbeat CPU 6 instructions: 200000000 cycles: 580012638 heartbeat IPC: 0.29953 cumulative IPC: 0.317643 (Simulation time: 4 hr 44 min 40 sec) 
Heartbeat CPU 5 instructions: 490000002 cycles: 580426165 heartbeat IPC: 0.826513 cumulative IPC: 0.823518 (Simulation time: 4 hr 44 min 50 sec) 
Heartbeat CPU 1 instructions: 600000000 cycles: 584812303 heartbeat IPC: 1.01653 cumulative IPC: 1.00567 (Simulation time: 4 hr 46 min 31 sec) 
Heartbeat CPU 0 instructions: 490000003 cycles: 585301939 heartbeat IPC: 1.04993 cumulative IPC: 0.805574 (Simulation time: 4 hr 46 min 42 sec) 
Heartbeat CPU 4 instructions: 600000000 cycles: 585663129 heartbeat IPC: 0.994023 cumulative IPC: 0.991712 (Simulation time: 4 hr 46 min 50 sec) 
Heartbeat CPU 5 instructions: 500000000 cycles: 592376124 heartbeat IPC: 0.836823 cumulative IPC: 0.823792 (Simulation time: 4 hr 49 min 20 sec) 
Heartbeat CPU 0 instructions: 500000000 cycles: 594267030 heartbeat IPC: 1.11544 cumulative IPC: 0.810356 (Simulation time: 4 hr 50 min 7 sec) 
Heartbeat CPU 7 instructions: 510000001 cycles: 594741295 heartbeat IPC: 0.34708 cumulative IPC: 0.818258 (Simulation time: 4 hr 50 min 17 sec) 
Heartbeat CPU 1 instructions: 610000000 cycles: 594815553 heartbeat IPC: 0.999675 cumulative IPC: 1.00557 (Simulation time: 4 hr 50 min 19 sec) 
Heartbeat CPU 4 instructions: 610000002 cycles: 595886021 heartbeat IPC: 0.978197 cumulative IPC: 0.991475 (Simulation time: 4 hr 50 min 45 sec) 
Heartbeat CPU 0 instructions: 510000000 cycles: 603428968 heartbeat IPC: 1.09147 cumulative IPC: 0.814721 (Simulation time: 4 hr 53 min 54 sec) 
Heartbeat CPU 3 instructions: 320000000 cycles: 603550366 heartbeat IPC: 0.422376 cumulative IPC: 0.489413 (Simulation time: 4 hr 53 min 57 sec) 
Heartbeat CPU 4 instructions: 620000000 cycles: 603707309 heartbeat IPC: 1.27856 cumulative IPC: 0.995278 (Simulation time: 4 hr 54 min 1 sec) 
Heartbeat CPU 1 instructions: 620000000 cycles: 604203394 heartbeat IPC: 1.06521 cumulative IPC: 1.00651 (Simulation time: 4 hr 54 min 13 sec) 
Heartbeat CPU 5 instructions: 510000001 cycles: 604974670 heartbeat IPC: 0.793742 cumulative IPC: 0.823152 (Simulation time: 4 hr 54 min 31 sec) 
Heartbeat CPU 7 instructions: 520000000 cycles: 606977257 heartbeat IPC: 0.817263 cumulative IPC: 0.818237 (Simulation time: 4 hr 55 min 18 sec) 
Heartbeat CPU 6 instructions: 210000000 cycles: 610503079 heartbeat IPC: 0.327972 cumulative IPC: 0.31817 (Simulation time: 4 hr 56 min 38 sec) 
Heartbeat CPU 0 instructions: 520000000 cycles: 612200213 heartbeat IPC: 1.14009 cumulative IPC: 0.819486 (Simulation time: 4 hr 57 min 16 sec) 
Heartbeat CPU 1 instructions: 630000002 cycles: 613822522 heartbeat IPC: 1.0396 cumulative IPC: 1.00704 (Simulation time: 4 hr 57 min 54 sec) 
Heartbeat CPU 2 instructions: 120000000 cycles: 614158023 heartbeat IPC: 0.177871 cumulative IPC: 0.160312 (Simulation time: 4 hr 58 min 2 sec) 
Heartbeat CPU 4 instructions: 630000001 cycles: 615652427 heartbeat IPC: 0.837162 cumulative IPC: 0.992143 (Simulation time: 4 hr 58 min 38 sec) 
Heartbeat CPU 5 instructions: 520000000 cycles: 617851558 heartbeat IPC: 0.776585 cumulative IPC: 0.82216 (Simulation time: 4 hr 59 min 29 sec) 
Heartbeat CPU 0 instructions: 530000003 cycles: 620890956 heartbeat IPC: 1.15065 cumulative IPC: 0.824223 (Simulation time: 5 hr 0 min 31 sec) 
Heartbeat CPU 7 instructions: 530000001 cycles: 622056854 heartbeat IPC: 0.663148 cumulative IPC: 0.814395 (Simulation time: 5 hr 0 min 55 sec) 
Heartbeat CPU 1 instructions: 640000000 cycles: 624028558 heartbeat IPC: 0.979812 cumulative IPC: 1.00659 (Simulation time: 5 hr 1 min 34 sec) 
Heartbeat CPU 4 instructions: 640000000 cycles: 626582867 heartbeat IPC: 0.914876 cumulative IPC: 0.990765 (Simulation time: 5 hr 2 min 26 sec) 
Heartbeat CPU 3 instructions: 330000003 cycles: 627298229 heartbeat IPC: 0.421091 cumulative IPC: 0.48677 (Simulation time: 5 hr 2 min 42 sec) 
Finished CPU 2 instructions: 100000000 cycles: 618191108 cumulative IPC: 0.161762 (Simulation time: 5 hr 4 min 10 sec) 

CPU 0 Branch Prediction Accuracy: 99.287% MPKI: 0.361004

CPU 1 Branch Prediction Accuracy: 99.9708% MPKI: 0.00723591

CPU 2 Branch Prediction Accuracy: 92.533% MPKI: 13.3745

CPU 3 Branch Prediction Accuracy: 97.546% MPKI: 0.375764

CPU 4 Branch Prediction Accuracy: 97.6981% MPKI: 3.27585

CPU 5 Branch Prediction Accuracy: 99.7702% MPKI: 0.00351625

CPU 6 Branch Prediction Accuracy: 92.8797% MPKI: 12.8733

CPU 7 Branch Prediction Accuracy: 95.5288% MPKI: 3.8019

ChampSim completed all CPUs

Total Simulation Statistics (not including warmup)

CPU 0 cumulative IPC: 0.824487 instructions: 509690368 cycles: 618191108
L1D TOTAL     ACCESS:  123993572  HIT:  115668874  MISS:    8324698
L1D LOAD      ACCESS:  104615301  HIT:   97747613  MISS:    6867688
L1D RFO       ACCESS:   19378271  HIT:   17921261  MISS:    1457010
L1D PREFETCH  ACCESS:          0  HIT:          0  MISS:          0
L1D WRITEBACK ACCESS:          0  HIT:          0  MISS:          0
L1I TOTAL     ACCESS:  137548648  HIT:  137534646  MISS:      14002
L1I LOAD      ACCESS:  137548648  HIT:  137534646  MISS:      14002
L1I RFO       ACCESS:          0  HIT:          0  MISS:          0
L1I PREFETCH  ACCESS:          0  HIT:          0  MISS:          0
L1I WRITEBACK ACCESS:          0  HIT:          0  MISS:          0
L2C TOTAL     ACCESS:   19016696  HIT:   12875971  MISS:    6140725
L2C LOAD      ACCESS:    6881394  HIT:    5653773  MISS:    1227621
L2C RFO       ACCESS:    1456972  HIT:     295955  MISS:    1161017
L2C PREFETCH  ACCESS:    7747255  HIT:    4001146  MISS:    3746109
L2C WRITEBACK ACCESS:    2931075  HIT:    2925097  MISS:       5978

Avg Lookahead Depth:	2.37568
TOTAL: 1.04339e+08	L2C: 7.71365e+07	LLC: 2.7203e+07	GOOD_L2C: 4.61466e+07
Printing all the perceptron weights to: perc_weights_0.csv
LLC TOTAL     ACCESS:    8898375  HIT:    3805084  MISS:    5093291
LLC LOAD      ACCESS:     411915  HIT:     112697  MISS:     299218
LLC RFO       ACCESS:    1160517  HIT:     165366  MISS:     995151
LLC PREFETCH  ACCESS:    4870150  HIT:    1091146  MISS:    3779004
LLC WRITEBACK ACCESS:    2455793  HIT:    2435875  MISS:      19918

CPU 1 cumulative IPC: 1.00572 instructions: 621726364 cycles: 618191108
L1D TOTAL     ACCESS:  237074243  HIT:  224182851  MISS:   12891392
L1D LOAD      ACCESS:  202940746  HIT:  190431778  MISS:   12508968
L1D RFO       ACCESS:   34133497  HIT:   33751073  MISS:     382424
L1D PREFETCH  ACCESS:          0  HIT:          0  MISS:          0
L1D WRITEBACK ACCESS:          0  HIT:          0  MISS:          0
L1I TOTAL     ACCESS:  153110494  HIT:  153110494  MISS:          0
L1I LOAD      ACCESS:  153110494  HIT:  153110494  MISS:          0
L1I RFO       ACCESS:          0  HIT:          0  MISS:          0
L1I PREFETCH  ACCESS:          0  HIT:          0  MISS:          0
L1I WRITEBACK ACCESS:          0  HIT:          0  MISS:          0
L2C TOTAL     ACCESS:   28444497  HIT:   16600116  MISS:   11844381
L2C LOAD      ACCESS:   12505342  HIT:   11242980  MISS:    1262362
L2C RFO       ACCESS:     375227  HIT:      72295  MISS:     302932
L2C PREFETCH  ACCESS:   15146367  HIT:    4868872  MISS:   10277495
L2C WRITEBACK ACCESS:     417561  HIT:     415969  MISS:       1592

Avg Lookahead Depth:	2.37568
TOTAL: 1.04339e+08	L2C: 7.71365e+07	LLC: 2.7203e+07	GOOD_L2C: 4.61466e+07
Printing all the perceptron weights to: perc_weights_0.csv
LLC TOTAL     ACCESS:   13133818  HIT:    1317736  MISS:   11816082
LLC LOAD      ACCESS:     543550  HIT:      64808  MISS:     478742
LLC RFO       ACCESS:     302932  HIT:          0  MISS:     302932
LLC PREFETCH  ACCESS:   11982156  HIT:     948067  MISS:   11034089
LLC WRITEBACK ACCESS:     305180  HIT:     304861  MISS:        319

CPU 2 cumulative IPC: 0.161762 instructions: 100000000 cycles: 618191108
L1D TOTAL     ACCESS:   41088849  HIT:   37356013  MISS:    3732836
L1D LOAD      ACCESS:   30978746  HIT:   27281691  MISS:    3697055
L1D RFO       ACCESS:   10110103  HIT:   10074322  MISS:      35781
L1D PREFETCH  ACCESS:          0  HIT:          0  MISS:          0
L1D WRITEBACK ACCESS:          0  HIT:          0  MISS:          0
L1I TOTAL     ACCESS:   21616425  HIT:   21616425  MISS:          0
L1I LOAD      ACCESS:   21616425  HIT:   21616425  MISS:          0
L1I RFO       ACCESS:          0  HIT:          0  MISS:          0
L1I PREFETCH  ACCESS:          0  HIT:          0  MISS:          0
L1I WRITEBACK ACCESS:          0  HIT:          0  MISS:          0
L2C TOTAL     ACCESS:    5307793  HIT:    2236585  MISS:    3071208
L2C LOAD      ACCESS:    3697052  HIT:    1211191  MISS:    2485861
L2C RFO       ACCESS:      35778  HIT:      28185  MISS:       7593
L2C PREFETCH  ACCESS:    1305841  HIT:     728823  MISS:     577018
L2C WRITEBACK ACCESS:     269122  HIT:     268386  MISS:        736

Avg Lookahead Depth:	2.37568
TOTAL: 1.04339e+08	L2C: 7.71365e+07	LLC: 2.7203e+07	GOOD_L2C: 4.61466e+07
Printing all the perceptron weights to: perc_weights_0.csv
LLC TOTAL     ACCESS:    4060170  HIT:    1130381  MISS:    2929789
LLC LOAD      ACCESS:    2202341  HIT:     578942  MISS:    1623399
LLC RFO       ACCESS:       7580  HIT:       4866  MISS:       2714
LLC PREFETCH  ACCESS:    1671376  HIT:     369283  MISS:    1302093
LLC WRITEBACK ACCESS:     178873  HIT:     177290  MISS:       1583

CPU 3 cumulative IPC: 0.486297 instructions: 300624760 cycles: 618191108
L1D TOTAL     ACCESS:   83149652  HIT:   63227909  MISS:   19921743
L1D LOAD      ACCESS:   31067529  HIT:   28047034  MISS:    3020495
L1D RFO       ACCESS:   52082123  HIT:   35180875  MISS:   16901248
L1D PREFETCH  ACCESS:          0  HIT:          0  MISS:          0
L1D WRITEBACK ACCESS:          0  HIT:          0  MISS:          0
L1I TOTAL     ACCESS:   71958759  HIT:   71958759  MISS:          0
L1I LOAD      ACCESS:   71958759  HIT:   71958759  MISS:          0
L1I RFO       ACCESS:          0  HIT:          0  MISS:          0
L1I PREFETCH  ACCESS:          0  HIT:          0  MISS:          0
L1I WRITEBACK ACCESS:          0  HIT:          0  MISS:          0
L2C TOTAL     ACCESS:   39642427  HIT:   24894455  MISS:   14747972
L2C LOAD      ACCESS:    3020495  HIT:    2175559  MISS:     844936
L2C RFO       ACCESS:   16901231  HIT:    5177648  MISS:   11723583
L2C PREFETCH  ACCESS:    2819448  HIT:     643775  MISS:    2175673
L2C WRITEBACK ACCESS:   16901253  HIT:   16897473  MISS:       3780

Avg Lookahead Depth:	2.37568
TOTAL: 1.04339e+08	L2C: 7.71365e+07	LLC: 2.7203e+07	GOOD_L2C: 4.61466e+07
Printing all the perceptron weights to: perc_weights_0.csv
LLC TOTAL     ACCESS:   26573267  HIT:   14504833  MISS:   12068434
LLC LOAD      ACCESS:     266992  HIT:      11594  MISS:     255398
LLC RFO       ACCESS:   11716434  HIT:    2666019  MISS:    9050415
LLC PREFETCH  ACCESS:    2862714  HIT:     100751  MISS:    2761963
LLC WRITEBACK ACCESS:   11727127  HIT:   11726469  MISS:        658

CPU 4 cumulative IPC: 0.990723 instructions: 612456104 cycles: 618191108
L1D TOTAL     ACCESS:  113952660  HIT:  103318316  MISS:   10634344
L1D LOAD      ACCESS:   81474267  HIT:   74419278  MISS:    7054989
L1D RFO       ACCESS:   32478393  HIT:   28899038  MISS:    3579355
L1D PREFETCH  ACCESS:          0  HIT:          0  MISS:          0
L1D WRITEBACK ACCESS:          0  HIT:          0  MISS:          0
L1I TOTAL     ACCESS:  147493497  HIT:  147176503  MISS:     316994
L1I LOAD      ACCESS:  147493497  HIT:  147176503  MISS:     316994
L1I RFO       ACCESS:          0  HIT:          0  MISS:          0
L1I PREFETCH  ACCESS:          0  HIT:          0  MISS:          0
L1I WRITEBACK ACCESS:          0  HIT:          0  MISS:          0
L2C TOTAL     ACCESS:   24317061  HIT:   18848181  MISS:    5468880
L2C LOAD      ACCESS:    7371531  HIT:    6222284  MISS:    1149247
L2C RFO       ACCESS:    3579204  HIT:    1937350  MISS:    1641854
L2C PREFETCH  ACCESS:    8796849  HIT:    6123220  MISS:    2673629
L2C WRITEBACK ACCESS:    4569477  HIT:    4565327  MISS:       4150

Avg Lookahead Depth:	2.37568
TOTAL: 1.04339e+08	L2C: 7.71365e+07	LLC: 2.7203e+07	GOOD_L2C: 4.61466e+07
Printing all the perceptron weights to: perc_weights_0.csv
LLC TOTAL     ACCESS:    8264191  HIT:    5820924  MISS:    2443267
LLC LOAD      ACCESS:     577426  HIT:     469482  MISS:     107944
LLC RFO       ACCESS:    1641674  HIT:     849728  MISS:     791946
LLC PREFETCH  ACCESS:    3700924  HIT:    2194077  MISS:    1506847
LLC WRITEBACK ACCESS:    2344167  HIT:    2307637  MISS:      36530

CPU 5 cumulative IPC: 0.820015 instructions: 506925728 cycles: 618191108
L1D TOTAL     ACCESS:  150658528  HIT:   93092084  MISS:   57566444
L1D LOAD      ACCESS:   94317696  HIT:   40842282  MISS:   53475414
L1D RFO       ACCESS:   56340832  HIT:   52249802  MISS:    4091030
L1D PREFETCH  ACCESS:          0  HIT:          0  MISS:          0
L1D WRITEBACK ACCESS:          0  HIT:          0  MISS:          0
L1I TOTAL     ACCESS:  126818577  HIT:  126066773  MISS:     751804
L1I LOAD      ACCESS:  126818577  HIT:  126066773  MISS:     751804
L1I RFO       ACCESS:          0  HIT:          0  MISS:          0
L1I PREFETCH  ACCESS:          0  HIT:          0  MISS:          0
L1I WRITEBACK ACCESS:          0  HIT:          0  MISS:          0
L2C TOTAL     ACCESS:   88956781  HIT:   69533606  MISS:   19423175
L2C LOAD      ACCESS:   54006174  HIT:   42280025  MISS:   11726149
L2C RFO       ACCESS:    4087929  HIT:    1418000  MISS:    2669929
L2C PREFETCH  ACCESS:   26237737  HIT:   21212583  MISS:    5025154
L2C WRITEBACK ACCESS:    4624941  HIT:    4622998  MISS:       1943

Avg Lookahead Depth:	2.37568
TOTAL: 1.04339e+08	L2C: 7.71365e+07	LLC: 2.7203e+07	GOOD_L2C: 4.61466e+07
Printing all the perceptron weights to: perc_weights_0.csv
LLC TOTAL     ACCESS:   29346427  HIT:   25578450  MISS:    3767977
LLC LOAD      ACCESS:   11452147  HIT:   10504912  MISS:     947235
LLC RFO       ACCESS:    2407502  HIT:    2390499  MISS:      17003
LLC PREFETCH  ACCESS:   12708395  HIT:    9905861  MISS:    2802534
LLC WRITEBACK ACCESS:    2778383  HIT:    2777178  MISS:       1205

CPU 6 cumulative IPC: 0.318208 instructions: 196713212 cycles: 618191108
L1D TOTAL     ACCESS:   65153726  HIT:   63099824  MISS:    2053902
L1D LOAD      ACCESS:   40249178  HIT:   38404245  MISS:    1844933
L1D RFO       ACCESS:   24904548  HIT:   24695579  MISS:     208969
L1D PREFETCH  ACCESS:          0  HIT:          0  MISS:          0
L1D WRITEBACK ACCESS:          0  HIT:          0  MISS:          0
L1I TOTAL     ACCESS:   53203515  HIT:   52402363  MISS:     801152
L1I LOAD      ACCESS:   53203515  HIT:   52402363  MISS:     801152
L1I RFO       ACCESS:          0  HIT:          0  MISS:          0
L1I PREFETCH  ACCESS:          0  HIT:          0  MISS:          0
L1I WRITEBACK ACCESS:          0  HIT:          0  MISS:          0
L2C TOTAL     ACCESS:    6109226  HIT:    4587566  MISS:    1521660
L2C LOAD      ACCESS:    2646057  HIT:    1896937  MISS:     749120
L2C RFO       ACCESS:     208963  HIT:      75097  MISS:     133866
L2C PREFETCH  ACCESS:    2754409  HIT:    2122495  MISS:     631914
L2C WRITEBACK ACCESS:     499797  HIT:     493037  MISS:       6760

Avg Lookahead Depth:	2.37568
TOTAL: 1.04339e+08	L2C: 7.71365e+07	LLC: 2.7203e+07	GOOD_L2C: 4.61466e+07
Printing all the perceptron weights to: perc_weights_0.csv
LLC TOTAL     ACCESS:    2282438  HIT:    1143073  MISS:    1139365
LLC LOAD      ACCESS:     688391  HIT:     346695  MISS:     341696
LLC RFO       ACCESS:     132667  HIT:      28272  MISS:     104395
LLC PREFETCH  ACCESS:    1163106  HIT:     516769  MISS:     646337
LLC WRITEBACK ACCESS:     298274  HIT:     251337  MISS:      46937

CPU 7 cumulative IPC: 0.809449 instructions: 500394260 cycles: 618191109
L1D TOTAL     ACCESS:   84713510  HIT:   75890040  MISS:    8823470
L1D LOAD      ACCESS:   56401275  HIT:   50547756  MISS:    5853519
L1D RFO       ACCESS:   28312235  HIT:   25342284  MISS:    2969951
L1D PREFETCH  ACCESS:          0  HIT:          0  MISS:          0
L1D WRITEBACK ACCESS:          0  HIT:          0  MISS:          0
L1I TOTAL     ACCESS:  125505632  HIT:  125496914  MISS:       8718
L1I LOAD      ACCESS:  125505632  HIT:  125496914  MISS:       8718
L1I RFO       ACCESS:          0  HIT:          0  MISS:          0
L1I PREFETCH  ACCESS:          0  HIT:          0  MISS:          0
L1I WRITEBACK ACCESS:          0  HIT:          0  MISS:          0
L2C TOTAL     ACCESS:   18800873  HIT:   11574663  MISS:    7226210
L2C LOAD      ACCESS:    5862201  HIT:    4812704  MISS:    1049497
L2C RFO       ACCESS:    2969407  HIT:     470051  MISS:    2499356
L2C PREFETCH  ACCESS:    6091227  HIT:    2422521  MISS:    3668706
L2C WRITEBACK ACCESS:    3878038  HIT:    3869387  MISS:       8651

Avg Lookahead Depth:	2.37568
TOTAL: 1.04339e+08	L2C: 7.71365e+07	LLC: 2.7203e+07	GOOD_L2C: 4.61466e+07
Printing all the perceptron weights to: perc_weights_0.csv
LLC TOTAL     ACCESS:   10624664  HIT:    7595525  MISS:    3029139
LLC LOAD      ACCESS:     245904  HIT:     180364  MISS:      65540
LLC RFO       ACCESS:    2499231  HIT:     887078  MISS:    1612153
LLC PREFETCH  ACCESS:    4661166  HIT:    3329344  MISS:    1331822
LLC WRITEBACK ACCESS:    3218363  HIT:    3198739  MISS:      19624

Region of Interest Statistics

CPU 0 cumulative IPC: 0.962383 instructions: 100000000 cycles: 103908787
L1D TOTAL     ACCESS:   23468096  HIT:   22179753  MISS:    1288343
L1D LOAD      ACCESS:   20124848  HIT:   19094865  MISS:    1029983
L1D RFO       ACCESS:    3343248  HIT:    3084888  MISS:     258360
L1D PREFETCH  ACCESS:          0  HIT:          0  MISS:          0
L1D WRITEBACK ACCESS:          0  HIT:          0  MISS:          0
L1D PREFETCH  REQUESTED:          0  ISSUED:          0  USEFUL:          0  USELESS:          0
L1I TOTAL     ACCESS:   27485542  HIT:   27483381  MISS:       2161
L1I LOAD      ACCESS:   27485542  HIT:   27483381  MISS:       2161
L1I RFO       ACCESS:          0  HIT:          0  MISS:          0
L1I PREFETCH  ACCESS:          0  HIT:          0  MISS:          0
L1I WRITEBACK ACCESS:          0  HIT:          0  MISS:          0
L1I PREFETCH  REQUESTED:          0  ISSUED:          0  USEFUL:          0  USELESS:          0
L2C TOTAL     ACCESS:    3051510  HIT:    2116864  MISS:     934646
L2C LOAD      ACCESS:    1032117  HIT:     901622  MISS:     130495
L2C RFO       ACCESS:     258360  HIT:      25729  MISS:     232631
L2C PREFETCH  ACCESS:    1274399  HIT:     704246  MISS:     570153
L2C WRITEBACK ACCESS:     486634  HIT:     485267  MISS:       1367
L2C PREFETCH  REQUESTED:   10532541  ISSUED:   10502383  USEFUL:    3991595  USELESS:     201533
LLC TOTAL     ACCESS:    1436390  HIT:     762027  MISS:     674363
LLC LOAD      ACCESS:      51215  HIT:      17648  MISS:      33567
LLC RFO       ACCESS:     232630  HIT:      67101  MISS:     165529
LLC PREFETCH  ACCESS:     699067  HIT:     227512  MISS:     471555
LLC WRITEBACK ACCESS:     453478  HIT:     449766  MISS:       3712
LLC PREFETCH  REQUESTED:          0  ISSUED:          0  USEFUL:    2531497  USELESS:   24017324
Major fault: 0 Minor fault: 10908

CPU 1 cumulative IPC: 1.04308 instructions: 100000000 cycles: 95869680
L1D TOTAL     ACCESS:   38137413  HIT:   36064024  MISS:    2073389
L1D LOAD      ACCESS:   32649928  HIT:   30637981  MISS:    2011947
L1D RFO       ACCESS:    5487485  HIT:    5426043  MISS:      61442
L1D PREFETCH  ACCESS:          0  HIT:          0  MISS:          0
L1D WRITEBACK ACCESS:          0  HIT:          0  MISS:          0
L1D PREFETCH  REQUESTED:          0  ISSUED:          0  USEFUL:          0  USELESS:          0
L1I TOTAL     ACCESS:   24609889  HIT:   24609889  MISS:          0
L1I LOAD      ACCESS:   24609889  HIT:   24609889  MISS:          0
L1I RFO       ACCESS:          0  HIT:          0  MISS:          0
L1I PREFETCH  ACCESS:          0  HIT:          0  MISS:          0
L1I WRITEBACK ACCESS:          0  HIT:          0  MISS:          0
L1I PREFETCH  REQUESTED:          0  ISSUED:          0  USEFUL:          0  USELESS:          0
L2C TOTAL     ACCESS:    4680037  HIT:    2774685  MISS:    1905352
L2C LOAD      ACCESS:    2011380  HIT:    1832442  MISS:     178938
L2C RFO       ACCESS:      60316  HIT:      11592  MISS:      48724
L2C PREFETCH  ACCESS:    2541232  HIT:     863730  MISS:    1677502
L2C WRITEBACK ACCESS:      67109  HIT:      66921  MISS:        188
L2C PREFETCH  REQUESTED:   20181139  ISSUED:   19807675  USEFUL:   10724233  USELESS:       8248
LLC TOTAL     ACCESS:    2120957  HIT:     220493  MISS:    1900464
LLC LOAD      ACCESS:      82836  HIT:       9040  MISS:      73796
LLC RFO       ACCESS:      48724  HIT:          0  MISS:      48724
LLC PREFETCH  ACCESS:    1940377  HIT:     162480  MISS:    1777897
LLC WRITEBACK ACCESS:      49020  HIT:      48973  MISS:         47
LLC PREFETCH  REQUESTED:          0  ISSUED:          0  USEFUL:    2531497  USELESS:   24017324
Major fault: 0 Minor fault: 182549

CPU 2 cumulative IPC: 0.161762 instructions: 100000000 cycles: 618191108
L1D TOTAL     ACCESS:   41088849  HIT:   37356013  MISS:    3732836
L1D LOAD      ACCESS:   30978746  HIT:   27281691  MISS:    3697055
L1D RFO       ACCESS:   10110103  HIT:   10074322  MISS:      35781
L1D PREFETCH  ACCESS:          0  HIT:          0  MISS:          0
L1D WRITEBACK ACCESS:          0  HIT:          0  MISS:          0
L1D PREFETCH  REQUESTED:          0  ISSUED:          0  USEFUL:          0  USELESS:          0
L1I TOTAL     ACCESS:   21616425  HIT:   21616425  MISS:          0
L1I LOAD      ACCESS:   21616425  HIT:   21616425  MISS:          0
L1I RFO       ACCESS:          0  HIT:          0  MISS:          0
L1I PREFETCH  ACCESS:          0  HIT:          0  MISS:          0
L1I WRITEBACK ACCESS:          0  HIT:          0  MISS:          0
L1I PREFETCH  REQUESTED:          0  ISSUED:          0  USEFUL:          0  USELESS:          0
L2C TOTAL     ACCESS:    5307793  HIT:    2236585  MISS:    3071208
L2C LOAD      ACCESS:    3697052  HIT:    1211191  MISS:    2485861
L2C RFO       ACCESS:      35778  HIT:      28185  MISS:       7593
L2C PREFETCH  ACCESS:    1305841  HIT:     728823  MISS:     577018
L2C WRITEBACK ACCESS:     269122  HIT:     268386  MISS:        736
L2C PREFETCH  REQUESTED:    3535013  ISSUED:    3535013  USEFUL:     307238  USELESS:     525348
LLC TOTAL     ACCESS:    4060170  HIT:    1130381  MISS:    2929789
LLC LOAD      ACCESS:    2202341  HIT:     578942  MISS:    1623399
LLC RFO       ACCESS:       7580  HIT:       4866  MISS:       2714
LLC PREFETCH  ACCESS:    1671376  HIT:     369283  MISS:    1302093
LLC WRITEBACK ACCESS:     178873  HIT:     177290  MISS:       1583
LLC PREFETCH  REQUESTED:          0  ISSUED:          0  USEFUL:    2531497  USELESS:   24017324
Major fault: 0 Minor fault: 119428

CPU 3 cumulative IPC: 0.794939 instructions: 100000000 cycles: 125795799
L1D TOTAL     ACCESS:   25748823  HIT:   22004423  MISS:    3744400
L1D LOAD      ACCESS:   10744481  HIT:   10177136  MISS:     567345
L1D RFO       ACCESS:   15004342  HIT:   11827287  MISS:    3177055
L1D PREFETCH  ACCESS:          0  HIT:          0  MISS:          0
L1D WRITEBACK ACCESS:          0  HIT:          0  MISS:          0
L1D PREFETCH  REQUESTED:          0  ISSUED:          0  USEFUL:          0  USELESS:          0
L1I TOTAL     ACCESS:   23496671  HIT:   23496671  MISS:          0
L1I LOAD      ACCESS:   23496671  HIT:   23496671  MISS:          0
L1I RFO       ACCESS:          0  HIT:          0  MISS:          0
L1I PREFETCH  ACCESS:          0  HIT:          0  MISS:          0
L1I WRITEBACK ACCESS:          0  HIT:          0  MISS:          0
L1I PREFETCH  REQUESTED:          0  ISSUED:          0  USEFUL:          0  USELESS:          0
L2C TOTAL     ACCESS:    7550656  HIT:    4745825  MISS:    2804831
L2C LOAD      ACCESS:     567345  HIT:     476469  MISS:      90876
L2C RFO       ACCESS:    3177055  HIT:     939633  MISS:    2237422
L2C PREFETCH  ACCESS:     629195  HIT:     152698  MISS:     476497
L2C WRITEBACK ACCESS:    3177061  HIT:    3177025  MISS:         36
L2C PREFETCH  REQUESTED:    4180463  ISSUED:    4180463  USEFUL:    2333563  USELESS:       1966
LLC TOTAL     ACCESS:    5071474  HIT:    2802088  MISS:    2269386
LLC LOAD      ACCESS:      30865  HIT:       1890  MISS:      28975
LLC RFO       ACCESS:    2236070  HIT:     534096  MISS:    1701974
LLC PREFETCH  ACCESS:     567298  HIT:      28897  MISS:     538401
LLC WRITEBACK ACCESS:    2237241  HIT:    2237205  MISS:         36
LLC PREFETCH  REQUESTED:          0  ISSUED:          0  USEFUL:    2531497  USELESS:   24017324
Major fault: 0 Minor fault: 102652

CPU 4 cumulative IPC: 1.01242 instructions: 100000001 cycles: 98772963
L1D TOTAL     ACCESS:   18900546  HIT:   17015406  MISS:    1885140
L1D LOAD      ACCESS:   13587643  HIT:   12405885  MISS:    1181758
L1D RFO       ACCESS:    5312903  HIT:    4609521  MISS:     703382
L1D PREFETCH  ACCESS:          0  HIT:          0  MISS:          0
L1D WRITEBACK ACCESS:          0  HIT:          0  MISS:          0
L1D PREFETCH  REQUESTED:          0  ISSUED:          0  USEFUL:          0  USELESS:          0
L1I TOTAL     ACCESS:   23397951  HIT:   23351213  MISS:      46738
L1I LOAD      ACCESS:   23397951  HIT:   23351213  MISS:      46738
L1I RFO       ACCESS:          0  HIT:          0  MISS:          0
L1I PREFETCH  ACCESS:          0  HIT:          0  MISS:          0
L1I WRITEBACK ACCESS:          0  HIT:          0  MISS:          0
L1I PREFETCH  REQUESTED:          0  ISSUED:          0  USEFUL:          0  USELESS:          0
L2C TOTAL     ACCESS:    4289713  HIT:    3346064  MISS:     943649
L2C LOAD      ACCESS:    1228390  HIT:    1053127  MISS:     175263
L2C RFO       ACCESS:     703334  HIT:     388184  MISS:     315150
L2C PREFETCH  ACCESS:    1490512  HIT:    1037916  MISS:     452596
L2C WRITEBACK ACCESS:     867477  HIT:     866837  MISS:        640
L2C PREFETCH  REQUESTED:   11470705  ISSUED:   11440481  USEFUL:    2471552  USELESS:     512150
LLC TOTAL     ACCESS:    1444683  HIT:     985829  MISS:     458854
LLC LOAD      ACCESS:      87064  HIT:      70470  MISS:      16594
LLC RFO       ACCESS:     315111  HIT:     133696  MISS:     181415
LLC PREFETCH  ACCESS:     612267  HIT:     356669  MISS:     255598
LLC WRITEBACK ACCESS:     430241  HIT:     424994  MISS:       5247
LLC PREFETCH  REQUESTED:          0  ISSUED:          0  USEFUL:    2531497  USELESS:   24017324
Major fault: 0 Minor fault: 19453

CPU 5 cumulative IPC: 0.873528 instructions: 100000003 cycles: 114478249
L1D TOTAL     ACCESS:   32237355  HIT:   21719710  MISS:   10517645
L1D LOAD      ACCESS:   21896316  HIT:   12148323  MISS:    9747993
L1D RFO       ACCESS:   10341039  HIT:    9571387  MISS:     769652
L1D PREFETCH  ACCESS:          0  HIT:          0  MISS:          0
L1D WRITEBACK ACCESS:          0  HIT:          0  MISS:          0
L1D PREFETCH  REQUESTED:          0  ISSUED:          0  USEFUL:          0  USELESS:          0
L1I TOTAL     ACCESS:   24746590  HIT:   23994786  MISS:     751804
L1I LOAD      ACCESS:   24746590  HIT:   23994786  MISS:     751804
L1I RFO       ACCESS:          0  HIT:          0  MISS:          0
L1I PREFETCH  ACCESS:          0  HIT:          0  MISS:          0
L1I WRITEBACK ACCESS:          0  HIT:          0  MISS:          0
L1I PREFETCH  REQUESTED:          0  ISSUED:          0  USEFUL:          0  USELESS:          0
L2C TOTAL     ACCESS:   18506568  HIT:   15374079  MISS:    3132489
L2C LOAD      ACCESS:   10467199  HIT:    8706728  MISS:    1760471
L2C RFO       ACCESS:     769094  HIT:     333743  MISS:     435351
L2C PREFETCH  ACCESS:    6403178  HIT:    5467258  MISS:     935920
L2C WRITEBACK ACCESS:     867097  HIT:     866350  MISS:        747
L2C PREFETCH  REQUESTED:   42148644  ISSUED:   41372063  USEFUL:    3000713  USELESS:    2231063
LLC TOTAL     ACCESS:    4796029  HIT:    4167584  MISS:     628445
LLC LOAD      ACCESS:    1722356  HIT:    1564639  MISS:     157717
LLC RFO       ACCESS:     390807  HIT:     373804  MISS:      17003
LLC PREFETCH  ACCESS:    2231724  HIT:    1778281  MISS:     453443
LLC WRITEBACK ACCESS:     451142  HIT:     450860  MISS:        282
LLC PREFETCH  REQUESTED:          0  ISSUED:          0  USEFUL:    2531497  USELESS:   24017324
Major fault: 0 Minor fault: 25726

CPU 6 cumulative IPC: 0.327076 instructions: 100000001 cycles: 305738956
L1D TOTAL     ACCESS:   31592964  HIT:   30619549  MISS:     973415
L1D LOAD      ACCESS:   19577473  HIT:   18707584  MISS:     869889
L1D RFO       ACCESS:   12015491  HIT:   11911965  MISS:     103526
L1D PREFETCH  ACCESS:          0  HIT:          0  MISS:          0
L1D WRITEBACK ACCESS:          0  HIT:          0  MISS:          0
L1D PREFETCH  REQUESTED:          0  ISSUED:          0  USEFUL:          0  USELESS:          0
L1I TOTAL     ACCESS:   26936482  HIT:   26565842  MISS:     370640
L1I LOAD      ACCESS:   26936482  HIT:   26565842  MISS:     370640
L1I RFO       ACCESS:          0  HIT:          0  MISS:          0
L1I PREFETCH  ACCESS:          0  HIT:          0  MISS:          0
L1I WRITEBACK ACCESS:          0  HIT:          0  MISS:          0
L1I PREFETCH  REQUESTED:          0  ISSUED:          0  USEFUL:          0  USELESS:          0
L2C TOTAL     ACCESS:    2912380  HIT:    2148538  MISS:     763842
L2C LOAD      ACCESS:    1240522  HIT:     856871  MISS:     383651
L2C RFO       ACCESS:     103520  HIT:      31262  MISS:      72258
L2C PREFETCH  ACCESS:    1333594  HIT:    1028826  MISS:     304768
L2C WRITEBACK ACCESS:     234744  HIT:     231579  MISS:       3165
L2C PREFETCH  REQUESTED:    4079253  ISSUED:    4073832  USEFUL:     347610  USELESS:     423764
LLC TOTAL     ACCESS:    1136291  HIT:     552337  MISS:     583954
LLC LOAD      ACCESS:     350592  HIT:     166675  MISS:     183917
LLC RFO       ACCESS:      71590  HIT:      11539  MISS:      60051
LLC PREFETCH  ACCESS:     556504  HIT:     238226  MISS:     318278
LLC WRITEBACK ACCESS:     157605  HIT:     135897  MISS:      21708
LLC PREFETCH  REQUESTED:          0  ISSUED:          0  USEFUL:    2531497  USELESS:   24017324
Major fault: 0 Minor fault: 7926

CPU 7 cumulative IPC: 0.954074 instructions: 100000003 cycles: 104813634
L1D TOTAL     ACCESS:   14818643  HIT:   12992463  MISS:    1826180
L1D LOAD      ACCESS:   10458557  HIT:    9194472  MISS:    1264085
L1D RFO       ACCESS:    4360086  HIT:    3797991  MISS:     562095
L1D PREFETCH  ACCESS:          0  HIT:          0  MISS:          0
L1D WRITEBACK ACCESS:          0  HIT:          0  MISS:          0
L1D PREFETCH  REQUESTED:          0  ISSUED:          0  USEFUL:          0  USELESS:          0
L1I TOTAL     ACCESS:   20999187  HIT:   20996761  MISS:       2426
L1I LOAD      ACCESS:   20999187  HIT:   20996761  MISS:       2426
L1I RFO       ACCESS:          0  HIT:          0  MISS:          0
L1I PREFETCH  ACCESS:          0  HIT:          0  MISS:          0
L1I WRITEBACK ACCESS:          0  HIT:          0  MISS:          0
L1I PREFETCH  REQUESTED:          0  ISSUED:          0  USEFUL:          0  USELESS:          0
L2C TOTAL     ACCESS:    3965251  HIT:    2295284  MISS:    1669967
L2C LOAD      ACCESS:    1266511  HIT:    1067284  MISS:     199227
L2C RFO       ACCESS:     562095  HIT:      14459  MISS:     547636
L2C PREFETCH  ACCESS:    1353417  HIT:     432544  MISS:     920873
L2C WRITEBACK ACCESS:     783228  HIT:     780997  MISS:       2231
L2C PREFETCH  REQUESTED:    8211698  ISSUED:    8209124  USEFUL:    3967698  USELESS:      81356
LLC TOTAL     ACCESS:    2451819  HIT:    1915160  MISS:     536659
LLC LOAD      ACCESS:      53322  HIT:      40864  MISS:      12458
LLC RFO       ACCESS:     547607  HIT:     248572  MISS:     299035
LLC PREFETCH  ACCESS:    1114281  HIT:     889128  MISS:     225153
LLC WRITEBACK ACCESS:     736609  HIT:     736596  MISS:         13
LLC PREFETCH  REQUESTED:          0  ISSUED:          0  USEFUL:    2531497  USELESS:   24017324
Major fault: 0 Minor fault: 13767

Avg Lookahead Depth:	2.37568
TOTAL: 1.04339e+08	L2C: 7.71365e+07	LLC: 2.7203e+07	GOOD_L2C: 4.61466e+07
Printing all the perceptron weights to: perc_weights_0.csv

Avg Lookahead Depth:	2.37568
TOTAL: 1.04339e+08	L2C: 7.71365e+07	LLC: 2.7203e+07	GOOD_L2C: 4.61466e+07
Printing all the perceptron weights to: perc_weights_0.csv

Avg Lookahead Depth:	2.37568
TOTAL: 1.04339e+08	L2C: 7.71365e+07	LLC: 2.7203e+07	GOOD_L2C: 4.61466e+07
Printing all the perceptron weights to: perc_weights_0.csv

Avg Lookahead Depth:	2.37568
TOTAL: 1.04339e+08	L2C: 7.71365e+07	LLC: 2.7203e+07	GOOD_L2C: 4.61466e+07
Printing all the perceptron weights to: perc_weights_0.csv

Avg Lookahead Depth:	2.37568
TOTAL: 1.04339e+08	L2C: 7.71365e+07	LLC: 2.7203e+07	GOOD_L2C: 4.61466e+07
Printing all the perceptron weights to: perc_weights_0.csv

Avg Lookahead Depth:	2.37568
TOTAL: 1.04339e+08	L2C: 7.71365e+07	LLC: 2.7203e+07	GOOD_L2C: 4.61466e+07
Printing all the perceptron weights to: perc_weights_0.csv

Avg Lookahead Depth:	2.37568
TOTAL: 1.04339e+08	L2C: 7.71365e+07	LLC: 2.7203e+07	GOOD_L2C: 4.61466e+07
Printing all the perceptron weights to: perc_weights_0.csv

Avg Lookahead Depth:	2.37568
TOTAL: 1.04339e+08	L2C: 7.71365e+07	LLC: 2.7203e+07	GOOD_L2C: 4.61466e+07
Printing all the perceptron weights to: perc_weights_0.csv

DRAM Statistics
 CHANNEL 0
 RQ ROW_BUFFER_HIT:    7680747  ROW_BUFFER_MISS:   13397708
 DBUS_CONGESTED:   48289328
 WQ ROW_BUFFER_HIT:     636437  ROW_BUFFER_MISS:    7027811  FULL:          0

 CHANNEL 1
 RQ ROW_BUFFER_HIT:    7646532  ROW_BUFFER_MISS:   13434303
 DBUS_CONGESTED:   48289328
 WQ ROW_BUFFER_HIT:     637147  ROW_BUFFER_MISS:    7028056  FULL:          0

 AVG_CONGESTED_CYCLE: 14
