
*** ChampSim Multicore Out-of-Order Simulator ***

Warmup Instructions: 200000000
Simulation Instructions: 1000000000
Number of CPUs: 4
LLC sets: 8192
LLC ways: 16
Off-chip DRAM Size: 8192 MB Channels: 2 Width: 64-bit Data Rate: 1600 MT/s

CPU 0 runs /scratch/user/djimenez/champsim-traces/speccpu2017/xz/625.x264_s/625.x264_s-18B.champsimtrace.xz
CPU 1 runs /scratch/user/djimenez/champsim-traces/speccpu2017/xz/654.roms_s/654.roms_s-842B.champsimtrace.xz
CPU 2 runs /scratch/user/djimenez/champsim-traces/speccpu2017/xz/623.xalancbmk_s/623.xalancbmk_s-202B.champsimtrace.xz
CPU 3 runs /scratch/user/djimenez/champsim-traces/speccpu2017/xz/628.pop2_s/628.pop2_s-17B.champsimtrace.xz
Heartbeat CPU 1 instructions: 10000003 cycles: 3781212 heartbeat IPC: 2.64466 cumulative IPC: 2.64466 (Simulation time: 0 hr 1 min 28 sec) 
Heartbeat CPU 0 instructions: 10000003 cycles: 3849255 heartbeat IPC: 2.59791 cumulative IPC: 2.59791 (Simulation time: 0 hr 1 min 30 sec) 
Heartbeat CPU 3 instructions: 10000002 cycles: 4124977 heartbeat IPC: 2.42426 cumulative IPC: 2.42426 (Simulation time: 0 hr 1 min 37 sec) 
Heartbeat CPU 2 instructions: 10000000 cycles: 4172621 heartbeat IPC: 2.39658 cumulative IPC: 2.39658 (Simulation time: 0 hr 1 min 38 sec) 
Heartbeat CPU 1 instructions: 20000000 cycles: 7609838 heartbeat IPC: 2.6119 cumulative IPC: 2.62818 (Simulation time: 0 hr 3 min 1 sec) 
Heartbeat CPU 0 instructions: 20000000 cycles: 7705408 heartbeat IPC: 2.59326 cumulative IPC: 2.59558 (Simulation time: 0 hr 3 min 4 sec) 
Heartbeat CPU 3 instructions: 20000000 cycles: 8241129 heartbeat IPC: 2.42945 cumulative IPC: 2.42685 (Simulation time: 0 hr 3 min 17 sec) 
Heartbeat CPU 2 instructions: 20000000 cycles: 8325423 heartbeat IPC: 2.40801 cumulative IPC: 2.40228 (Simulation time: 0 hr 3 min 19 sec) 
Heartbeat CPU 1 instructions: 30000003 cycles: 11358083 heartbeat IPC: 2.66792 cumulative IPC: 2.64129 (Simulation time: 0 hr 4 min 32 sec) 
Heartbeat CPU 0 instructions: 30000001 cycles: 11528941 heartbeat IPC: 2.61538 cumulative IPC: 2.60215 (Simulation time: 0 hr 4 min 36 sec) 
Heartbeat CPU 3 instructions: 30000002 cycles: 12355624 heartbeat IPC: 2.43043 cumulative IPC: 2.42804 (Simulation time: 0 hr 4 min 56 sec) 
Heartbeat CPU 2 instructions: 30000000 cycles: 12475662 heartbeat IPC: 2.4095 cumulative IPC: 2.40468 (Simulation time: 0 hr 4 min 59 sec) 
Heartbeat CPU 1 instructions: 40000000 cycles: 15194398 heartbeat IPC: 2.60667 cumulative IPC: 2.63255 (Simulation time: 0 hr 6 min 3 sec) 
Heartbeat CPU 0 instructions: 40000000 cycles: 15345869 heartbeat IPC: 2.61991 cumulative IPC: 2.60656 (Simulation time: 0 hr 6 min 6 sec) 
Heartbeat CPU 3 instructions: 40000000 cycles: 16469429 heartbeat IPC: 2.43084 cumulative IPC: 2.42874 (Simulation time: 0 hr 6 min 31 sec) 
Heartbeat CPU 2 instructions: 40000000 cycles: 16635832 heartbeat IPC: 2.40375 cumulative IPC: 2.40445 (Simulation time: 0 hr 6 min 35 sec) 
Heartbeat CPU 0 instructions: 50000000 cycles: 19166354 heartbeat IPC: 2.61747 cumulative IPC: 2.60874 (Simulation time: 0 hr 7 min 34 sec) 
Heartbeat CPU 1 instructions: 50000002 cycles: 19227826 heartbeat IPC: 2.47928 cumulative IPC: 2.6004 (Simulation time: 0 hr 7 min 35 sec) 
Heartbeat CPU 3 instructions: 50000001 cycles: 20571828 heartbeat IPC: 2.4376 cumulative IPC: 2.43051 (Simulation time: 0 hr 8 min 6 sec) 
Heartbeat CPU 2 instructions: 50000000 cycles: 20797248 heartbeat IPC: 2.40303 cumulative IPC: 2.40416 (Simulation time: 0 hr 8 min 11 sec) 
Heartbeat CPU 0 instructions: 60000000 cycles: 22988005 heartbeat IPC: 2.61667 cumulative IPC: 2.61006 (Simulation time: 0 hr 9 min 2 sec) 
Heartbeat CPU 1 instructions: 60000000 cycles: 23029124 heartbeat IPC: 2.63068 cumulative IPC: 2.6054 (Simulation time: 0 hr 9 min 3 sec) 
Heartbeat CPU 3 instructions: 60000000 cycles: 24660598 heartbeat IPC: 2.44572 cumulative IPC: 2.43303 (Simulation time: 0 hr 9 min 43 sec) 
Heartbeat CPU 2 instructions: 60000000 cycles: 24952185 heartbeat IPC: 2.40678 cumulative IPC: 2.4046 (Simulation time: 0 hr 9 min 50 sec) 
Heartbeat CPU 1 instructions: 70000001 cycles: 26806334 heartbeat IPC: 2.64746 cumulative IPC: 2.61132 (Simulation time: 0 hr 10 min 34 sec) 
Heartbeat CPU 0 instructions: 70000001 cycles: 26812293 heartbeat IPC: 2.61487 cumulative IPC: 2.61074 (Simulation time: 0 hr 10 min 34 sec) 
Heartbeat CPU 3 instructions: 70000001 cycles: 28730646 heartbeat IPC: 2.45697 cumulative IPC: 2.43642 (Simulation time: 0 hr 11 min 19 sec) 
Heartbeat CPU 2 instructions: 70000003 cycles: 29123773 heartbeat IPC: 2.39717 cumulative IPC: 2.40353 (Simulation time: 0 hr 11 min 28 sec) 
Heartbeat CPU 1 instructions: 80000000 cycles: 30605181 heartbeat IPC: 2.63238 cumulative IPC: 2.61394 (Simulation time: 0 hr 12 min 5 sec) 
Heartbeat CPU 0 instructions: 80000000 cycles: 30636629 heartbeat IPC: 2.61483 cumulative IPC: 2.61125 (Simulation time: 0 hr 12 min 6 sec) 
Heartbeat CPU 3 instructions: 80000000 cycles: 32462296 heartbeat IPC: 2.67978 cumulative IPC: 2.4644 (Simulation time: 0 hr 12 min 49 sec) 
Heartbeat CPU 2 instructions: 80000000 cycles: 33282741 heartbeat IPC: 2.40444 cumulative IPC: 2.40365 (Simulation time: 0 hr 13 min 8 sec) 
Heartbeat CPU 1 instructions: 90000003 cycles: 34433503 heartbeat IPC: 2.61211 cumulative IPC: 2.61373 (Simulation time: 0 hr 13 min 36 sec) 
Heartbeat CPU 0 instructions: 90000003 cycles: 34462289 heartbeat IPC: 2.61393 cumulative IPC: 2.61155 (Simulation time: 0 hr 13 min 37 sec) 
Heartbeat CPU 3 instructions: 90000002 cycles: 36464871 heartbeat IPC: 2.49839 cumulative IPC: 2.46813 (Simulation time: 0 hr 14 min 26 sec) 
Heartbeat CPU 2 instructions: 90000000 cycles: 37445536 heartbeat IPC: 2.40223 cumulative IPC: 2.40349 (Simulation time: 0 hr 14 min 52 sec) 
Heartbeat CPU 1 instructions: 100000000 cycles: 38165035 heartbeat IPC: 2.67986 cumulative IPC: 2.6202 (Simulation time: 0 hr 15 min 16 sec) 
Heartbeat CPU 0 instructions: 100000000 cycles: 38283395 heartbeat IPC: 2.61704 cumulative IPC: 2.6121 (Simulation time: 0 hr 15 min 19 sec) 
Heartbeat CPU 3 instructions: 100000000 cycles: 40576856 heartbeat IPC: 2.43192 cumulative IPC: 2.46446 (Simulation time: 0 hr 16 min 20 sec) 
Heartbeat CPU 2 instructions: 100000000 cycles: 41604052 heartbeat IPC: 2.4047 cumulative IPC: 2.40361 (Simulation time: 0 hr 16 min 47 sec) 
Heartbeat CPU 1 instructions: 110000001 cycles: 42036159 heartbeat IPC: 2.58323 cumulative IPC: 2.61679 (Simulation time: 0 hr 16 min 59 sec) 
Heartbeat CPU 0 instructions: 110000001 cycles: 42097169 heartbeat IPC: 2.62207 cumulative IPC: 2.613 (Simulation time: 0 hr 17 min 1 sec) 
Heartbeat CPU 3 instructions: 110000003 cycles: 44464888 heartbeat IPC: 2.572 cumulative IPC: 2.47386 (Simulation time: 0 hr 18 min 12 sec) 
Heartbeat CPU 2 instructions: 110000002 cycles: 45750655 heartbeat IPC: 2.41161 cumulative IPC: 2.40434 (Simulation time: 0 hr 18 min 45 sec) 
Heartbeat CPU 1 instructions: 120000000 cycles: 45788170 heartbeat IPC: 2.66524 cumulative IPC: 2.62076 (Simulation time: 0 hr 18 min 46 sec) 
Heartbeat CPU 0 instructions: 120000000 cycles: 45913104 heartbeat IPC: 2.62059 cumulative IPC: 2.61363 (Simulation time: 0 hr 18 min 49 sec) 
Heartbeat CPU 3 instructions: 120000000 cycles: 48451435 heartbeat IPC: 2.50844 cumulative IPC: 2.47671 (Simulation time: 0 hr 19 min 50 sec) 
Heartbeat CPU 1 instructions: 130000002 cycles: 49498460 heartbeat IPC: 2.69521 cumulative IPC: 2.62634 (Simulation time: 0 hr 20 min 16 sec) 
Heartbeat CPU 0 instructions: 130000003 cycles: 49731660 heartbeat IPC: 2.61879 cumulative IPC: 2.61403 (Simulation time: 0 hr 20 min 22 sec) 
Heartbeat CPU 2 instructions: 120000000 cycles: 49906201 heartbeat IPC: 2.40642 cumulative IPC: 2.40451 (Simulation time: 0 hr 20 min 26 sec) 
Heartbeat CPU 3 instructions: 130000003 cycles: 52742197 heartbeat IPC: 2.33059 cumulative IPC: 2.46482 (Simulation time: 0 hr 21 min 42 sec) 
Heartbeat CPU 1 instructions: 140000000 cycles: 53335250 heartbeat IPC: 2.60634 cumulative IPC: 2.62491 (Simulation time: 0 hr 21 min 57 sec) 
Heartbeat CPU 0 instructions: 140000000 cycles: 53561058 heartbeat IPC: 2.61138 cumulative IPC: 2.61384 (Simulation time: 0 hr 22 min 2 sec) 
Heartbeat CPU 2 instructions: 130000001 cycles: 54063688 heartbeat IPC: 2.4053 cumulative IPC: 2.40457 (Simulation time: 0 hr 22 min 13 sec) 
Heartbeat CPU 3 instructions: 140000000 cycles: 56976292 heartbeat IPC: 2.36178 cumulative IPC: 2.45716 (Simulation time: 0 hr 23 min 13 sec) 
Heartbeat CPU 1 instructions: 150000003 cycles: 57173225 heartbeat IPC: 2.60554 cumulative IPC: 2.62361 (Simulation time: 0 hr 23 min 17 sec) 
Heartbeat CPU 0 instructions: 150000003 cycles: 57618718 heartbeat IPC: 2.46448 cumulative IPC: 2.60332 (Simulation time: 0 hr 23 min 26 sec) 
Heartbeat CPU 2 instructions: 140000000 cycles: 58223622 heartbeat IPC: 2.40388 cumulative IPC: 2.40452 (Simulation time: 0 hr 23 min 39 sec) 
Heartbeat CPU 3 instructions: 150000001 cycles: 60818892 heartbeat IPC: 2.6024 cumulative IPC: 2.46634 (Simulation time: 0 hr 24 min 33 sec) 
Heartbeat CPU 1 instructions: 160000000 cycles: 60921425 heartbeat IPC: 2.66795 cumulative IPC: 2.62633 (Simulation time: 0 hr 24 min 36 sec) 
Heartbeat CPU 0 instructions: 160000000 cycles: 61789880 heartbeat IPC: 2.39741 cumulative IPC: 2.58942 (Simulation time: 0 hr 24 min 53 sec) 
Heartbeat CPU 2 instructions: 150000000 cycles: 62383062 heartbeat IPC: 2.40417 cumulative IPC: 2.4045 (Simulation time: 0 hr 25 min 5 sec) 
Heartbeat CPU 1 instructions: 170000003 cycles: 64720349 heartbeat IPC: 2.63233 cumulative IPC: 2.62669 (Simulation time: 0 hr 25 min 55 sec) 
Heartbeat CPU 3 instructions: 160000000 cycles: 65100149 heartbeat IPC: 2.33576 cumulative IPC: 2.45775 (Simulation time: 0 hr 26 min 3 sec) 
Heartbeat CPU 0 instructions: 170000001 cycles: 65813251 heartbeat IPC: 2.48548 cumulative IPC: 2.58307 (Simulation time: 0 hr 26 min 17 sec) 
Heartbeat CPU 2 instructions: 160000000 cycles: 66540812 heartbeat IPC: 2.40515 cumulative IPC: 2.40454 (Simulation time: 0 hr 26 min 32 sec) 
Heartbeat CPU 1 instructions: 180000000 cycles: 68607839 heartbeat IPC: 2.57235 cumulative IPC: 2.62361 (Simulation time: 0 hr 27 min 19 sec) 
Heartbeat CPU 3 instructions: 170000002 cycles: 69199089 heartbeat IPC: 2.43966 cumulative IPC: 2.45668 (Simulation time: 0 hr 27 min 32 sec) 
Heartbeat CPU 0 instructions: 180000000 cycles: 69981611 heartbeat IPC: 2.39902 cumulative IPC: 2.5721 (Simulation time: 0 hr 27 min 49 sec) 
Heartbeat CPU 2 instructions: 170000001 cycles: 70710107 heartbeat IPC: 2.39849 cumulative IPC: 2.40418 (Simulation time: 0 hr 28 min 6 sec) 
Heartbeat CPU 1 instructions: 190000000 cycles: 72448874 heartbeat IPC: 2.60346 cumulative IPC: 2.62254 (Simulation time: 0 hr 28 min 45 sec) 
Heartbeat CPU 3 instructions: 180000000 cycles: 73296585 heartbeat IPC: 2.44051 cumulative IPC: 2.45578 (Simulation time: 0 hr 29 min 6 sec) 
Heartbeat CPU 0 instructions: 190000000 cycles: 74167033 heartbeat IPC: 2.38925 cumulative IPC: 2.56178 (Simulation time: 0 hr 29 min 25 sec) 
Heartbeat CPU 2 instructions: 180000000 cycles: 74872933 heartbeat IPC: 2.40221 cumulative IPC: 2.40407 (Simulation time: 0 hr 29 min 42 sec) 
Heartbeat CPU 1 instructions: 200000000 cycles: 76243658 heartbeat IPC: 2.6352 cumulative IPC: 2.62317 (Simulation time: 0 hr 30 min 13 sec) 
Heartbeat CPU 3 instructions: 190000002 cycles: 77409739 heartbeat IPC: 2.43122 cumulative IPC: 2.45447 (Simulation time: 0 hr 30 min 40 sec) 
Heartbeat CPU 0 instructions: 200000000 cycles: 78183597 heartbeat IPC: 2.48969 cumulative IPC: 2.55808 (Simulation time: 0 hr 30 min 58 sec) 
Heartbeat CPU 2 instructions: 190000001 cycles: 79034877 heartbeat IPC: 2.40272 cumulative IPC: 2.404 (Simulation time: 0 hr 31 min 17 sec) 
Heartbeat CPU 1 instructions: 210000001 cycles: 79966130 heartbeat IPC: 2.68639 cumulative IPC: 0.125053 (Simulation time: 0 hr 31 min 41 sec) 
Heartbeat CPU 3 instructions: 200000000 cycles: 81519526 heartbeat IPC: 2.43322 cumulative IPC: 2.4534 (Simulation time: 0 hr 32 min 17 sec) 
Heartbeat CPU 0 instructions: 210000002 cycles: 82357308 heartbeat IPC: 2.39595 cumulative IPC: 0.121422 (Simulation time: 0 hr 32 min 37 sec) 
Heartbeat CPU 2 instructions: 200000000 cycles: 83198903 heartbeat IPC: 2.40152 cumulative IPC: 2.40388 (Simulation time: 0 hr 32 min 57 sec) 

Warmup complete CPU 0 instructions: 212173752 cycles: 83198904 (Simulation time: 0 hr 32 min 57 sec) 
Warmup complete CPU 1 instructions: 218545122 cycles: 83198904 (Simulation time: 0 hr 32 min 57 sec) 
Warmup complete CPU 2 instructions: 200000002 cycles: 83198904 (Simulation time: 0 hr 32 min 57 sec) 
Warmup complete CPU 3 instructions: 204112799 cycles: 83198903 (Simulation time: 0 hr 32 min 57 sec) 

Heartbeat CPU 1 instructions: 220000000 cycles: 85014777 heartbeat IPC: 1.98073 cumulative IPC: 0.8012 (Simulation time: 0 hr 33 min 28 sec) 
Heartbeat CPU 0 instructions: 220000000 cycles: 88656861 heartbeat IPC: 1.58741 cumulative IPC: 1.43392 (Simulation time: 0 hr 34 min 15 sec) 
Heartbeat CPU 3 instructions: 210000001 cycles: 89216575 heartbeat IPC: 1.2992 cumulative IPC: 0.978319 (Simulation time: 0 hr 34 min 22 sec) 
Heartbeat CPU 1 instructions: 230000003 cycles: 95058635 heartbeat IPC: 0.995634 cumulative IPC: 0.965863 (Simulation time: 0 hr 35 min 37 sec) 
Heartbeat CPU 0 instructions: 230000000 cycles: 95717640 heartbeat IPC: 1.41627 cumulative IPC: 1.42397 (Simulation time: 0 hr 35 min 49 sec) 
Heartbeat CPU 2 instructions: 210000002 cycles: 98784919 heartbeat IPC: 0.641601 cumulative IPC: 0.641601 (Simulation time: 0 hr 36 min 51 sec) 
Heartbeat CPU 3 instructions: 220000000 cycles: 99415873 heartbeat IPC: 0.98046 cumulative IPC: 0.979665 (Simulation time: 0 hr 37 min 2 sec) 
Heartbeat CPU 0 instructions: 240000000 cycles: 102700862 heartbeat IPC: 1.432 cumulative IPC: 1.42684 (Simulation time: 0 hr 38 min 4 sec) 
Heartbeat CPU 1 instructions: 240000000 cycles: 105742808 heartbeat IPC: 0.935964 cumulative IPC: 0.951693 (Simulation time: 0 hr 38 min 50 sec) 
Heartbeat CPU 3 instructions: 230000003 cycles: 109671383 heartbeat IPC: 0.975086 cumulative IPC: 0.977891 (Simulation time: 0 hr 39 min 49 sec) 
Heartbeat CPU 0 instructions: 250000001 cycles: 109838172 heartbeat IPC: 1.40109 cumulative IPC: 1.41994 (Simulation time: 0 hr 39 min 51 sec) 
Heartbeat CPU 2 instructions: 220000000 cycles: 114578475 heartbeat IPC: 0.63317 cumulative IPC: 0.637357 (Simulation time: 0 hr 40 min 56 sec) 
Heartbeat CPU 1 instructions: 250000000 cycles: 116373346 heartbeat IPC: 0.940686 cumulative IPC: 0.948166 (Simulation time: 0 hr 41 min 19 sec) 
Heartbeat CPU 0 instructions: 260000000 cycles: 116808397 heartbeat IPC: 1.43467 cumulative IPC: 1.423 (Simulation time: 0 hr 41 min 25 sec) 
Heartbeat CPU 3 instructions: 240000000 cycles: 119949238 heartbeat IPC: 0.972965 cumulative IPC: 0.976514 (Simulation time: 0 hr 42 min 10 sec) 
Heartbeat CPU 0 instructions: 270000000 cycles: 123781723 heartbeat IPC: 1.43404 cumulative IPC: 1.42489 (Simulation time: 0 hr 43 min 17 sec) 
Heartbeat CPU 1 instructions: 260000000 cycles: 126636861 heartbeat IPC: 0.974325 cumulative IPC: 0.954347 (Simulation time: 0 hr 44 min 1 sec) 
Heartbeat CPU 3 instructions: 250000003 cycles: 129836764 heartbeat IPC: 1.01138 cumulative IPC: 0.983905 (Simulation time: 0 hr 44 min 51 sec) 
Heartbeat CPU 2 instructions: 230000003 cycles: 130868754 heartbeat IPC: 0.613863 cumulative IPC: 0.629329 (Simulation time: 0 hr 45 min 7 sec) 
Heartbeat CPU 0 instructions: 280000000 cycles: 130897404 heartbeat IPC: 1.40535 cumulative IPC: 1.42198 (Simulation time: 0 hr 45 min 7 sec) 
Heartbeat CPU 1 instructions: 270000002 cycles: 137244612 heartbeat IPC: 0.942707 cumulative IPC: 0.952062 (Simulation time: 0 hr 46 min 55 sec) 
Heartbeat CPU 0 instructions: 290000001 cycles: 137842790 heartbeat IPC: 1.4398 cumulative IPC: 1.42424 (Simulation time: 0 hr 47 min 4 sec) 
Heartbeat CPU 3 instructions: 260000000 cycles: 138682071 heartbeat IPC: 1.13054 cumulative IPC: 1.00728 (Simulation time: 0 hr 47 min 19 sec) 
Heartbeat CPU 0 instructions: 300000000 cycles: 144742454 heartbeat IPC: 1.44935 cumulative IPC: 1.42706 (Simulation time: 0 hr 48 min 40 sec) 
Heartbeat CPU 2 instructions: 240000000 cycles: 146664685 heartbeat IPC: 0.633074 cumulative IPC: 0.630261 (Simulation time: 0 hr 49 min 6 sec) 
Heartbeat CPU 1 instructions: 280000000 cycles: 147639286 heartbeat IPC: 0.962031 cumulative IPC: 0.95367 (Simulation time: 0 hr 49 min 18 sec) 
Heartbeat CPU 3 instructions: 270000001 cycles: 148882183 heartbeat IPC: 0.980381 cumulative IPC: 1.0031 (Simulation time: 0 hr 49 min 34 sec) 
Heartbeat CPU 0 instructions: 310000000 cycles: 151896013 heartbeat IPC: 1.39791 cumulative IPC: 1.42402 (Simulation time: 0 hr 50 min 10 sec) 
Heartbeat CPU 1 instructions: 290000003 cycles: 157695386 heartbeat IPC: 0.994422 cumulative IPC: 0.959171 (Simulation time: 0 hr 51 min 27 sec) 
Heartbeat CPU 3 instructions: 280000000 cycles: 158494698 heartbeat IPC: 1.04031 cumulative IPC: 1.00785 (Simulation time: 0 hr 51 min 37 sec) 
Heartbeat CPU 0 instructions: 320000000 cycles: 158822750 heartbeat IPC: 1.44368 cumulative IPC: 1.42582 (Simulation time: 0 hr 51 min 41 sec) 
Heartbeat CPU 2 instructions: 250000000 cycles: 163301641 heartbeat IPC: 0.601071 cumulative IPC: 0.624198 (Simulation time: 0 hr 52 min 38 sec) 
Heartbeat CPU 0 instructions: 330000000 cycles: 165745010 heartbeat IPC: 1.44461 cumulative IPC: 1.4274 (Simulation time: 0 hr 53 min 10 sec) 
Heartbeat CPU 3 instructions: 290000000 cycles: 167188912 heartbeat IPC: 1.15019 cumulative IPC: 1.02259 (Simulation time: 0 hr 53 min 29 sec) 
Heartbeat CPU 1 instructions: 300000000 cycles: 167968521 heartbeat IPC: 0.973412 cumulative IPC: 0.960897 (Simulation time: 0 hr 53 min 38 sec) 
Heartbeat CPU 0 instructions: 340000000 cycles: 172689525 heartbeat IPC: 1.43999 cumulative IPC: 1.42838 (Simulation time: 0 hr 54 min 35 sec) 
Heartbeat CPU 3 instructions: 300000000 cycles: 176967676 heartbeat IPC: 1.02262 cumulative IPC: 1.02259 (Simulation time: 0 hr 55 min 28 sec) 
Heartbeat CPU 1 instructions: 310000000 cycles: 177947763 heartbeat IPC: 1.00208 cumulative IPC: 0.965235 (Simulation time: 0 hr 55 min 40 sec) 
Heartbeat CPU 0 instructions: 350000003 cycles: 179606740 heartbeat IPC: 1.44567 cumulative IPC: 1.42962 (Simulation time: 0 hr 56 min 0 sec) 
Heartbeat CPU 2 instructions: 260000000 cycles: 181595585 heartbeat IPC: 0.546629 cumulative IPC: 0.609777 (Simulation time: 0 hr 56 min 26 sec) 
Heartbeat CPU 0 instructions: 360000000 cycles: 186515835 heartbeat IPC: 1.44737 cumulative IPC: 1.4308 (Simulation time: 0 hr 57 min 28 sec) 
Heartbeat CPU 3 instructions: 310000000 cycles: 187016907 heartbeat IPC: 0.995101 cumulative IPC: 1.01993 (Simulation time: 0 hr 57 min 34 sec) 
Heartbeat CPU 1 instructions: 320000000 cycles: 187929754 heartbeat IPC: 1.0018 cumulative IPC: 0.96872 (Simulation time: 0 hr 57 min 45 sec) 
Heartbeat CPU 0 instructions: 370000000 cycles: 193418884 heartbeat IPC: 1.44864 cumulative IPC: 1.43192 (Simulation time: 0 hr 58 min 50 sec) 
Heartbeat CPU 3 instructions: 320000000 cycles: 195579144 heartbeat IPC: 1.16792 cumulative IPC: 1.03121 (Simulation time: 0 hr 59 min 18 sec) 
Heartbeat CPU 1 instructions: 330000001 cycles: 197913620 heartbeat IPC: 1.00162 cumulative IPC: 0.971583 (Simulation time: 0 hr 59 min 46 sec) 
Heartbeat CPU 2 instructions: 270000002 cycles: 200033870 heartbeat IPC: 0.54235 cumulative IPC: 0.599136 (Simulation time: 1 hr 0 min 12 sec) 
Heartbeat CPU 0 instructions: 380000000 cycles: 200320601 heartbeat IPC: 1.44891 cumulative IPC: 1.43292 (Simulation time: 1 hr 0 min 15 sec) 
Heartbeat CPU 3 instructions: 330000002 cycles: 204982772 heartbeat IPC: 1.06342 cumulative IPC: 1.03369 (Simulation time: 1 hr 1 min 12 sec) 
Heartbeat CPU 0 instructions: 390000003 cycles: 207295513 heartbeat IPC: 1.43371 cumulative IPC: 1.43297 (Simulation time: 1 hr 1 min 41 sec) 
Heartbeat CPU 1 instructions: 340000000 cycles: 208193708 heartbeat IPC: 0.972754 cumulative IPC: 0.971679 (Simulation time: 1 hr 1 min 52 sec) 
Heartbeat CPU 3 instructions: 340000000 cycles: 214348357 heartbeat IPC: 1.06774 cumulative IPC: 1.03612 (Simulation time: 1 hr 3 min 5 sec) 
Heartbeat CPU 2 instructions: 280000000 cycles: 216631163 heartbeat IPC: 0.602508 cumulative IPC: 0.599555 (Simulation time: 1 hr 3 min 27 sec) 
Heartbeat CPU 0 instructions: 400000000 cycles: 217927986 heartbeat IPC: 0.940515 cumulative IPC: 1.3941 (Simulation time: 1 hr 3 min 41 sec) 
Heartbeat CPU 1 instructions: 350000000 cycles: 218241981 heartbeat IPC: 0.995196 cumulative IPC: 0.973429 (Simulation time: 1 hr 3 min 45 sec) 
Heartbeat CPU 0 instructions: 410000002 cycles: 223019595 heartbeat IPC: 1.96402 cumulative IPC: 1.41486 (Simulation time: 1 hr 4 min 48 sec) 
Heartbeat CPU 3 instructions: 350000000 cycles: 225246041 heartbeat IPC: 0.917626 cumulative IPC: 1.02703 (Simulation time: 1 hr 5 min 19 sec) 
Heartbeat CPU 1 instructions: 360000000 cycles: 228362959 heartbeat IPC: 0.988047 cumulative IPC: 0.974448 (Simulation time: 1 hr 5 min 58 sec) 
Heartbeat CPU 0 instructions: 420000000 cycles: 228799087 heartbeat IPC: 1.73026 cumulative IPC: 1.42738 (Simulation time: 1 hr 6 min 3 sec) 
Heartbeat CPU 2 instructions: 290000000 cycles: 234045036 heartbeat IPC: 0.574255 cumulative IPC: 0.596634 (Simulation time: 1 hr 7 min 5 sec) 
Heartbeat CPU 0 instructions: 430000000 cycles: 236285958 heartbeat IPC: 1.33567 cumulative IPC: 1.42289 (Simulation time: 1 hr 7 min 34 sec) 
Heartbeat CPU 3 instructions: 360000000 cycles: 237329199 heartbeat IPC: 0.827598 cumulative IPC: 1.0114 (Simulation time: 1 hr 7 min 47 sec) 
Heartbeat CPU 1 instructions: 370000001 cycles: 238572908 heartbeat IPC: 0.979437 cumulative IPC: 0.974776 (Simulation time: 1 hr 8 min 3 sec) 
Heartbeat CPU 0 instructions: 440000000 cycles: 243155533 heartbeat IPC: 1.45569 cumulative IPC: 1.4243 (Simulation time: 1 hr 9 min 2 sec) 
Heartbeat CPU 3 instructions: 370000001 cycles: 248149626 heartbeat IPC: 0.924178 cumulative IPC: 1.00568 (Simulation time: 1 hr 10 min 2 sec) 
Heartbeat CPU 0 instructions: 450000002 cycles: 249939802 heartbeat IPC: 1.474 cumulative IPC: 1.42632 (Simulation time: 1 hr 10 min 22 sec) 
Heartbeat CPU 1 instructions: 380000000 cycles: 250497296 heartbeat IPC: 0.838617 cumulative IPC: 0.965071 (Simulation time: 1 hr 10 min 29 sec) 
Heartbeat CPU 2 instructions: 300000000 cycles: 250627904 heartbeat IPC: 0.603032 cumulative IPC: 0.597268 (Simulation time: 1 hr 10 min 30 sec) 
Heartbeat CPU 0 instructions: 460000000 cycles: 256788473 heartbeat IPC: 1.46014 cumulative IPC: 1.42766 (Simulation time: 1 hr 11 min 48 sec) 
Heartbeat CPU 3 instructions: 380000000 cycles: 258792358 heartbeat IPC: 0.939608 cumulative IPC: 1.00167 (Simulation time: 1 hr 12 min 14 sec) 
Heartbeat CPU 1 instructions: 390000000 cycles: 261200423 heartbeat IPC: 0.934306 cumulative IPC: 0.963221 (Simulation time: 1 hr 12 min 46 sec) 
Heartbeat CPU 0 instructions: 470000000 cycles: 263676226 heartbeat IPC: 1.45185 cumulative IPC: 1.42858 (Simulation time: 1 hr 13 min 17 sec) 
Heartbeat CPU 2 instructions: 310000003 cycles: 266612724 heartbeat IPC: 0.625594 cumulative IPC: 0.599737 (Simulation time: 1 hr 13 min 55 sec) 
Heartbeat CPU 3 instructions: 390000003 cycles: 269278446 heartbeat IPC: 0.953645 cumulative IPC: 0.998966 (Simulation time: 1 hr 14 min 29 sec) 
Heartbeat CPU 0 instructions: 480000000 cycles: 270527951 heartbeat IPC: 1.45949 cumulative IPC: 1.42971 (Simulation time: 1 hr 14 min 44 sec) 
Heartbeat CPU 1 instructions: 400000000 cycles: 271400247 heartbeat IPC: 0.980409 cumulative IPC: 0.964153 (Simulation time: 1 hr 14 min 55 sec) 
Heartbeat CPU 0 instructions: 490000002 cycles: 277440982 heartbeat IPC: 1.44654 cumulative IPC: 1.43031 (Simulation time: 1 hr 16 min 23 sec) 
Heartbeat CPU 3 instructions: 400000000 cycles: 279747544 heartbeat IPC: 0.955192 cumulative IPC: 0.996635 (Simulation time: 1 hr 16 min 55 sec) 
Heartbeat CPU 1 instructions: 410000001 cycles: 281515981 heartbeat IPC: 0.988559 cumulative IPC: 0.965398 (Simulation time: 1 hr 17 min 19 sec) 
Heartbeat CPU 2 instructions: 320000000 cycles: 283103914 heartbeat IPC: 0.606384 cumulative IPC: 0.600285 (Simulation time: 1 hr 17 min 41 sec) 
Heartbeat CPU 0 instructions: 500000000 cycles: 284264040 heartbeat IPC: 1.46562 cumulative IPC: 1.43151 (Simulation time: 1 hr 17 min 58 sec) 
Heartbeat CPU 3 instructions: 410000001 cycles: 290232268 heartbeat IPC: 0.953769 cumulative IPC: 0.994464 (Simulation time: 1 hr 19 min 27 sec) 
Heartbeat CPU 0 instructions: 510000001 cycles: 291063286 heartbeat IPC: 1.47075 cumulative IPC: 1.43279 (Simulation time: 1 hr 19 min 38 sec) 
Heartbeat CPU 1 instructions: 420000000 cycles: 291567568 heartbeat IPC: 0.994868 cumulative IPC: 0.966819 (Simulation time: 1 hr 19 min 45 sec) 
Heartbeat CPU 0 instructions: 520000000 cycles: 297780376 heartbeat IPC: 1.48874 cumulative IPC: 1.43454 (Simulation time: 1 hr 21 min 15 sec) 
Heartbeat CPU 2 instructions: 330000002 cycles: 299918505 heartbeat IPC: 0.594722 cumulative IPC: 0.599853 (Simulation time: 1 hr 21 min 47 sec) 
Heartbeat CPU 3 instructions: 420000000 cycles: 300689601 heartbeat IPC: 0.956267 cumulative IPC: 0.992627 (Simulation time: 1 hr 21 min 57 sec) 
Heartbeat CPU 1 instructions: 430000003 cycles: 302967651 heartbeat IPC: 0.877187 cumulative IPC: 0.96217 (Simulation time: 1 hr 22 min 32 sec) 
Heartbeat CPU 0 instructions: 530000000 cycles: 304587861 heartbeat IPC: 1.46897 cumulative IPC: 1.4356 (Simulation time: 1 hr 22 min 57 sec) 
Heartbeat CPU 3 instructions: 430000001 cycles: 310942966 heartbeat IPC: 0.97529 cumulative IPC: 0.991847 (Simulation time: 1 hr 24 min 29 sec) 
Heartbeat CPU 0 instructions: 540000000 cycles: 311464086 heartbeat IPC: 1.45429 cumulative IPC: 1.43616 (Simulation time: 1 hr 24 min 37 sec) 
Heartbeat CPU 1 instructions: 440000000 cycles: 313859326 heartbeat IPC: 0.918132 cumulative IPC: 0.960091 (Simulation time: 1 hr 25 min 14 sec) 
Heartbeat CPU 2 instructions: 340000000 cycles: 315662549 heartbeat IPC: 0.635161 cumulative IPC: 0.602245 (Simulation time: 1 hr 25 min 39 sec) 
Heartbeat CPU 0 instructions: 550000003 cycles: 318125865 heartbeat IPC: 1.5011 cumulative IPC: 1.43801 (Simulation time: 1 hr 26 min 12 sec) 
Heartbeat CPU 3 instructions: 440000000 cycles: 319256537 heartbeat IPC: 1.20285 cumulative IPC: 0.999278 (Simulation time: 1 hr 26 min 27 sec) 
Heartbeat CPU 0 instructions: 560000000 cycles: 324905745 heartbeat IPC: 1.47495 cumulative IPC: 1.43904 (Simulation time: 1 hr 27 min 46 sec) 
Heartbeat CPU 1 instructions: 450000001 cycles: 326887989 heartbeat IPC: 0.767539 cumulative IPC: 0.949796 (Simulation time: 1 hr 28 min 15 sec) 
Heartbeat CPU 3 instructions: 450000000 cycles: 330521224 heartbeat IPC: 0.88773 cumulative IPC: 0.994197 (Simulation time: 1 hr 28 min 54 sec) 
Heartbeat CPU 2 instructions: 350000001 cycles: 332467781 heartbeat IPC: 0.595053 cumulative IPC: 0.60176 (Simulation time: 1 hr 29 min 17 sec) 
Heartbeat CPU 0 instructions: 570000001 cycles: 334699713 heartbeat IPC: 1.02104 cumulative IPC: 1.42276 (Simulation time: 1 hr 29 min 48 sec) 
Heartbeat CPU 1 instructions: 460000000 cycles: 337012511 heartbeat IPC: 0.987701 cumulative IPC: 0.951308 (Simulation time: 1 hr 30 min 22 sec) 
Heartbeat CPU 0 instructions: 580000000 cycles: 339571947 heartbeat IPC: 2.05245 cumulative IPC: 1.43473 (Simulation time: 1 hr 31 min 0 sec) 
Heartbeat CPU 3 instructions: 460000000 cycles: 340361867 heartbeat IPC: 1.01619 cumulative IPC: 0.995039 (Simulation time: 1 hr 31 min 11 sec) 
Heartbeat CPU 1 instructions: 470000001 cycles: 347221703 heartbeat IPC: 0.97951 cumulative IPC: 0.952398 (Simulation time: 1 hr 32 min 31 sec) 
Heartbeat CPU 0 instructions: 590000002 cycles: 347506321 heartbeat IPC: 1.26034 cumulative IPC: 1.4295 (Simulation time: 1 hr 32 min 34 sec) 
Heartbeat CPU 3 instructions: 470000003 cycles: 350316678 heartbeat IPC: 1.00454 cumulative IPC: 0.995393 (Simulation time: 1 hr 33 min 9 sec) 
Heartbeat CPU 2 instructions: 360000000 cycles: 351630459 heartbeat IPC: 0.521848 cumulative IPC: 0.596055 (Simulation time: 1 hr 33 min 26 sec) 
Heartbeat CPU 0 instructions: 600000000 cycles: 355498125 heartbeat IPC: 1.25128 cumulative IPC: 1.42427 (Simulation time: 1 hr 34 min 13 sec) 
Heartbeat CPU 1 instructions: 480000000 cycles: 357585797 heartbeat IPC: 0.96487 cumulative IPC: 0.952869 (Simulation time: 1 hr 34 min 39 sec) 
Heartbeat CPU 3 instructions: 480000000 cycles: 359727551 heartbeat IPC: 1.0626 cumulative IPC: 0.99768 (Simulation time: 1 hr 35 min 6 sec) 
Heartbeat CPU 0 instructions: 610000001 cycles: 363329176 heartbeat IPC: 1.27697 cumulative IPC: 1.42015 (Simulation time: 1 hr 35 min 47 sec) 
Heartbeat CPU 2 instructions: 370000001 cycles: 369769973 heartbeat IPC: 0.551283 cumulative IPC: 0.593221 (Simulation time: 1 hr 36 min 51 sec) 
Heartbeat CPU 3 instructions: 490000000 cycles: 369785647 heartbeat IPC: 0.994224 cumulative IPC: 0.997559 (Simulation time: 1 hr 36 min 51 sec) 
Heartbeat CPU 0 instructions: 620000000 cycles: 371237144 heartbeat IPC: 1.26455 cumulative IPC: 1.41588 (Simulation time: 1 hr 37 min 5 sec) 
Heartbeat CPU 0 instructions: 630000001 cycles: 379250352 heartbeat IPC: 1.24794 cumulative IPC: 1.41133 (Simulation time: 1 hr 38 min 15 sec) 
Heartbeat CPU 3 instructions: 500000000 cycles: 379407206 heartbeat IPC: 1.03933 cumulative IPC: 0.998916 (Simulation time: 1 hr 38 min 16 sec) 
Heartbeat CPU 1 instructions: 490000001 cycles: 385127531 heartbeat IPC: 0.363085 cumulative IPC: 0.89907 (Simulation time: 1 hr 39 min 14 sec) 
Heartbeat CPU 0 instructions: 640000000 cycles: 387128940 heartbeat IPC: 1.26926 cumulative IPC: 1.40765 (Simulation time: 1 hr 39 min 34 sec) 
Heartbeat CPU 3 instructions: 510000001 cycles: 388293947 heartbeat IPC: 1.12527 cumulative IPC: 1.0026 (Simulation time: 1 hr 39 min 46 sec) 
Heartbeat CPU 0 instructions: 650000000 cycles: 394942387 heartbeat IPC: 1.27984 cumulative IPC: 1.40444 (Simulation time: 1 hr 40 min 55 sec) 
Heartbeat CPU 2 instructions: 380000000 cycles: 397094086 heartbeat IPC: 0.365977 cumulative IPC: 0.57344 (Simulation time: 1 hr 41 min 20 sec) 
Heartbeat CPU 3 instructions: 520000000 cycles: 398674440 heartbeat IPC: 0.963345 cumulative IPC: 1.0013 (Simulation time: 1 hr 41 min 37 sec) 
Heartbeat CPU 1 instructions: 500000000 cycles: 400055493 heartbeat IPC: 0.669884 cumulative IPC: 0.888272 (Simulation time: 1 hr 41 min 53 sec) 
Heartbeat CPU 0 instructions: 660000000 cycles: 402686823 heartbeat IPC: 1.29125 cumulative IPC: 1.4017 (Simulation time: 1 hr 42 min 23 sec) 
Heartbeat CPU 3 instructions: 530000001 cycles: 408871344 heartbeat IPC: 0.98069 cumulative IPC: 1.00066 (Simulation time: 1 hr 43 min 20 sec) 
Heartbeat CPU 0 instructions: 670000002 cycles: 412368822 heartbeat IPC: 1.03284 cumulative IPC: 1.39085 (Simulation time: 1 hr 44 min 2 sec) 
Heartbeat CPU 1 instructions: 510000000 cycles: 415003509 heartbeat IPC: 0.668985 cumulative IPC: 0.878393 (Simulation time: 1 hr 44 min 34 sec) 
Heartbeat CPU 0 instructions: 680000000 cycles: 417994167 heartbeat IPC: 1.77767 cumulative IPC: 1.39735 (Simulation time: 1 hr 45 min 5 sec) 
Heartbeat CPU 2 instructions: 390000003 cycles: 418008476 heartbeat IPC: 0.47814 cumulative IPC: 0.567487 (Simulation time: 1 hr 45 min 5 sec) 
Heartbeat CPU 3 instructions: 540000000 cycles: 421110214 heartbeat IPC: 0.817069 cumulative IPC: 0.99401 (Simulation time: 1 hr 45 min 36 sec) 
Heartbeat CPU 0 instructions: 690000000 cycles: 425867533 heartbeat IPC: 1.2701 cumulative IPC: 1.39443 (Simulation time: 1 hr 46 min 29 sec) 
Heartbeat CPU 1 instructions: 520000000 cycles: 429938351 heartbeat IPC: 0.669575 cumulative IPC: 0.869399 (Simulation time: 1 hr 47 min 17 sec) 
Heartbeat CPU 3 instructions: 550000003 cycles: 431833892 heartbeat IPC: 0.932516 cumulative IPC: 0.992118 (Simulation time: 1 hr 47 min 39 sec) 
Heartbeat CPU 0 instructions: 700000000 cycles: 433572698 heartbeat IPC: 1.29783 cumulative IPC: 1.3923 (Simulation time: 1 hr 47 min 59 sec) 
Heartbeat CPU 2 instructions: 400000000 cycles: 438005829 heartbeat IPC: 0.500066 cumulative IPC: 0.563687 (Simulation time: 1 hr 48 min 47 sec) 
Heartbeat CPU 0 instructions: 710000000 cycles: 441313196 heartbeat IPC: 1.29191 cumulative IPC: 1.39013 (Simulation time: 1 hr 49 min 25 sec) 
Heartbeat CPU 3 instructions: 560000000 cycles: 442402924 heartbeat IPC: 0.94616 cumulative IPC: 0.990766 (Simulation time: 1 hr 49 min 38 sec) 
Heartbeat CPU 1 instructions: 530000000 cycles: 444762123 heartbeat IPC: 0.674592 cumulative IPC: 0.861412 (Simulation time: 1 hr 50 min 6 sec) 
Heartbeat CPU 0 instructions: 720000000 cycles: 449015323 heartbeat IPC: 1.29834 cumulative IPC: 1.3882 (Simulation time: 1 hr 50 min 53 sec) 
Heartbeat CPU 3 instructions: 570000000 cycles: 452913562 heartbeat IPC: 0.951417 cumulative IPC: 0.989648 (Simulation time: 1 hr 51 min 38 sec) 
Heartbeat CPU 2 instructions: 410000000 cycles: 455671256 heartbeat IPC: 0.566077 cumulative IPC: 0.5638 (Simulation time: 1 hr 52 min 11 sec) 
Heartbeat CPU 0 instructions: 730000000 cycles: 456685736 heartbeat IPC: 1.30371 cumulative IPC: 1.38646 (Simulation time: 1 hr 52 min 23 sec) 
Heartbeat CPU 1 instructions: 540000000 cycles: 459585474 heartbeat IPC: 0.674611 cumulative IPC: 0.854055 (Simulation time: 1 hr 52 min 57 sec) 
Heartbeat CPU 3 instructions: 580000000 cycles: 463396739 heartbeat IPC: 0.953909 cumulative IPC: 0.988662 (Simulation time: 1 hr 53 min 41 sec) 
Heartbeat CPU 0 instructions: 740000000 cycles: 464411043 heartbeat IPC: 1.29445 cumulative IPC: 1.3846 (Simulation time: 1 hr 53 min 53 sec) 
Heartbeat CPU 2 instructions: 420000000 cycles: 470856983 heartbeat IPC: 0.658513 cumulative IPC: 0.56751 (Simulation time: 1 hr 55 min 10 sec) 
Heartbeat CPU 0 instructions: 750000003 cycles: 472122739 heartbeat IPC: 1.29673 cumulative IPC: 1.38286 (Simulation time: 1 hr 55 min 25 sec) 
Heartbeat CPU 3 instructions: 590000002 cycles: 473808663 heartbeat IPC: 0.960437 cumulative IPC: 0.98791 (Simulation time: 1 hr 55 min 45 sec) 
Heartbeat CPU 1 instructions: 550000000 cycles: 474371564 heartbeat IPC: 0.676311 cumulative IPC: 0.847337 (Simulation time: 1 hr 55 min 52 sec) 
Heartbeat CPU 0 instructions: 760000000 cycles: 482883901 heartbeat IPC: 0.929267 cumulative IPC: 1.37065 (Simulation time: 1 hr 57 min 26 sec) 
Heartbeat CPU 2 instructions: 430000001 cycles: 484068163 heartbeat IPC: 0.756935 cumulative IPC: 0.573753 (Simulation time: 1 hr 57 min 41 sec) 
Heartbeat CPU 3 instructions: 600000000 cycles: 484168335 heartbeat IPC: 0.965281 cumulative IPC: 0.987325 (Simulation time: 1 hr 57 min 42 sec) 
Heartbeat CPU 0 instructions: 770000003 cycles: 487805537 heartbeat IPC: 2.03185 cumulative IPC: 1.37869 (Simulation time: 1 hr 58 min 32 sec) 
Heartbeat CPU 1 instructions: 560000000 cycles: 492753458 heartbeat IPC: 0.544014 cumulative IPC: 0.833723 (Simulation time: 1 hr 59 min 26 sec) 
Heartbeat CPU 0 instructions: 780000000 cycles: 493993046 heartbeat IPC: 1.61616 cumulative IPC: 1.38226 (Simulation time: 1 hr 59 min 37 sec) 
Heartbeat CPU 3 instructions: 610000002 cycles: 494946047 heartbeat IPC: 0.927841 cumulative IPC: 0.985768 (Simulation time: 1 hr 59 min 46 sec) 
Heartbeat CPU 2 instructions: 440000000 cycles: 498445896 heartbeat IPC: 0.69552 cumulative IPC: 0.577969 (Simulation time: 2 hr 0 min 19 sec) 
Heartbeat CPU 0 instructions: 790000003 cycles: 501618680 heartbeat IPC: 1.31137 cumulative IPC: 1.38097 (Simulation time: 2 hr 0 min 51 sec) 
Heartbeat CPU 3 instructions: 620000000 cycles: 503445067 heartbeat IPC: 1.17661 cumulative IPC: 0.989628 (Simulation time: 2 hr 1 min 10 sec) 
Heartbeat CPU 0 instructions: 800000000 cycles: 509221217 heartbeat IPC: 1.31535 cumulative IPC: 1.3798 (Simulation time: 2 hr 2 min 4 sec) 
Heartbeat CPU 2 instructions: 450000003 cycles: 514085639 heartbeat IPC: 0.639397 cumulative IPC: 0.580199 (Simulation time: 2 hr 3 min 0 sec) 
Heartbeat CPU 3 instructions: 630000001 cycles: 515642130 heartbeat IPC: 0.81987 cumulative IPC: 0.98484 (Simulation time: 2 hr 3 min 18 sec) 
Heartbeat CPU 0 instructions: 810000003 cycles: 516752869 heartbeat IPC: 1.32773 cumulative IPC: 1.3789 (Simulation time: 2 hr 3 min 30 sec) 
Heartbeat CPU 1 instructions: 570000003 cycles: 519880357 heartbeat IPC: 0.368638 cumulative IPC: 0.804831 (Simulation time: 2 hr 4 min 6 sec) 
Heartbeat CPU 0 instructions: 820000000 cycles: 524288401 heartbeat IPC: 1.32705 cumulative IPC: 1.37801 (Simulation time: 2 hr 4 min 56 sec) 
Heartbeat CPU 3 instructions: 640000000 cycles: 525396908 heartbeat IPC: 1.02514 cumulative IPC: 0.985729 (Simulation time: 2 hr 5 min 10 sec) 
Heartbeat CPU 2 instructions: 460000000 cycles: 530258276 heartbeat IPC: 0.618328 cumulative IPC: 0.581578 (Simulation time: 2 hr 6 min 9 sec) 
Heartbeat CPU 0 instructions: 830000003 cycles: 531833427 heartbeat IPC: 1.32538 cumulative IPC: 1.37713 (Simulation time: 2 hr 6 min 26 sec) 
Heartbeat CPU 3 instructions: 650000000 cycles: 533885743 heartbeat IPC: 1.17802 cumulative IPC: 0.98935 (Simulation time: 2 hr 6 min 50 sec) 
Heartbeat CPU 1 instructions: 580000000 cycles: 534563649 heartbeat IPC: 0.681046 cumulative IPC: 0.800804 (Simulation time: 2 hr 6 min 59 sec) 
Heartbeat CPU 0 instructions: 840000000 cycles: 539413416 heartbeat IPC: 1.31926 cumulative IPC: 1.37616 (Simulation time: 2 hr 7 min 58 sec) 
Heartbeat CPU 3 instructions: 660000000 cycles: 542055310 heartbeat IPC: 1.22406 cumulative IPC: 0.993529 (Simulation time: 2 hr 8 min 31 sec) 
Heartbeat CPU 2 instructions: 470000000 cycles: 546691954 heartbeat IPC: 0.608507 cumulative IPC: 0.582533 (Simulation time: 2 hr 9 min 24 sec) 
Heartbeat CPU 0 instructions: 850000001 cycles: 546998844 heartbeat IPC: 1.31832 cumulative IPC: 1.37522 (Simulation time: 2 hr 9 min 28 sec) 
Heartbeat CPU 1 instructions: 590000002 cycles: 549402276 heartbeat IPC: 0.673917 cumulative IPC: 0.796766 (Simulation time: 2 hr 9 min 57 sec) 
Heartbeat CPU 3 instructions: 670000001 cycles: 551362082 heartbeat IPC: 1.07449 cumulative IPC: 0.995139 (Simulation time: 2 hr 10 min 21 sec) 
Heartbeat CPU 0 instructions: 860000000 cycles: 554558213 heartbeat IPC: 1.32286 cumulative IPC: 1.37438 (Simulation time: 2 hr 10 min 59 sec) 
Heartbeat CPU 3 instructions: 680000000 cycles: 561763676 heartbeat IPC: 0.961391 cumulative IPC: 0.994405 (Simulation time: 2 hr 12 min 22 sec) 
Heartbeat CPU 0 instructions: 870000001 cycles: 562181741 heartbeat IPC: 1.31173 cumulative IPC: 1.37338 (Simulation time: 2 hr 12 min 27 sec) 
Heartbeat CPU 2 instructions: 480000000 cycles: 563360274 heartbeat IPC: 0.59994 cumulative IPC: 0.583137 (Simulation time: 2 hr 12 min 41 sec) 
Heartbeat CPU 1 instructions: 600000000 cycles: 564260210 heartbeat IPC: 0.673041 cumulative IPC: 0.792944 (Simulation time: 2 hr 12 min 52 sec) 
Heartbeat CPU 3 instructions: 690000000 cycles: 568845493 heartbeat IPC: 1.41207 cumulative IPC: 1.0005 (Simulation time: 2 hr 13 min 47 sec) 
Heartbeat CPU 0 instructions: 880000000 cycles: 569799816 heartbeat IPC: 1.31267 cumulative IPC: 1.37243 (Simulation time: 2 hr 13 min 59 sec) 
Heartbeat CPU 0 instructions: 890000000 cycles: 577405293 heartbeat IPC: 1.31484 cumulative IPC: 1.37154 (Simulation time: 2 hr 15 min 28 sec) 
Heartbeat CPU 3 instructions: 700000000 cycles: 577741353 heartbeat IPC: 1.12412 cumulative IPC: 1.00272 (Simulation time: 2 hr 15 min 32 sec) 
Heartbeat CPU 1 instructions: 610000000 cycles: 579001926 heartbeat IPC: 0.678347 cumulative IPC: 0.789537 (Simulation time: 2 hr 15 min 46 sec) 
Heartbeat CPU 2 instructions: 490000000 cycles: 580312390 heartbeat IPC: 0.589897 cumulative IPC: 0.583368 (Simulation time: 2 hr 16 min 1 sec) 
Heartbeat CPU 0 instructions: 900000000 cycles: 585014741 heartbeat IPC: 1.31416 cumulative IPC: 1.37067 (Simulation time: 2 hr 16 min 56 sec) 
Heartbeat CPU 3 instructions: 710000001 cycles: 587720752 heartbeat IPC: 1.00206 cumulative IPC: 1.00271 (Simulation time: 2 hr 17 min 28 sec) 
Heartbeat CPU 0 instructions: 910000000 cycles: 592592243 heartbeat IPC: 1.3197 cumulative IPC: 1.36992 (Simulation time: 2 hr 18 min 25 sec) 
Heartbeat CPU 1 instructions: 620000000 cycles: 593749969 heartbeat IPC: 0.678056 cumulative IPC: 0.786317 (Simulation time: 2 hr 18 min 40 sec) 
Heartbeat CPU 2 instructions: 500000000 cycles: 597244029 heartbeat IPC: 0.59061 cumulative IPC: 0.583606 (Simulation time: 2 hr 19 min 29 sec) 
Heartbeat CPU 3 instructions: 720000000 cycles: 598496812 heartbeat IPC: 0.927983 cumulative IPC: 1.00114 (Simulation time: 2 hr 19 min 44 sec) 
Heartbeat CPU 0 instructions: 920000000 cycles: 600142879 heartbeat IPC: 1.32439 cumulative IPC: 1.36925 (Simulation time: 2 hr 20 min 3 sec) 
Heartbeat CPU 0 instructions: 930000002 cycles: 607728560 heartbeat IPC: 1.31827 cumulative IPC: 1.36851 (Simulation time: 2 hr 21 min 38 sec) 
Heartbeat CPU 1 instructions: 630000002 cycles: 608574783 heartbeat IPC: 0.674545 cumulative IPC: 0.783163 (Simulation time: 2 hr 21 min 48 sec) 
Heartbeat CPU 3 instructions: 730000000 cycles: 609324734 heartbeat IPC: 0.923538 cumulative IPC: 0.999546 (Simulation time: 2 hr 21 min 57 sec) 
Heartbeat CPU 2 instructions: 510000000 cycles: 614163134 heartbeat IPC: 0.591048 cumulative IPC: 0.583843 (Simulation time: 2 hr 23 min 3 sec) 
Heartbeat CPU 0 instructions: 940000000 cycles: 615331408 heartbeat IPC: 1.3153 cumulative IPC: 1.36775 (Simulation time: 2 hr 23 min 16 sec) 
Heartbeat CPU 3 instructions: 740000000 cycles: 620051965 heartbeat IPC: 0.932207 cumulative IPC: 0.998201 (Simulation time: 2 hr 24 min 4 sec) 
Heartbeat CPU 0 instructions: 950000002 cycles: 622950563 heartbeat IPC: 1.31248 cumulative IPC: 1.36697 (Simulation time: 2 hr 24 min 32 sec) 
Heartbeat CPU 0 instructions: 960000000 cycles: 630578766 heartbeat IPC: 1.31092 cumulative IPC: 1.36619 (Simulation time: 2 hr 25 min 51 sec) 
Heartbeat CPU 2 instructions: 520000000 cycles: 631055358 heartbeat IPC: 0.591988 cumulative IPC: 0.584095 (Simulation time: 2 hr 25 min 56 sec) 
Heartbeat CPU 3 instructions: 750000001 cycles: 631193323 heartbeat IPC: 0.897557 cumulative IPC: 0.996155 (Simulation time: 2 hr 25 min 57 sec) 
Heartbeat CPU 0 instructions: 970000001 cycles: 638202858 heartbeat IPC: 1.31163 cumulative IPC: 1.36544 (Simulation time: 2 hr 27 min 27 sec) 
Heartbeat CPU 1 instructions: 640000000 cycles: 638646065 heartbeat IPC: 0.332543 cumulative IPC: 0.758767 (Simulation time: 2 hr 27 min 33 sec) 
Heartbeat CPU 3 instructions: 760000000 cycles: 641845592 heartbeat IPC: 0.938767 cumulative IPC: 0.99506 (Simulation time: 2 hr 28 min 15 sec) 
Heartbeat CPU 0 instructions: 980000000 cycles: 645825771 heartbeat IPC: 1.31183 cumulative IPC: 1.36472 (Simulation time: 2 hr 29 min 6 sec) 
Heartbeat CPU 2 instructions: 530000000 cycles: 647909688 heartbeat IPC: 0.593319 cumulative IPC: 0.58437 (Simulation time: 2 hr 29 min 33 sec) 
Heartbeat CPU 3 instructions: 770000003 cycles: 652305396 heartbeat IPC: 0.956041 cumulative IPC: 0.994343 (Simulation time: 2 hr 30 min 34 sec) 
Heartbeat CPU 1 instructions: 650000001 cycles: 653320751 heartbeat IPC: 0.681446 cumulative IPC: 0.756777 (Simulation time: 2 hr 30 min 48 sec) 
Heartbeat CPU 0 instructions: 990000002 cycles: 653406514 heartbeat IPC: 1.31913 cumulative IPC: 1.36411 (Simulation time: 2 hr 30 min 49 sec) 
Heartbeat CPU 0 instructions: 1000000000 cycles: 660999946 heartbeat IPC: 1.31693 cumulative IPC: 1.36349 (Simulation time: 2 hr 32 min 31 sec) 
Heartbeat CPU 3 instructions: 780000000 cycles: 662765045 heartbeat IPC: 0.956055 cumulative IPC: 0.993652 (Simulation time: 2 hr 32 min 52 sec) 
Heartbeat CPU 2 instructions: 540000000 cycles: 664759454 heartbeat IPC: 0.59348 cumulative IPC: 0.584634 (Simulation time: 2 hr 33 min 17 sec) 
Heartbeat CPU 1 instructions: 660000000 cycles: 668027188 heartbeat IPC: 0.679974 cumulative IPC: 0.754845 (Simulation time: 2 hr 33 min 57 sec) 
Heartbeat CPU 0 instructions: 1010000000 cycles: 668595981 heartbeat IPC: 1.31648 cumulative IPC: 1.36288 (Simulation time: 2 hr 34 min 4 sec) 
Heartbeat CPU 3 instructions: 790000001 cycles: 673214047 heartbeat IPC: 0.957029 cumulative IPC: 0.993004 (Simulation time: 2 hr 35 min 0 sec) 
Heartbeat CPU 0 instructions: 1020000000 cycles: 676142815 heartbeat IPC: 1.32506 cumulative IPC: 1.3624 (Simulation time: 2 hr 35 min 36 sec) 
Heartbeat CPU 2 instructions: 550000002 cycles: 681592785 heartbeat IPC: 0.59406 cumulative IPC: 0.584899 (Simulation time: 2 hr 36 min 45 sec) 
Heartbeat CPU 3 instructions: 800000000 cycles: 682318406 heartbeat IPC: 1.09837 cumulative IPC: 0.994605 (Simulation time: 2 hr 36 min 55 sec) 
Heartbeat CPU 1 instructions: 670000000 cycles: 682683180 heartbeat IPC: 0.682315 cumulative IPC: 0.753072 (Simulation time: 2 hr 37 min 0 sec) 
Heartbeat CPU 0 instructions: 1030000001 cycles: 683640917 heartbeat IPC: 1.33367 cumulative IPC: 1.36204 (Simulation time: 2 hr 37 min 13 sec) 
Heartbeat CPU 0 instructions: 1040000000 cycles: 691141156 heartbeat IPC: 1.33329 cumulative IPC: 1.36169 (Simulation time: 2 hr 38 min 44 sec) 
Heartbeat CPU 3 instructions: 810000000 cycles: 692221622 heartbeat IPC: 1.00977 cumulative IPC: 0.994852 (Simulation time: 2 hr 38 min 57 sec) 
Heartbeat CPU 1 instructions: 680000000 cycles: 697279823 heartbeat IPC: 0.685089 cumulative IPC: 0.751456 (Simulation time: 2 hr 40 min 0 sec) 
Heartbeat CPU 2 instructions: 560000000 cycles: 698407727 heartbeat IPC: 0.594709 cumulative IPC: 0.585167 (Simulation time: 2 hr 40 min 14 sec) 
Heartbeat CPU 0 instructions: 1050000003 cycles: 698634516 heartbeat IPC: 1.33452 cumulative IPC: 1.36135 (Simulation time: 2 hr 40 min 17 sec) 
Heartbeat CPU 3 instructions: 820000000 cycles: 702044717 heartbeat IPC: 1.01801 cumulative IPC: 0.995219 (Simulation time: 2 hr 40 min 59 sec) 
Heartbeat CPU 0 instructions: 1060000000 cycles: 706239192 heartbeat IPC: 1.31498 cumulative IPC: 1.36079 (Simulation time: 2 hr 41 min 53 sec) 
Heartbeat CPU 3 instructions: 830000001 cycles: 710643695 heartbeat IPC: 1.16293 cumulative IPC: 0.997518 (Simulation time: 2 hr 42 min 55 sec) 
Heartbeat CPU 1 instructions: 690000000 cycles: 711873663 heartbeat IPC: 0.685221 cumulative IPC: 0.749919 (Simulation time: 2 hr 43 min 10 sec) 
Heartbeat CPU 0 instructions: 1070000002 cycles: 713895721 heartbeat IPC: 1.30608 cumulative IPC: 1.36012 (Simulation time: 2 hr 43 min 35 sec) 
Heartbeat CPU 2 instructions: 570000001 cycles: 715206766 heartbeat IPC: 0.595272 cumulative IPC: 0.585436 (Simulation time: 2 hr 43 min 56 sec) 
Heartbeat CPU 3 instructions: 840000000 cycles: 718739368 heartbeat IPC: 1.23523 cumulative IPC: 1.00055 (Simulation time: 2 hr 44 min 59 sec) 
Heartbeat CPU 0 instructions: 1080000000 cycles: 721632858 heartbeat IPC: 1.29247 cumulative IPC: 1.3593 (Simulation time: 2 hr 46 min 15 sec) 
Heartbeat CPU 1 instructions: 700000000 cycles: 726771916 heartbeat IPC: 0.67122 cumulative IPC: 0.748097 (Simulation time: 2 hr 48 min 7 sec) 
Heartbeat CPU 3 instructions: 850000001 cycles: 727996370 heartbeat IPC: 1.08026 cumulative IPC: 1.00169 (Simulation time: 2 hr 48 min 22 sec) 
Heartbeat CPU 0 instructions: 1090000001 cycles: 729350865 heartbeat IPC: 1.29567 cumulative IPC: 1.35854 (Simulation time: 2 hr 48 min 38 sec) 
Heartbeat CPU 2 instructions: 580000000 cycles: 731996749 heartbeat IPC: 0.595593 cumulative IPC: 0.585699 (Simulation time: 2 hr 49 min 12 sec) 
Heartbeat CPU 0 instructions: 1100000000 cycles: 737089347 heartbeat IPC: 1.29224 cumulative IPC: 1.35776 (Simulation time: 2 hr 50 min 12 sec) 
Heartbeat CPU 3 instructions: 860000000 cycles: 737925991 heartbeat IPC: 1.00709 cumulative IPC: 1.00177 (Simulation time: 2 hr 50 min 22 sec) 
Heartbeat CPU 0 instructions: 1110000002 cycles: 744772961 heartbeat IPC: 1.30147 cumulative IPC: 1.35711 (Simulation time: 2 hr 51 min 31 sec) 
Heartbeat CPU 3 instructions: 870000001 cycles: 746319045 heartbeat IPC: 1.19146 cumulative IPC: 1.00417 (Simulation time: 2 hr 51 min 46 sec) 
Heartbeat CPU 2 instructions: 590000002 cycles: 748782661 heartbeat IPC: 0.595738 cumulative IPC: 0.585952 (Simulation time: 2 hr 52 min 10 sec) 
Heartbeat CPU 0 instructions: 1120000000 cycles: 752383571 heartbeat IPC: 1.31395 cumulative IPC: 1.35662 (Simulation time: 2 hr 52 min 43 sec) 
Heartbeat CPU 1 instructions: 710000000 cycles: 754749376 heartbeat IPC: 0.357431 cumulative IPC: 0.731821 (Simulation time: 2 hr 53 min 5 sec) 
Heartbeat CPU 3 instructions: 880000000 cycles: 758214693 heartbeat IPC: 0.840643 cumulative IPC: 1.00129 (Simulation time: 2 hr 53 min 39 sec) 
Heartbeat CPU 0 instructions: 1130000003 cycles: 759949117 heartbeat IPC: 1.32178 cumulative IPC: 1.35623 (Simulation time: 2 hr 53 min 59 sec) 
Heartbeat CPU 2 instructions: 600000000 cycles: 765563139 heartbeat IPC: 0.59593 cumulative IPC: 0.586197 (Simulation time: 2 hr 55 min 5 sec) 
Heartbeat CPU 0 instructions: 1140000000 cycles: 767482295 heartbeat IPC: 1.32746 cumulative IPC: 1.35591 (Simulation time: 2 hr 55 min 27 sec) 
Heartbeat CPU 3 instructions: 890000000 cycles: 768055999 heartbeat IPC: 1.01613 cumulative IPC: 1.0015 (Simulation time: 2 hr 55 min 34 sec) 
Heartbeat CPU 1 instructions: 720000000 cycles: 771115858 heartbeat IPC: 0.611005 cumulative IPC: 0.728947 (Simulation time: 2 hr 56 min 11 sec) 
Heartbeat CPU 0 instructions: 1150000000 cycles: 775014311 heartbeat IPC: 1.32767 cumulative IPC: 1.3556 (Simulation time: 2 hr 56 min 58 sec) 
Heartbeat CPU 3 instructions: 900000000 cycles: 778050591 heartbeat IPC: 1.00054 cumulative IPC: 1.00149 (Simulation time: 2 hr 57 min 34 sec) 
Heartbeat CPU 2 instructions: 610000002 cycles: 782323155 heartbeat IPC: 0.596658 cumulative IPC: 0.586448 (Simulation time: 2 hr 58 min 25 sec) 
Heartbeat CPU 0 instructions: 1160000000 cycles: 782561715 heartbeat IPC: 1.32496 cumulative IPC: 1.35527 (Simulation time: 2 hr 58 min 28 sec) 
Heartbeat CPU 1 instructions: 730000001 cycles: 785780766 heartbeat IPC: 0.6819 cumulative IPC: 0.727965 (Simulation time: 2 hr 59 min 6 sec) 
Heartbeat CPU 3 instructions: 910000002 cycles: 788784223 heartbeat IPC: 0.931651 cumulative IPC: 1.00043 (Simulation time: 2 hr 59 min 43 sec) 
Heartbeat CPU 0 instructions: 1170000002 cycles: 790132513 heartbeat IPC: 1.32087 cumulative IPC: 1.3549 (Simulation time: 3 hr 0 min 0 sec) 
Heartbeat CPU 0 instructions: 1180000000 cycles: 797705120 heartbeat IPC: 1.32055 cumulative IPC: 1.35454 (Simulation time: 3 hr 1 min 32 sec) 
Heartbeat CPU 3 instructions: 920000000 cycles: 799084769 heartbeat IPC: 0.970822 cumulative IPC: 1 (Simulation time: 3 hr 1 min 49 sec) 
Heartbeat CPU 2 instructions: 620000000 cycles: 799180348 heartbeat IPC: 0.593218 cumulative IPC: 0.586607 (Simulation time: 3 hr 1 min 50 sec) 
Heartbeat CPU 1 instructions: 740000000 cycles: 800531125 heartbeat IPC: 0.67795 cumulative IPC: 0.726936 (Simulation time: 3 hr 2 min 7 sec) 
Heartbeat CPU 0 instructions: 1190000003 cycles: 805272999 heartbeat IPC: 1.32137 cumulative IPC: 1.35419 (Simulation time: 3 hr 3 min 4 sec) 
Heartbeat CPU 3 instructions: 930000002 cycles: 809574588 heartbeat IPC: 0.953305 cumulative IPC: 0.999327 (Simulation time: 3 hr 3 min 57 sec) 
Heartbeat CPU 0 instructions: 1200000000 cycles: 812865729 heartbeat IPC: 1.31705 cumulative IPC: 1.3538 (Simulation time: 3 hr 4 min 37 sec) 
Heartbeat CPU 1 instructions: 750000002 cycles: 815310488 heartbeat IPC: 0.676619 cumulative IPC: 0.725921 (Simulation time: 3 hr 5 min 6 sec) 
Heartbeat CPU 2 instructions: 630000002 cycles: 816218999 heartbeat IPC: 0.586901 cumulative IPC: 0.586614 (Simulation time: 3 hr 5 min 17 sec) 
Heartbeat CPU 3 instructions: 940000000 cycles: 820006379 heartbeat IPC: 0.958608 cumulative IPC: 0.998751 (Simulation time: 3 hr 6 min 3 sec) 
Heartbeat CPU 0 instructions: 1210000003 cycles: 820411611 heartbeat IPC: 1.32523 cumulative IPC: 1.35351 (Simulation time: 3 hr 6 min 8 sec) 
Finished CPU 0 instructions: 1000000000 cycles: 738850486 cumulative IPC: 1.35345 (Simulation time: 3 hr 6 min 28 sec) 
Heartbeat CPU 0 instructions: 1220000000 cycles: 827938197 heartbeat IPC: 1.32862 cumulative IPC: 1.35326 (Simulation time: 3 hr 7 min 40 sec) 
Heartbeat CPU 1 instructions: 760000000 cycles: 830050633 heartbeat IPC: 0.678419 cumulative IPC: 0.724983 (Simulation time: 3 hr 8 min 6 sec) 
Heartbeat CPU 3 instructions: 950000003 cycles: 830355090 heartbeat IPC: 0.966304 cumulative IPC: 0.998302 (Simulation time: 3 hr 8 min 10 sec) 
Heartbeat CPU 2 instructions: 640000000 cycles: 833229576 heartbeat IPC: 0.587869 cumulative IPC: 0.586643 (Simulation time: 3 hr 8 min 45 sec) 
Heartbeat CPU 0 instructions: 1230000001 cycles: 835451048 heartbeat IPC: 1.33105 cumulative IPC: 1.35304 (Simulation time: 3 hr 9 min 12 sec) 
Heartbeat CPU 3 instructions: 960000000 cycles: 840625696 heartbeat IPC: 0.973652 cumulative IPC: 0.997967 (Simulation time: 3 hr 10 min 29 sec) 
Heartbeat CPU 0 instructions: 1240000000 cycles: 842998286 heartbeat IPC: 1.32499 cumulative IPC: 1.35276 (Simulation time: 3 hr 10 min 58 sec) 
Heartbeat CPU 1 instructions: 770000002 cycles: 844713399 heartbeat IPC: 0.682 cumulative IPC: 0.724155 (Simulation time: 3 hr 11 min 19 sec) 
Heartbeat CPU 2 instructions: 650000001 cycles: 850227397 heartbeat IPC: 0.588311 cumulative IPC: 0.58668 (Simulation time: 3 hr 12 min 25 sec) 
Heartbeat CPU 0 instructions: 1250000002 cycles: 850549733 heartbeat IPC: 1.32425 cumulative IPC: 1.35248 (Simulation time: 3 hr 12 min 29 sec) 
Heartbeat CPU 3 instructions: 970000000 cycles: 851094527 heartbeat IPC: 0.955216 cumulative IPC: 0.997384 (Simulation time: 3 hr 12 min 36 sec) 
Heartbeat CPU 0 instructions: 1260000000 cycles: 858113350 heartbeat IPC: 1.32212 cumulative IPC: 1.35218 (Simulation time: 3 hr 14 min 1 sec) 
Heartbeat CPU 1 instructions: 780000000 cycles: 859451855 heartbeat IPC: 0.678497 cumulative IPC: 0.723289 (Simulation time: 3 hr 14 min 17 sec) 
Heartbeat CPU 3 instructions: 980000000 cycles: 861535929 heartbeat IPC: 0.957726 cumulative IPC: 0.996853 (Simulation time: 3 hr 14 min 43 sec) 
Heartbeat CPU 0 instructions: 1270000002 cycles: 865671054 heartbeat IPC: 1.32315 cumulative IPC: 1.3519 (Simulation time: 3 hr 15 min 30 sec) 
Heartbeat CPU 2 instructions: 660000000 cycles: 867215341 heartbeat IPC: 0.588653 cumulative IPC: 0.586722 (Simulation time: 3 hr 15 min 47 sec) 
Heartbeat CPU 3 instructions: 990000002 cycles: 869696643 heartbeat IPC: 1.22538 cumulative IPC: 0.999224 (Simulation time: 3 hr 16 min 11 sec) 
Heartbeat CPU 0 instructions: 1280000000 cycles: 873253318 heartbeat IPC: 1.31887 cumulative IPC: 1.35159 (Simulation time: 3 hr 16 min 44 sec) 
Heartbeat CPU 3 instructions: 1000000000 cycles: 881636184 heartbeat IPC: 0.837553 cumulative IPC: 0.996806 (Simulation time: 3 hr 18 min 10 sec) 
Heartbeat CPU 0 instructions: 1290000002 cycles: 881717065 heartbeat IPC: 1.18151 cumulative IPC: 1.34978 (Simulation time: 3 hr 18 min 11 sec) 
Heartbeat CPU 2 instructions: 670000000 cycles: 884198884 heartbeat IPC: 0.588805 cumulative IPC: 0.586767 (Simulation time: 3 hr 18 min 41 sec) 
Heartbeat CPU 1 instructions: 790000003 cycles: 887456574 heartbeat IPC: 0.357083 cumulative IPC: 0.710537 (Simulation time: 3 hr 19 min 22 sec) 
Heartbeat CPU 0 instructions: 1300000000 cycles: 889379674 heartbeat IPC: 1.30504 cumulative IPC: 1.34936 (Simulation time: 3 hr 19 min 48 sec) 
Heartbeat CPU 3 instructions: 1010000002 cycles: 891481580 heartbeat IPC: 1.0157 cumulative IPC: 0.997036 (Simulation time: 3 hr 20 min 15 sec) 
Heartbeat CPU 0 instructions: 1310000000 cycles: 897103534 heartbeat IPC: 1.29469 cumulative IPC: 1.34884 (Simulation time: 3 hr 22 min 0 sec) 
Heartbeat CPU 3 instructions: 1020000000 cycles: 900309026 heartbeat IPC: 1.13283 cumulative IPC: 0.998503 (Simulation time: 3 hr 22 min 41 sec) 
Heartbeat CPU 2 instructions: 680000000 cycles: 901168048 heartbeat IPC: 0.589304 cumulative IPC: 0.586819 (Simulation time: 3 hr 22 min 52 sec) 
Heartbeat CPU 1 instructions: 800000000 cycles: 902217551 heartbeat IPC: 0.677462 cumulative IPC: 0.709941 (Simulation time: 3 hr 23 min 6 sec) 
Heartbeat CPU 0 instructions: 1320000000 cycles: 904860055 heartbeat IPC: 1.28924 cumulative IPC: 1.34828 (Simulation time: 3 hr 23 min 41 sec) 
Heartbeat CPU 3 instructions: 1030000000 cycles: 908985355 heartbeat IPC: 1.15256 cumulative IPC: 1.00012 (Simulation time: 3 hr 24 min 30 sec) 
Heartbeat CPU 0 instructions: 1330000001 cycles: 912600495 heartbeat IPC: 1.29192 cumulative IPC: 1.34775 (Simulation time: 3 hr 25 min 19 sec) 
Heartbeat CPU 1 instructions: 810000002 cycles: 917067888 heartbeat IPC: 0.673386 cumulative IPC: 0.70929 (Simulation time: 3 hr 26 min 38 sec) 
Heartbeat CPU 2 instructions: 690000001 cycles: 918124123 heartbeat IPC: 0.589759 cumulative IPC: 0.586879 (Simulation time: 3 hr 26 min 50 sec) 
Heartbeat CPU 3 instructions: 1040000000 cycles: 918639869 heartbeat IPC: 1.03578 cumulative IPC: 1.00053 (Simulation time: 3 hr 26 min 56 sec) 
Heartbeat CPU 0 instructions: 1340000000 cycles: 920488700 heartbeat IPC: 1.26772 cumulative IPC: 1.347 (Simulation time: 3 hr 27 min 18 sec) 
Heartbeat CPU 3 instructions: 1050000001 cycles: 928291288 heartbeat IPC: 1.03612 cumulative IPC: 1.00094 (Simulation time: 3 hr 28 min 50 sec) 
Heartbeat CPU 0 instructions: 1350000001 cycles: 928339470 heartbeat IPC: 1.27376 cumulative IPC: 1.34632 (Simulation time: 3 hr 28 min 51 sec) 
Heartbeat CPU 1 instructions: 820000000 cycles: 931909707 heartbeat IPC: 0.673772 cumulative IPC: 0.708669 (Simulation time: 3 hr 29 min 35 sec) 
Heartbeat CPU 2 instructions: 700000000 cycles: 935071229 heartbeat IPC: 0.590071 cumulative IPC: 0.586942 (Simulation time: 3 hr 30 min 12 sec) 
Heartbeat CPU 0 instructions: 1360000000 cycles: 936124167 heartbeat IPC: 1.28457 cumulative IPC: 1.34575 (Simulation time: 3 hr 30 min 25 sec) 
Heartbeat CPU 3 instructions: 1060000000 cycles: 936196276 heartbeat IPC: 1.26502 cumulative IPC: 1.00339 (Simulation time: 3 hr 30 min 26 sec) 
Heartbeat CPU 0 instructions: 1370000003 cycles: 943932104 heartbeat IPC: 1.28075 cumulative IPC: 1.34516 (Simulation time: 3 hr 31 min 57 sec) 
Heartbeat CPU 3 instructions: 1070000001 cycles: 946369576 heartbeat IPC: 0.982965 cumulative IPC: 1.00315 (Simulation time: 3 hr 32 min 25 sec) 
Heartbeat CPU 1 instructions: 830000000 cycles: 946737487 heartbeat IPC: 0.67441 cumulative IPC: 0.708081 (Simulation time: 3 hr 32 min 29 sec) 
Heartbeat CPU 0 instructions: 1380000000 cycles: 951831626 heartbeat IPC: 1.2659 cumulative IPC: 1.34444 (Simulation time: 3 hr 33 min 30 sec) 
Heartbeat CPU 2 instructions: 710000000 cycles: 952000892 heartbeat IPC: 0.590679 cumulative IPC: 0.587015 (Simulation time: 3 hr 33 min 32 sec) 
Heartbeat CPU 3 instructions: 1080000000 cycles: 955886270 heartbeat IPC: 1.05078 cumulative IPC: 1.00367 (Simulation time: 3 hr 34 min 19 sec) 
Heartbeat CPU 0 instructions: 1390000001 cycles: 959670244 heartbeat IPC: 1.27574 cumulative IPC: 1.34383 (Simulation time: 3 hr 35 min 4 sec) 
Heartbeat CPU 1 instructions: 840000000 cycles: 961437538 heartbeat IPC: 0.68027 cumulative IPC: 0.707615 (Simulation time: 3 hr 35 min 25 sec) 
Heartbeat CPU 3 instructions: 1090000000 cycles: 966870300 heartbeat IPC: 0.910413 cumulative IPC: 1.00251 (Simulation time: 3 hr 36 min 30 sec) 
Heartbeat CPU 0 instructions: 1400000000 cycles: 967438255 heartbeat IPC: 1.28733 cumulative IPC: 1.34333 (Simulation time: 3 hr 36 min 37 sec) 
Heartbeat CPU 2 instructions: 720000000 cycles: 968915079 heartbeat IPC: 0.59122 cumulative IPC: 0.587095 (Simulation time: 3 hr 36 min 55 sec) 
Heartbeat CPU 0 instructions: 1410000002 cycles: 975149724 heartbeat IPC: 1.29677 cumulative IPC: 1.34293 (Simulation time: 3 hr 38 min 11 sec) 
Heartbeat CPU 1 instructions: 850000000 cycles: 976236482 heartbeat IPC: 0.675724 cumulative IPC: 0.707087 (Simulation time: 3 hr 38 min 25 sec) 
Heartbeat CPU 3 instructions: 1100000000 cycles: 977390846 heartbeat IPC: 0.950521 cumulative IPC: 1.0019 (Simulation time: 3 hr 38 min 39 sec) 
Heartbeat CPU 0 instructions: 1420000000 cycles: 982849986 heartbeat IPC: 1.29866 cumulative IPC: 1.34255 (Simulation time: 3 hr 39 min 46 sec) 
Heartbeat CPU 2 instructions: 730000003 cycles: 985824420 heartbeat IPC: 0.591389 cumulative IPC: 0.587176 (Simulation time: 3 hr 40 min 22 sec) 
Heartbeat CPU 3 instructions: 1110000001 cycles: 988014107 heartbeat IPC: 0.941331 cumulative IPC: 1.00118 (Simulation time: 3 hr 40 min 45 sec) 
Heartbeat CPU 0 instructions: 1430000003 cycles: 990562121 heartbeat IPC: 1.29666 cumulative IPC: 1.34216 (Simulation time: 3 hr 41 min 10 sec) 
Heartbeat CPU 0 instructions: 1440000000 cycles: 998288938 heartbeat IPC: 1.29419 cumulative IPC: 1.34175 (Simulation time: 3 hr 43 min 31 sec) 
Heartbeat CPU 3 instructions: 1120000000 cycles: 998932756 heartbeat IPC: 0.915864 cumulative IPC: 1.00017 (Simulation time: 3 hr 43 min 44 sec) 
Heartbeat CPU 2 instructions: 740000000 cycles: 1002722433 heartbeat IPC: 0.591785 cumulative IPC: 0.587261 (Simulation time: 3 hr 45 min 5 sec) 
Heartbeat CPU 1 instructions: 860000000 cycles: 1005598619 heartbeat IPC: 0.340575 cumulative IPC: 0.69542 (Simulation time: 3 hr 46 min 9 sec) 
Heartbeat CPU 0 instructions: 1450000000 cycles: 1006021006 heartbeat IPC: 1.29332 cumulative IPC: 1.34135 (Simulation time: 3 hr 46 min 16 sec) 
Heartbeat CPU 3 instructions: 1130000000 cycles: 1009746303 heartbeat IPC: 0.924766 cumulative IPC: 0.999287 (Simulation time: 3 hr 47 min 1 sec) 
Heartbeat CPU 0 instructions: 1460000000 cycles: 1013722893 heartbeat IPC: 1.29838 cumulative IPC: 1.34099 (Simulation time: 3 hr 47 min 50 sec) 
Heartbeat CPU 2 instructions: 750000000 cycles: 1019609224 heartbeat IPC: 0.592179 cumulative IPC: 0.587349 (Simulation time: 3 hr 49 min 3 sec) 
Heartbeat CPU 3 instructions: 1140000000 cycles: 1020161567 heartbeat IPC: 0.960129 cumulative IPC: 0.998852 (Simulation time: 3 hr 49 min 10 sec) 
Heartbeat CPU 1 instructions: 870000001 cycles: 1020276660 heartbeat IPC: 0.68129 cumulative IPC: 0.695198 (Simulation time: 3 hr 49 min 11 sec) 
Heartbeat CPU 0 instructions: 1470000001 cycles: 1021428177 heartbeat IPC: 1.29781 cumulative IPC: 1.34064 (Simulation time: 3 hr 49 min 25 sec) 
Heartbeat CPU 0 instructions: 1480000000 cycles: 1029105439 heartbeat IPC: 1.30255 cumulative IPC: 1.34033 (Simulation time: 3 hr 51 min 0 sec) 
Heartbeat CPU 3 instructions: 1150000001 cycles: 1030578431 heartbeat IPC: 0.959982 cumulative IPC: 0.998425 (Simulation time: 3 hr 51 min 18 sec) 
Heartbeat CPU 1 instructions: 880000000 cycles: 1035001850 heartbeat IPC: 0.679108 cumulative IPC: 0.694949 (Simulation time: 3 hr 52 min 12 sec) 
Heartbeat CPU 2 instructions: 760000000 cycles: 1036481096 heartbeat IPC: 0.592702 cumulative IPC: 0.587444 (Simulation time: 3 hr 52 min 30 sec) 
Heartbeat CPU 0 instructions: 1490000000 cycles: 1036790714 heartbeat IPC: 1.30119 cumulative IPC: 1.34001 (Simulation time: 3 hr 52 min 34 sec) 
Heartbeat CPU 3 instructions: 1160000000 cycles: 1041122721 heartbeat IPC: 0.94838 cumulative IPC: 0.997874 (Simulation time: 3 hr 53 min 27 sec) 
Heartbeat CPU 0 instructions: 1500000000 cycles: 1045543753 heartbeat IPC: 1.14246 cumulative IPC: 1.33822 (Simulation time: 3 hr 54 min 18 sec) 
Heartbeat CPU 3 instructions: 1170000003 cycles: 1049589553 heartbeat IPC: 1.18108 cumulative IPC: 0.999479 (Simulation time: 3 hr 55 min 6 sec) 
Heartbeat CPU 1 instructions: 890000000 cycles: 1049722059 heartbeat IPC: 0.679338 cumulative IPC: 0.694712 (Simulation time: 3 hr 55 min 8 sec) 
Heartbeat CPU 2 instructions: 770000002 cycles: 1053338476 heartbeat IPC: 0.593212 cumulative IPC: 0.587544 (Simulation time: 3 hr 55 min 50 sec) 
Heartbeat CPU 0 instructions: 1510000001 cycles: 1055787593 heartbeat IPC: 0.976197 cumulative IPC: 1.3344 (Simulation time: 3 hr 56 min 17 sec) 
Heartbeat CPU 3 instructions: 1180000000 cycles: 1060396937 heartbeat IPC: 0.925293 cumulative IPC: 0.998659 (Simulation time: 3 hr 57 min 12 sec) 
Heartbeat CPU 0 instructions: 1520000000 cycles: 1063010375 heartbeat IPC: 1.38451 cumulative IPC: 1.33477 (Simulation time: 3 hr 57 min 45 sec) 
Heartbeat CPU 1 instructions: 900000000 cycles: 1064441940 heartbeat IPC: 0.679353 cumulative IPC: 0.694481 (Simulation time: 3 hr 58 min 3 sec) 
Heartbeat CPU 0 instructions: 1530000000 cycles: 1069911416 heartbeat IPC: 1.44906 cumulative IPC: 1.33557 (Simulation time: 3 hr 59 min 11 sec) 
Heartbeat CPU 3 instructions: 1190000000 cycles: 1070015094 heartbeat IPC: 1.0397 cumulative IPC: 0.999059 (Simulation time: 3 hr 59 min 12 sec) 
Heartbeat CPU 2 instructions: 780000000 cycles: 1070193485 heartbeat IPC: 0.593295 cumulative IPC: 0.587643 (Simulation time: 3 hr 59 min 15 sec) 
Heartbeat CPU 0 instructions: 1540000000 cycles: 1076815945 heartbeat IPC: 1.44832 cumulative IPC: 1.33636 (Simulation time: 4 hr 0 min 41 sec) 
Heartbeat CPU 3 instructions: 1200000000 cycles: 1079009370 heartbeat IPC: 1.11182 cumulative IPC: 1.00008 (Simulation time: 4 hr 1 min 8 sec) 
Heartbeat CPU 1 instructions: 910000002 cycles: 1079175484 heartbeat IPC: 0.678723 cumulative IPC: 0.694248 (Simulation time: 4 hr 1 min 11 sec) 
Finished CPU 3 instructions: 1000000001 cycles: 998923814 cumulative IPC: 1.00108 (Simulation time: 4 hr 1 min 49 sec) 
Heartbeat CPU 0 instructions: 1550000003 cycles: 1083819748 heartbeat IPC: 1.4278 cumulative IPC: 1.337 (Simulation time: 4 hr 2 min 11 sec) 
Heartbeat CPU 3 instructions: 1210000001 cycles: 1087022955 heartbeat IPC: 1.24788 cumulative IPC: 1.00206 (Simulation time: 4 hr 2 min 52 sec) 
Heartbeat CPU 2 instructions: 790000002 cycles: 1087035234 heartbeat IPC: 0.593763 cumulative IPC: 0.587745 (Simulation time: 4 hr 2 min 52 sec) 
Heartbeat CPU 0 instructions: 1560000000 cycles: 1090834724 heartbeat IPC: 1.42552 cumulative IPC: 1.33761 (Simulation time: 4 hr 3 min 38 sec) 
Heartbeat CPU 1 instructions: 920000000 cycles: 1094093991 heartbeat IPC: 0.670308 cumulative IPC: 0.693895 (Simulation time: 4 hr 4 min 17 sec) 
Heartbeat CPU 3 instructions: 1220000000 cycles: 1096694240 heartbeat IPC: 1.03399 cumulative IPC: 1.00236 (Simulation time: 4 hr 4 min 50 sec) 
Heartbeat CPU 0 instructions: 1570000000 cycles: 1097816243 heartbeat IPC: 1.43235 cumulative IPC: 1.33826 (Simulation time: 4 hr 5 min 4 sec) 
Heartbeat CPU 2 instructions: 800000000 cycles: 1103864827 heartbeat IPC: 0.594191 cumulative IPC: 0.587852 (Simulation time: 4 hr 6 min 18 sec) 
Heartbeat CPU 0 instructions: 1580000000 cycles: 1104787918 heartbeat IPC: 1.43438 cumulative IPC: 1.33892 (Simulation time: 4 hr 6 min 29 sec) 
Heartbeat CPU 3 instructions: 1230000003 cycles: 1107552363 heartbeat IPC: 0.92097 cumulative IPC: 1.0015 (Simulation time: 4 hr 7 min 1 sec) 
Heartbeat CPU 1 instructions: 930000002 cycles: 1109066684 heartbeat IPC: 0.667883 cumulative IPC: 0.693515 (Simulation time: 4 hr 7 min 19 sec) 
Heartbeat CPU 0 instructions: 1590000002 cycles: 1111779593 heartbeat IPC: 1.43027 cumulative IPC: 1.33954 (Simulation time: 4 hr 7 min 51 sec) 
Heartbeat CPU 3 instructions: 1240000000 cycles: 1114453553 heartbeat IPC: 1.44903 cumulative IPC: 1.00449 (Simulation time: 4 hr 8 min 19 sec) 
Heartbeat CPU 0 instructions: 1600000000 cycles: 1118763847 heartbeat IPC: 1.43179 cumulative IPC: 1.34016 (Simulation time: 4 hr 8 min 59 sec) 
Heartbeat CPU 2 instructions: 810000002 cycles: 1120691309 heartbeat IPC: 0.594301 cumulative IPC: 0.587956 (Simulation time: 4 hr 9 min 16 sec) 
Heartbeat CPU 0 instructions: 1610000002 cycles: 1125787009 heartbeat IPC: 1.42386 cumulative IPC: 1.34073 (Simulation time: 4 hr 10 min 5 sec) 
Heartbeat CPU 3 instructions: 1250000000 cycles: 1126819402 heartbeat IPC: 0.808679 cumulative IPC: 1.00217 (Simulation time: 4 hr 10 min 15 sec) 
Heartbeat CPU 0 instructions: 1620000000 cycles: 1132822621 heartbeat IPC: 1.42134 cumulative IPC: 1.34127 (Simulation time: 4 hr 11 min 19 sec) 
Heartbeat CPU 3 instructions: 1260000000 cycles: 1136701237 heartbeat IPC: 1.01196 cumulative IPC: 1.00226 (Simulation time: 4 hr 12 min 7 sec) 
Heartbeat CPU 2 instructions: 820000000 cycles: 1137503152 heartbeat IPC: 0.594819 cumulative IPC: 0.588066 (Simulation time: 4 hr 12 min 17 sec) 
Heartbeat CPU 0 instructions: 1630000002 cycles: 1139798532 heartbeat IPC: 1.4335 cumulative IPC: 1.34188 (Simulation time: 4 hr 12 min 45 sec) 
Heartbeat CPU 1 instructions: 940000000 cycles: 1140349865 heartbeat IPC: 0.319661 cumulative IPC: 0.682452 (Simulation time: 4 hr 12 min 52 sec) 
Heartbeat CPU 0 instructions: 1640000000 cycles: 1146641599 heartbeat IPC: 1.46133 cumulative IPC: 1.34265 (Simulation time: 4 hr 14 min 10 sec) 
Heartbeat CPU 3 instructions: 1270000002 cycles: 1147320520 heartbeat IPC: 0.941683 cumulative IPC: 1.00166 (Simulation time: 4 hr 14 min 18 sec) 
Heartbeat CPU 0 instructions: 1650000000 cycles: 1153560542 heartbeat IPC: 1.44531 cumulative IPC: 1.34331 (Simulation time: 4 hr 15 min 32 sec) 
Heartbeat CPU 2 instructions: 830000000 cycles: 1154314803 heartbeat IPC: 0.594826 cumulative IPC: 0.588172 (Simulation time: 4 hr 15 min 42 sec) 
Heartbeat CPU 1 instructions: 950000001 cycles: 1155115346 heartbeat IPC: 0.677255 cumulative IPC: 0.68238 (Simulation time: 4 hr 15 min 51 sec) 
Heartbeat CPU 3 instructions: 1280000000 cycles: 1158290159 heartbeat IPC: 0.911607 cumulative IPC: 1.00074 (Simulation time: 4 hr 16 min 32 sec) 
Heartbeat CPU 0 instructions: 1660000000 cycles: 1160445752 heartbeat IPC: 1.45239 cumulative IPC: 1.34401 (Simulation time: 4 hr 16 min 59 sec) 
Heartbeat CPU 0 instructions: 1670000002 cycles: 1167111540 heartbeat IPC: 1.5002 cumulative IPC: 1.34497 (Simulation time: 4 hr 18 min 23 sec) 
Heartbeat CPU 3 instructions: 1290000001 cycles: 1168865945 heartbeat IPC: 0.945556 cumulative IPC: 1.0002 (Simulation time: 4 hr 18 min 45 sec) 
Heartbeat CPU 1 instructions: 960000000 cycles: 1169994551 heartbeat IPC: 0.672079 cumulative IPC: 0.682239 (Simulation time: 4 hr 18 min 59 sec) 
Heartbeat CPU 2 instructions: 840000000 cycles: 1171114166 heartbeat IPC: 0.595261 cumulative IPC: 0.588281 (Simulation time: 4 hr 19 min 13 sec) 
Heartbeat CPU 0 instructions: 1680000000 cycles: 1173994899 heartbeat IPC: 1.45278 cumulative IPC: 1.34565 (Simulation time: 4 hr 19 min 49 sec) 
Heartbeat CPU 3 instructions: 1300000000 cycles: 1179442891 heartbeat IPC: 0.945452 cumulative IPC: 0.999675 (Simulation time: 4 hr 20 min 59 sec) 
Heartbeat CPU 0 instructions: 1690000003 cycles: 1180609229 heartbeat IPC: 1.51187 cumulative IPC: 1.34665 (Simulation time: 4 hr 21 min 14 sec) 
Heartbeat CPU 1 instructions: 970000000 cycles: 1184787480 heartbeat IPC: 0.675999 cumulative IPC: 0.682156 (Simulation time: 4 hr 22 min 7 sec) 
Heartbeat CPU 0 instructions: 1700000000 cycles: 1187402412 heartbeat IPC: 1.47206 cumulative IPC: 1.34742 (Simulation time: 4 hr 22 min 40 sec) 
Heartbeat CPU 2 instructions: 850000002 cycles: 1187898791 heartbeat IPC: 0.595783 cumulative IPC: 0.588395 (Simulation time: 4 hr 22 min 46 sec) 
Heartbeat CPU 3 instructions: 1310000003 cycles: 1189926290 heartbeat IPC: 0.953889 cumulative IPC: 0.999241 (Simulation time: 4 hr 23 min 12 sec) 
Heartbeat CPU 0 instructions: 1710000001 cycles: 1194139554 heartbeat IPC: 1.48431 cumulative IPC: 1.34825 (Simulation time: 4 hr 24 min 5 sec) 
Heartbeat CPU 1 instructions: 980000000 cycles: 1199630047 heartbeat IPC: 0.673738 cumulative IPC: 0.682044 (Simulation time: 4 hr 25 min 12 sec) 
Heartbeat CPU 3 instructions: 1320000000 cycles: 1200482930 heartbeat IPC: 0.947271 cumulative IPC: 0.99875 (Simulation time: 4 hr 25 min 20 sec) 
Heartbeat CPU 0 instructions: 1720000000 cycles: 1204403780 heartbeat IPC: 0.974257 cumulative IPC: 1.34483 (Simulation time: 4 hr 26 min 3 sec) 
Heartbeat CPU 2 instructions: 860000000 cycles: 1204795435 heartbeat IPC: 0.591833 cumulative IPC: 0.588447 (Simulation time: 4 hr 26 min 8 sec) 
Heartbeat CPU 0 instructions: 1730000003 cycles: 1209141526 heartbeat IPC: 2.11071 cumulative IPC: 1.34805 (Simulation time: 4 hr 27 min 11 sec) 
Heartbeat CPU 3 instructions: 1330000000 cycles: 1211039005 heartbeat IPC: 0.947322 cumulative IPC: 0.998268 (Simulation time: 4 hr 27 min 37 sec) 
Heartbeat CPU 1 instructions: 990000000 cycles: 1214450176 heartbeat IPC: 0.674758 cumulative IPC: 0.681948 (Simulation time: 4 hr 28 min 20 sec) 
Heartbeat CPU 0 instructions: 1740000000 cycles: 1215696009 heartbeat IPC: 1.52567 cumulative IPC: 1.34908 (Simulation time: 4 hr 28 min 34 sec) 
Heartbeat CPU 2 instructions: 870000000 cycles: 1221758596 heartbeat IPC: 0.589513 cumulative IPC: 0.588463 (Simulation time: 4 hr 29 min 49 sec) 
Heartbeat CPU 3 instructions: 1340000000 cycles: 1221909914 heartbeat IPC: 0.919886 cumulative IPC: 0.99752 (Simulation time: 4 hr 29 min 51 sec) 
Heartbeat CPU 0 instructions: 1750000003 cycles: 1222895362 heartbeat IPC: 1.38901 cumulative IPC: 1.34933 (Simulation time: 4 hr 30 min 3 sec) 
Heartbeat CPU 1 instructions: 1000000000 cycles: 1229362761 heartbeat IPC: 0.670575 cumulative IPC: 0.6818 (Simulation time: 4 hr 31 min 23 sec) 
Heartbeat CPU 0 instructions: 1760000000 cycles: 1229744310 heartbeat IPC: 1.46008 cumulative IPC: 1.34999 (Simulation time: 4 hr 31 min 28 sec) 
Heartbeat CPU 3 instructions: 1350000001 cycles: 1232215540 heartbeat IPC: 0.970344 cumulative IPC: 0.997276 (Simulation time: 4 hr 32 min 0 sec) 
Heartbeat CPU 0 instructions: 1770000000 cycles: 1236769873 heartbeat IPC: 1.42337 cumulative IPC: 1.35044 (Simulation time: 4 hr 33 min 0 sec) 
Heartbeat CPU 2 instructions: 880000000 cycles: 1238717838 heartbeat IPC: 0.589649 cumulative IPC: 0.58848 (Simulation time: 4 hr 33 min 20 sec) 
Heartbeat CPU 3 instructions: 1360000000 cycles: 1242120260 heartbeat IPC: 1.00962 cumulative IPC: 0.997382 (Simulation time: 4 hr 33 min 52 sec) 
Heartbeat CPU 0 instructions: 1780000000 cycles: 1243662094 heartbeat IPC: 1.45091 cumulative IPC: 1.35103 (Simulation time: 4 hr 34 min 11 sec) 
Heartbeat CPU 0 instructions: 1790000002 cycles: 1250643510 heartbeat IPC: 1.43237 cumulative IPC: 1.35152 (Simulation time: 4 hr 36 min 40 sec) 
Heartbeat CPU 3 instructions: 1370000001 cycles: 1252653199 heartbeat IPC: 0.949403 cumulative IPC: 0.99695 (Simulation time: 4 hr 37 min 23 sec) 
Heartbeat CPU 2 instructions: 890000001 cycles: 1255675198 heartbeat IPC: 0.589714 cumulative IPC: 0.588498 (Simulation time: 4 hr 38 min 31 sec) 
Heartbeat CPU 0 instructions: 1800000000 cycles: 1257628085 heartbeat IPC: 1.43173 cumulative IPC: 1.352 (Simulation time: 4 hr 39 min 24 sec) 
Heartbeat CPU 1 instructions: 1010000002 cycles: 1258153795 heartbeat IPC: 0.34733 cumulative IPC: 0.673604 (Simulation time: 4 hr 39 min 31 sec) 
Heartbeat CPU 3 instructions: 1380000000 cycles: 1263079652 heartbeat IPC: 0.959099 cumulative IPC: 0.996615 (Simulation time: 4 hr 40 min 34 sec) 
Heartbeat CPU 0 instructions: 1810000002 cycles: 1264533864 heartbeat IPC: 1.44806 cumulative IPC: 1.35256 (Simulation time: 4 hr 40 min 52 sec) 
Heartbeat CPU 0 instructions: 1820000000 cycles: 1271468667 heartbeat IPC: 1.442 cumulative IPC: 1.35308 (Simulation time: 4 hr 42 min 21 sec) 
Heartbeat CPU 3 instructions: 1390000003 cycles: 1271627907 heartbeat IPC: 1.16983 cumulative IPC: 0.997861 (Simulation time: 4 hr 42 min 23 sec) 
Heartbeat CPU 2 instructions: 900000000 cycles: 1272617115 heartbeat IPC: 0.590252 cumulative IPC: 0.588523 (Simulation time: 4 hr 42 min 35 sec) 
Heartbeat CPU 1 instructions: 1020000000 cycles: 1273074531 heartbeat IPC: 0.670208 cumulative IPC: 0.673562 (Simulation time: 4 hr 42 min 41 sec) 
Heartbeat CPU 0 instructions: 1830000003 cycles: 1278405250 heartbeat IPC: 1.44163 cumulative IPC: 1.3536 (Simulation time: 4 hr 43 min 47 sec) 
Heartbeat CPU 3 instructions: 1400000000 cycles: 1281069209 heartbeat IPC: 1.05918 cumulative IPC: 0.998344 (Simulation time: 4 hr 44 min 19 sec) 
Heartbeat CPU 0 instructions: 1840000000 cycles: 1285319469 heartbeat IPC: 1.44629 cumulative IPC: 1.35413 (Simulation time: 4 hr 45 min 12 sec) 
Heartbeat CPU 1 instructions: 1030000000 cycles: 1288009302 heartbeat IPC: 0.669578 cumulative IPC: 0.673513 (Simulation time: 4 hr 45 min 46 sec) 
Heartbeat CPU 2 instructions: 910000003 cycles: 1289546791 heartbeat IPC: 0.590679 cumulative IPC: 0.588553 (Simulation time: 4 hr 46 min 6 sec) 
Heartbeat CPU 3 instructions: 1410000003 cycles: 1291427336 heartbeat IPC: 0.965426 cumulative IPC: 0.998062 (Simulation time: 4 hr 46 min 29 sec) 
Heartbeat CPU 0 instructions: 1850000001 cycles: 1292219608 heartbeat IPC: 1.44925 cumulative IPC: 1.35467 (Simulation time: 4 hr 46 min 38 sec) 
Heartbeat CPU 0 instructions: 1860000000 cycles: 1299206143 heartbeat IPC: 1.43132 cumulative IPC: 1.35511 (Simulation time: 4 hr 48 min 5 sec) 
Heartbeat CPU 3 instructions: 1420000000 cycles: 1299839038 heartbeat IPC: 1.18882 cumulative IPC: 0.999381 (Simulation time: 4 hr 48 min 13 sec) 
Heartbeat CPU 1 instructions: 1040000000 cycles: 1302938973 heartbeat IPC: 0.669807 cumulative IPC: 0.673467 (Simulation time: 4 hr 48 min 52 sec) 
Heartbeat CPU 0 instructions: 1870000001 cycles: 1305992220 heartbeat IPC: 1.47361 cumulative IPC: 1.35577 (Simulation time: 4 hr 49 min 28 sec) 
Heartbeat CPU 2 instructions: 920000000 cycles: 1306470857 heartbeat IPC: 0.590874 cumulative IPC: 0.588585 (Simulation time: 4 hr 49 min 34 sec) 
Heartbeat CPU 3 instructions: 1430000003 cycles: 1309605951 heartbeat IPC: 1.02387 cumulative IPC: 0.999576 (Simulation time: 4 hr 50 min 11 sec) 
Heartbeat CPU 0 instructions: 1880000000 cycles: 1312721082 heartbeat IPC: 1.48614 cumulative IPC: 1.35648 (Simulation time: 4 hr 50 min 49 sec) 
Heartbeat CPU 1 instructions: 1050000000 cycles: 1317905991 heartbeat IPC: 0.668136 cumulative IPC: 0.673403 (Simulation time: 4 hr 51 min 52 sec) 
Heartbeat CPU 3 instructions: 1440000000 cycles: 1319643600 heartbeat IPC: 0.996249 cumulative IPC: 0.999549 (Simulation time: 4 hr 52 min 8 sec) 
Heartbeat CPU 0 instructions: 1890000000 cycles: 1323378812 heartbeat IPC: 0.938286 cumulative IPC: 1.35289 (Simulation time: 4 hr 52 min 47 sec) 
Heartbeat CPU 2 instructions: 930000000 cycles: 1323386530 heartbeat IPC: 0.591168 cumulative IPC: 0.588621 (Simulation time: 4 hr 52 min 47 sec) 
Heartbeat CPU 0 instructions: 1900000000 cycles: 1328262049 heartbeat IPC: 2.04782 cumulative IPC: 1.35562 (Simulation time: 4 hr 53 min 53 sec) 
Heartbeat CPU 3 instructions: 1450000001 cycles: 1330456022 heartbeat IPC: 0.924862 cumulative IPC: 0.998902 (Simulation time: 4 hr 54 min 23 sec) 
Heartbeat CPU 1 instructions: 1060000000 cycles: 1332864565 heartbeat IPC: 0.668513 cumulative IPC: 0.673344 (Simulation time: 4 hr 54 min 52 sec) 
Heartbeat CPU 0 instructions: 1910000002 cycles: 1334485739 heartbeat IPC: 1.60676 cumulative IPC: 1.35686 (Simulation time: 4 hr 55 min 11 sec) 
Heartbeat CPU 2 instructions: 940000000 cycles: 1340283963 heartbeat IPC: 0.591806 cumulative IPC: 0.588663 (Simulation time: 4 hr 56 min 19 sec) 
Heartbeat CPU 0 instructions: 1920000000 cycles: 1342271107 heartbeat IPC: 1.28446 cumulative IPC: 1.35642 (Simulation time: 4 hr 56 min 43 sec) 
Heartbeat CPU 3 instructions: 1460000000 cycles: 1342482278 heartbeat IPC: 0.831514 cumulative IPC: 0.997303 (Simulation time: 4 hr 56 min 46 sec) 
Heartbeat CPU 1 instructions: 1070000001 cycles: 1347781066 heartbeat IPC: 0.670399 cumulative IPC: 0.673309 (Simulation time: 4 hr 57 min 51 sec) 
Heartbeat CPU 0 instructions: 1930000001 cycles: 1350074821 heartbeat IPC: 1.28144 cumulative IPC: 1.35595 (Simulation time: 4 hr 58 min 19 sec) 
Heartbeat CPU 3 instructions: 1470000000 cycles: 1353430579 heartbeat IPC: 0.913384 cumulative IPC: 0.99658 (Simulation time: 4 hr 59 min 0 sec) 
Heartbeat CPU 2 instructions: 950000001 cycles: 1357185867 heartbeat IPC: 0.591649 cumulative IPC: 0.588703 (Simulation time: 4 hr 59 min 46 sec) 
Heartbeat CPU 0 instructions: 1940000000 cycles: 1357824721 heartbeat IPC: 1.29034 cumulative IPC: 1.35556 (Simulation time: 4 hr 59 min 54 sec) 
Heartbeat CPU 3 instructions: 1480000000 cycles: 1364176125 heartbeat IPC: 0.930618 cumulative IPC: 0.996026 (Simulation time: 5 hr 1 min 7 sec) 
[...]
Heartbeat CPU 2 instructions: 1130000002 cycles: 1660391475 heartbeat IPC: 0.5937 cumulative IPC: 0.589655 (Simulation time: 5 hr 59 min 14 sec) 
Heartbeat CPU 1 instructions: 1250000001 cycles: 1663030008 heartbeat IPC: 0.498936 cumulative IPC: 0.652889 (Simulation time: 5 hr 59 min 42 sec) 
Heartbeat CPU 0 instructions: 2350000003 cycles: 1664259782 heartbeat IPC: 1.43193 cumulative IPC: 1.35215 (Simulation time: 5 hr 59 min 55 sec) 
Heartbeat CPU 3 instructions: 1780000000 cycles: 1671115494 heartbeat IPC: 0.882631 cumulative IPC: 0.992424 (Simulation time: 6 hr 1 min 7 sec) 
Heartbeat CPU 0 instructions: 2360000000 cycles: 1671215965 heartbeat IPC: 1.43757 cumulative IPC: 1.35252 (Simulation time: 6 hr 1 min 8 sec) 
Heartbeat CPU 2 instructions: 1140000000 cycles: 1677191843 heartbeat IPC: 0.595225 cumulative IPC: 0.589714 (Simulation time: 6 hr 2 min 15 sec) 
Heartbeat CPU 3 instructions: 1790000002 cycles: 1677928007 heartbeat IPC: 1.46789 cumulative IPC: 0.994456 (Simulation time: 6 hr 2 min 23 sec) 
Heartbeat CPU 0 instructions: 2370000000 cycles: 1678146496 heartbeat IPC: 1.44289 cumulative IPC: 1.35291 (Simulation time: 6 hr 2 min 25 sec) 
Heartbeat CPU 0 instructions: 2380000000 cycles: 1685081069 heartbeat IPC: 1.44205 cumulative IPC: 1.3533 (Simulation time: 6 hr 3 min 35 sec) 
Heartbeat CPU 3 instructions: 1800000000 cycles: 1689630871 heartbeat IPC: 0.854492 cumulative IPC: 0.993436 (Simulation time: 6 hr 4 min 21 sec) 
Heartbeat CPU 0 instructions: 2390000003 cycles: 1692103738 heartbeat IPC: 1.42396 cumulative IPC: 1.35361 (Simulation time: 6 hr 4 min 47 sec) 
Heartbeat CPU 1 instructions: 1260000000 cycles: 1692776782 heartbeat IPC: 0.336171 cumulative IPC: 0.647036 (Simulation time: 6 hr 4 min 54 sec) 
Heartbeat CPU 2 instructions: 1150000003 cycles: 1693983671 heartbeat IPC: 0.595528 cumulative IPC: 0.589775 (Simulation time: 6 hr 5 min 7 sec) 
Heartbeat CPU 3 instructions: 1810000000 cycles: 1699637279 heartbeat IPC: 0.99936 cumulative IPC: 0.993473 (Simulation time: 6 hr 6 min 3 sec) 
Heartbeat CPU 0 instructions: 2400000000 cycles: 1703592745 heartbeat IPC: 0.870397 cumulative IPC: 1.35018 (Simulation time: 6 hr 6 min 35 sec) 
Heartbeat CPU 0 instructions: 2410000002 cycles: 1708806253 heartbeat IPC: 1.91809 cumulative IPC: 1.352 (Simulation time: 6 hr 7 min 37 sec) 
Heartbeat CPU 2 instructions: 1160000000 cycles: 1710799591 heartbeat IPC: 0.594674 cumulative IPC: 0.589825 (Simulation time: 6 hr 8 min 2 sec) 
Heartbeat CPU 3 instructions: 1820000000 cycles: 1712311756 heartbeat IPC: 0.788987 cumulative IPC: 0.991882 (Simulation time: 6 hr 8 min 18 sec) 
Heartbeat CPU 0 instructions: 2420000000 cycles: 1715227848 heartbeat IPC: 1.55725 cumulative IPC: 1.35281 (Simulation time: 6 hr 8 min 48 sec) 
Heartbeat CPU 1 instructions: 1270000000 cycles: 1717077597 heartbeat IPC: 0.411509 cumulative IPC: 0.643533 (Simulation time: 6 hr 9 min 6 sec) 
Heartbeat CPU 0 instructions: 2430000000 cycles: 1722841095 heartbeat IPC: 1.3135 cumulative IPC: 1.35263 (Simulation time: 6 hr 10 min 9 sec) 
Heartbeat CPU 3 instructions: 1830000002 cycles: 1724543986 heartbeat IPC: 0.817513 cumulative IPC: 0.990582 (Simulation time: 6 hr 10 min 28 sec) 
Heartbeat CPU 2 instructions: 1170000002 cycles: 1727577825 heartbeat IPC: 0.59601 cumulative IPC: 0.589888 (Simulation time: 6 hr 11 min 2 sec) 
Heartbeat CPU 0 instructions: 2440000000 cycles: 1729784839 heartbeat IPC: 1.44015 cumulative IPC: 1.353 (Simulation time: 6 hr 11 min 27 sec) 
Heartbeat CPU 3 instructions: 1840000000 cycles: 1735934123 heartbeat IPC: 0.877952 cumulative IPC: 0.989806 (Simulation time: 6 hr 12 min 36 sec) 
Heartbeat CPU 0 instructions: 2450000002 cycles: 1736634567 heartbeat IPC: 1.45991 cumulative IPC: 1.35344 (Simulation time: 6 hr 12 min 44 sec) 
Heartbeat CPU 1 instructions: 1280000000 cycles: 1737972721 heartbeat IPC: 0.478581 cumulative IPC: 0.64145 (Simulation time: 6 hr 12 min 58 sec) 
Heartbeat CPU 0 instructions: 2460000000 cycles: 1743581302 heartbeat IPC: 1.43952 cumulative IPC: 1.3538 (Simulation time: 6 hr 14 min 0 sec) 
Heartbeat CPU 2 instructions: 1180000000 cycles: 1744537728 heartbeat IPC: 0.589626 cumulative IPC: 0.589886 (Simulation time: 6 hr 14 min 10 sec) 
Heartbeat CPU 3 instructions: 1850000002 cycles: 1747202240 heartbeat IPC: 0.88746 cumulative IPC: 0.989113 (Simulation time: 6 hr 14 min 39 sec) 
Heartbeat CPU 0 instructions: 2470000000 cycles: 1750530194 heartbeat IPC: 1.43908 cumulative IPC: 1.35416 (Simulation time: 6 hr 15 min 16 sec) 
Heartbeat CPU 0 instructions: 2480000000 cycles: 1757456023 heartbeat IPC: 1.44387 cumulative IPC: 1.35453 (Simulation time: 6 hr 16 min 31 sec) 
Heartbeat CPU 3 instructions: 1860000000 cycles: 1758333299 heartbeat IPC: 0.898387 cumulative IPC: 0.98851 (Simulation time: 6 hr 16 min 41 sec) 
Heartbeat CPU 2 instructions: 1190000002 cycles: 1761444631 heartbeat IPC: 0.591474 cumulative IPC: 0.589902 (Simulation time: 6 hr 17 min 13 sec) 
Heartbeat CPU 0 instructions: 2490000002 cycles: 1764436890 heartbeat IPC: 1.43249 cumulative IPC: 1.35485 (Simulation time: 6 hr 17 min 44 sec) 
Heartbeat CPU 1 instructions: 1290000001 cycles: 1765713226 heartbeat IPC: 0.360484 cumulative IPC: 0.636818 (Simulation time: 6 hr 17 min 57 sec) 
Heartbeat CPU 3 instructions: 1870000000 cycles: 1769410905 heartbeat IPC: 0.902722 cumulative IPC: 0.987946 (Simulation time: 6 hr 18 min 35 sec) 
Heartbeat CPU 0 instructions: 2500000000 cycles: 1771337998 heartbeat IPC: 1.44904 cumulative IPC: 1.35524 (Simulation time: 6 hr 18 min 54 sec) 
Heartbeat CPU 0 instructions: 2510000001 cycles: 1778196714 heartbeat IPC: 1.458 cumulative IPC: 1.35565 (Simulation time: 6 hr 20 min 6 sec) 
Heartbeat CPU 2 instructions: 1200000000 cycles: 1778347061 heartbeat IPC: 0.591631 cumulative IPC: 0.589919 (Simulation time: 6 hr 20 min 7 sec) 
Finished CPU 2 instructions: 1000000001 cycles: 1695148170 cumulative IPC: 0.589919 (Simulation time: 6 hr 20 min 7 sec) 

CPU 0 Branch Prediction Accuracy: 97.683% MPKI: 0.794163

CPU 1 Branch Prediction Accuracy: 99.7957% MPKI: 0.186213

CPU 2 Branch Prediction Accuracy: 99.9465% MPKI: 0.136668

CPU 3 Branch Prediction Accuracy: 97.5707% MPKI: 3.57832

ChampSim completed all CPUs

Total Simulation Statistics (not including warmup)

CPU 0 cumulative IPC: 1.35571 instructions: 2298136001 cycles: 1695148170
L1D TOTAL     ACCESS:  369293876  HIT:  363187830  MISS:    6106046
L1D LOAD      ACCESS:  206223534  HIT:  201957404  MISS:    4266130
L1D RFO       ACCESS:  163070342  HIT:  161230426  MISS:    1839916
L1D PREFETCH  ACCESS:          0  HIT:          0  MISS:          0
L1D WRITEBACK ACCESS:          0  HIT:          0  MISS:          0
L1I TOTAL     ACCESS:  540539391  HIT:  535587396  MISS:    4951995
L1I LOAD      ACCESS:  540539391  HIT:  535587396  MISS:    4951995
L1I RFO       ACCESS:          0  HIT:          0  MISS:          0
L1I PREFETCH  ACCESS:          0  HIT:          0  MISS:          0
L1I WRITEBACK ACCESS:          0  HIT:          0  MISS:          0
L2C TOTAL     ACCESS:   13205215  HIT:   10102291  MISS:    3102924
L2C LOAD      ACCESS:    9218084  HIT:    7067022  MISS:    2151062
L2C RFO       ACCESS:    1835047  HIT:     896068  MISS:     938979
L2C PREFETCH  ACCESS:          0  HIT:          0  MISS:          0
L2C WRITEBACK ACCESS:    2152084  HIT:    2139201  MISS:      12883
LLC TOTAL     ACCESS:    4226767  HIT:    2074293  MISS:    2152474
LLC LOAD      ACCESS:    2151058  HIT:     903792  MISS:    1247266
LLC RFO       ACCESS:     938960  HIT:      44156  MISS:     894804
LLC PREFETCH  ACCESS:          0  HIT:          0  MISS:          0
LLC WRITEBACK ACCESS:    1136749  HIT:    1126345  MISS:      10404

CPU 1 cumulative IPC: 0.634437 instructions: 1075465102 cycles: 1695148170
L1D TOTAL     ACCESS:  251519463  HIT:  247188281  MISS:    4331182
L1D LOAD      ACCESS:  157752080  HIT:  154957563  MISS:    2794517
L1D RFO       ACCESS:   93767383  HIT:   92230718  MISS:    1536665
L1D PREFETCH  ACCESS:          0  HIT:          0  MISS:          0
L1D WRITEBACK ACCESS:          0  HIT:          0  MISS:          0
L1I TOTAL     ACCESS:  384166263  HIT:  384166093  MISS:        170
L1I LOAD      ACCESS:  384166263  HIT:  384166093  MISS:        170
L1I RFO       ACCESS:          0  HIT:          0  MISS:          0
L1I PREFETCH  ACCESS:          0  HIT:          0  MISS:          0
L1I WRITEBACK ACCESS:          0  HIT:          0  MISS:          0
L2C TOTAL     ACCESS:    5869342  HIT:    1618070  MISS:    4251272
L2C LOAD      ACCESS:    2794685  HIT:      81757  MISS:    2712928
L2C RFO       ACCESS:    1536658  HIT:        623  MISS:    1536035
L2C PREFETCH  ACCESS:          0  HIT:          0  MISS:          0
L2C WRITEBACK ACCESS:    1537999  HIT:    1535690  MISS:       2309
LLC TOTAL     ACCESS:    5785081  HIT:    1691258  MISS:    4093823
LLC LOAD      ACCESS:    2712928  HIT:     141988  MISS:    2570940
LLC RFO       ACCESS:    1536035  HIT:      32793  MISS:    1503242
LLC PREFETCH  ACCESS:          0  HIT:          0  MISS:          0
LLC WRITEBACK ACCESS:    1536118  HIT:    1516477  MISS:      19641

CPU 2 cumulative IPC: 0.589919 instructions: 1000000001 cycles: 1695148170
L1D TOTAL     ACCESS:  203293159  HIT:  176262055  MISS:   27031104
L1D LOAD      ACCESS:  183487959  HIT:  156456856  MISS:   27031103
L1D RFO       ACCESS:   19805200  HIT:   19805199  MISS:          1
L1D PREFETCH  ACCESS:          0  HIT:          0  MISS:          0
L1D WRITEBACK ACCESS:          0  HIT:          0  MISS:          0
L1I TOTAL     ACCESS:  346071042  HIT:  346071031  MISS:         11
L1I LOAD      ACCESS:  346071042  HIT:  346071031  MISS:         11
L1I RFO       ACCESS:          0  HIT:          0  MISS:          0
L1I PREFETCH  ACCESS:          0  HIT:          0  MISS:          0
L1I WRITEBACK ACCESS:          0  HIT:          0  MISS:          0
L2C TOTAL     ACCESS:   27033220  HIT:     888702  MISS:   26144518
L2C LOAD      ACCESS:   27031114  HIT:     886597  MISS:   26144517
L2C RFO       ACCESS:          1  HIT:          0  MISS:          1
L2C PREFETCH  ACCESS:          0  HIT:          0  MISS:          0
L2C WRITEBACK ACCESS:       2105  HIT:       2105  MISS:          0
LLC TOTAL     ACCESS:   26146381  HIT:   25445455  MISS:     700926
LLC LOAD      ACCESS:   26144517  HIT:   25443594  MISS:     700923
LLC RFO       ACCESS:          1  HIT:          0  MISS:          1
LLC PREFETCH  ACCESS:          0  HIT:          0  MISS:          0
LLC WRITEBACK ACCESS:       1863  HIT:       1861  MISS:          2

CPU 3 cumulative IPC: 0.987513 instructions: 1673980007 cycles: 1695148171
L1D TOTAL     ACCESS:  310167132  HIT:  281275220  MISS:   28891912
L1D LOAD      ACCESS:  220938990  HIT:  201678186  MISS:   19260804
L1D RFO       ACCESS:   89228142  HIT:   79597034  MISS:    9631108
L1D PREFETCH  ACCESS:          0  HIT:          0  MISS:          0
L1D WRITEBACK ACCESS:          0  HIT:          0  MISS:          0
L1I TOTAL     ACCESS:  404017702  HIT:  403173439  MISS:     844263
L1I LOAD      ACCESS:  404017702  HIT:  403173439  MISS:     844263
L1I RFO       ACCESS:          0  HIT:          0  MISS:          0
L1I PREFETCH  ACCESS:          0  HIT:          0  MISS:          0
L1I WRITEBACK ACCESS:          0  HIT:          0  MISS:          0
L2C TOTAL     ACCESS:   42032058  HIT:   28562001  MISS:   13470057
L2C LOAD      ACCESS:   20103620  HIT:   11198923  MISS:    8904697
L2C RFO       ACCESS:    9630746  HIT:    5073291  MISS:    4557455
L2C PREFETCH  ACCESS:          0  HIT:          0  MISS:          0
L2C WRITEBACK ACCESS:   12297692  HIT:   12289787  MISS:       7905
LLC TOTAL     ACCESS:   19795703  HIT:   14504158  MISS:    5291545
LLC LOAD      ACCESS:    8904671  HIT:    5755661  MISS:    3149010
LLC RFO       ACCESS:    4557370  HIT:    2429290  MISS:    2128080
LLC PREFETCH  ACCESS:          0  HIT:          0  MISS:          0
LLC WRITEBACK ACCESS:    6333662  HIT:    6319207  MISS:      14455

Region of Interest Statistics

CPU 0 cumulative IPC: 1.35345 instructions: 1000000000 cycles: 738850486
L1D TOTAL     ACCESS:  161181088  HIT:  158466172  MISS:    2714916
L1D LOAD      ACCESS:   86796148  HIT:   84882453  MISS:    1913695
L1D RFO       ACCESS:   74384940  HIT:   73583719  MISS:     801221
L1D PREFETCH  ACCESS:          0  HIT:          0  MISS:          0
L1D WRITEBACK ACCESS:          0  HIT:          0  MISS:          0
L1D PREFETCH  REQUESTED:          0  ISSUED:          0  USEFUL:          0  USELESS:          0
L1I TOTAL     ACCESS:  234478742  HIT:  232817565  MISS:    1661177
L1I LOAD      ACCESS:  234478742  HIT:  232817565  MISS:    1661177
L1I RFO       ACCESS:          0  HIT:          0  MISS:          0
L1I PREFETCH  ACCESS:          0  HIT:          0  MISS:          0
L1I WRITEBACK ACCESS:          0  HIT:          0  MISS:          0
L1I PREFETCH  REQUESTED:          0  ISSUED:          0  USEFUL:          0  USELESS:          0
L2C TOTAL     ACCESS:    5309754  HIT:    3942568  MISS:    1367186
L2C LOAD      ACCESS:    3574854  HIT:    2617084  MISS:     957770
L2C RFO       ACCESS:     799148  HIT:     394708  MISS:     404440
L2C PREFETCH  ACCESS:          0  HIT:          0  MISS:          0
L2C WRITEBACK ACCESS:     935752  HIT:     930776  MISS:       4976
L2C PREFETCH  REQUESTED:          0  ISSUED:          0  USEFUL:          0  USELESS:          0
LLC TOTAL     ACCESS:    1861549  HIT:     933451  MISS:     928098
LLC LOAD      ACCESS:     957768  HIT:     420691  MISS:     537077
LLC RFO       ACCESS:     404434  HIT:      17004  MISS:     387430
LLC PREFETCH  ACCESS:          0  HIT:          0  MISS:          0
LLC WRITEBACK ACCESS:     499347  HIT:     495756  MISS:       3591
LLC PREFETCH  REQUESTED:          0  ISSUED:          0  USEFUL:          0  USELESS:          0
Major fault: 0 Minor fault: 14375

CPU 1 cumulative IPC: 0.660542 instructions: 1000000001 cycles: 1513908476
L1D TOTAL     ACCESS:  236297126  HIT:  233774326  MISS:    2522800
L1D LOAD      ACCESS:  144890234  HIT:  143375300  MISS:    1514934
L1D RFO       ACCESS:   91406892  HIT:   90399026  MISS:    1007866
L1D PREFETCH  ACCESS:          0  HIT:          0  MISS:          0
L1D WRITEBACK ACCESS:          0  HIT:          0  MISS:          0
L1D PREFETCH  REQUESTED:          0  ISSUED:          0  USEFUL:          0  USELESS:          0
L1I TOTAL     ACCESS:  363892869  HIT:  363892798  MISS:         71
L1I LOAD      ACCESS:  363892869  HIT:  363892798  MISS:         71
L1I RFO       ACCESS:          0  HIT:          0  MISS:          0
L1I PREFETCH  ACCESS:          0  HIT:          0  MISS:          0
L1I WRITEBACK ACCESS:          0  HIT:          0  MISS:          0
L1I PREFETCH  REQUESTED:          0  ISSUED:          0  USEFUL:          0  USELESS:          0
L2C TOTAL     ACCESS:    3530867  HIT:    1006891  MISS:    2523976
L2C LOAD      ACCESS:    1515005  HIT:        313  MISS:    1514692
L2C RFO       ACCESS:    1007859  HIT:        623  MISS:    1007236
L2C PREFETCH  ACCESS:          0  HIT:          0  MISS:          0
L2C WRITEBACK ACCESS:    1008003  HIT:    1005955  MISS:       2048
L2C PREFETCH  REQUESTED:          0  ISSUED:          0  USEFUL:          0  USELESS:          0
LLC TOTAL     ACCESS:    3529400  HIT:    1002312  MISS:    2527088
LLC LOAD      ACCESS:    1514692  HIT:      14162  MISS:    1500530
LLC RFO       ACCESS:    1007236  HIT:         84  MISS:    1007152
LLC PREFETCH  ACCESS:          0  HIT:          0  MISS:          0
LLC WRITEBACK ACCESS:    1007472  HIT:     988066  MISS:      19406
LLC PREFETCH  REQUESTED:          0  ISSUED:          0  USEFUL:          0  USELESS:          0
Major fault: 0 Minor fault: 34529

CPU 2 cumulative IPC: 0.589919 instructions: 1000000001 cycles: 1695148170
L1D TOTAL     ACCESS:  203293159  HIT:  176262055  MISS:   27031104
L1D LOAD      ACCESS:  183487959  HIT:  156456856  MISS:   27031103
L1D RFO       ACCESS:   19805200  HIT:   19805199  MISS:          1
L1D PREFETCH  ACCESS:          0  HIT:          0  MISS:          0
L1D WRITEBACK ACCESS:          0  HIT:          0  MISS:          0
L1D PREFETCH  REQUESTED:          0  ISSUED:          0  USEFUL:          0  USELESS:          0
L1I TOTAL     ACCESS:  346071042  HIT:  346071031  MISS:         11
L1I LOAD      ACCESS:  346071042  HIT:  346071031  MISS:         11
L1I RFO       ACCESS:          0  HIT:          0  MISS:          0
L1I PREFETCH  ACCESS:          0  HIT:          0  MISS:          0
L1I WRITEBACK ACCESS:          0  HIT:          0  MISS:          0
L1I PREFETCH  REQUESTED:          0  ISSUED:          0  USEFUL:          0  USELESS:          0
L2C TOTAL     ACCESS:   27033220  HIT:     888702  MISS:   26144518
L2C LOAD      ACCESS:   27031114  HIT:     886597  MISS:   26144517
L2C RFO       ACCESS:          1  HIT:          0  MISS:          1
L2C PREFETCH  ACCESS:          0  HIT:          0  MISS:          0
L2C WRITEBACK ACCESS:       2105  HIT:       2105  MISS:          0
L2C PREFETCH  REQUESTED:          0  ISSUED:          0  USEFUL:          0  USELESS:          0
LLC TOTAL     ACCESS:   26146381  HIT:   25445455  MISS:     700926
LLC LOAD      ACCESS:   26144517  HIT:   25443594  MISS:     700923
LLC RFO       ACCESS:          1  HIT:          0  MISS:          1
LLC PREFETCH  ACCESS:          0  HIT:          0  MISS:          0
LLC WRITEBACK ACCESS:       1863  HIT:       1861  MISS:          2
LLC PREFETCH  REQUESTED:          0  ISSUED:          0  USEFUL:          0  USELESS:          0
Major fault: 0 Minor fault: 4525

CPU 3 cumulative IPC: 1.00108 instructions: 1000000001 cycles: 998923814
L1D TOTAL     ACCESS:  185949988  HIT:  168531987  MISS:   17418001
L1D LOAD      ACCESS:  132464065  HIT:  120880267  MISS:   11583798
L1D RFO       ACCESS:   53485923  HIT:   47651720  MISS:    5834203
L1D PREFETCH  ACCESS:          0  HIT:          0  MISS:          0
L1D WRITEBACK ACCESS:          0  HIT:          0  MISS:          0
L1D PREFETCH  REQUESTED:          0  ISSUED:          0  USEFUL:          0  USELESS:          0
L1I TOTAL     ACCESS:  241216135  HIT:  240709398  MISS:     506737
L1I LOAD      ACCESS:  241216135  HIT:  240709398  MISS:     506737
L1I RFO       ACCESS:          0  HIT:          0  MISS:          0
L1I PREFETCH  ACCESS:          0  HIT:          0  MISS:          0
L1I WRITEBACK ACCESS:          0  HIT:          0  MISS:          0
L1I PREFETCH  REQUESTED:          0  ISSUED:          0  USEFUL:          0  USELESS:          0
L2C TOTAL     ACCESS:   25364986  HIT:   17298747  MISS:    8066239
L2C LOAD      ACCESS:   12089816  HIT:    6744847  MISS:    5344969
L2C RFO       ACCESS:    5833969  HIT:    3117096  MISS:    2716873
L2C PREFETCH  ACCESS:          0  HIT:          0  MISS:          0
L2C WRITEBACK ACCESS:    7441201  HIT:    7436804  MISS:       4397
L2C PREFETCH  REQUESTED:          0  ISSUED:          0  USEFUL:          0  USELESS:          0
LLC TOTAL     ACCESS:   11851586  HIT:    8736928  MISS:    3114658
LLC LOAD      ACCESS:    5344958  HIT:    3492654  MISS:    1852304
LLC RFO       ACCESS:    2716819  HIT:    1462158  MISS:    1254661
LLC PREFETCH  ACCESS:          0  HIT:          0  MISS:          0
LLC WRITEBACK ACCESS:    3789809  HIT:    3782116  MISS:       7693
LLC PREFETCH  REQUESTED:          0  ISSUED:          0  USEFUL:          0  USELESS:          0
Major fault: 0 Minor fault: 51136

DRAM Statistics
 CHANNEL 0
 RQ ROW_BUFFER_HIT:    3046672  ROW_BUFFER_MISS:    3066444
 DBUS_CONGESTED:    7235952
 WQ ROW_BUFFER_HIT:     450051  ROW_BUFFER_MISS:    2263050  FULL:          0

 CHANNEL 1
 RQ ROW_BUFFER_HIT:    3027171  ROW_BUFFER_MISS:    3053018
 DBUS_CONGESTED:    7235952
 WQ ROW_BUFFER_HIT:     431475  ROW_BUFFER_MISS:    2275446  FULL:          0

 AVG_CONGESTED_CYCLE: 13
