
*** ChampSim Multicore Out-of-Order Simulator ***

Warmup Instructions: 200000000
Simulation Instructions: 1000000000
Number of CPUs: 4
LLC sets: 8192
LLC ways: 16
Off-chip DRAM Size: 8192 MB Channels: 2 Width: 64-bit Data Rate: 1600 MT/s

CPU 0 runs /scratch/user/djimenez/champsim-traces/speccpu2017/xz/627.cam4_s/627.cam4_s-490B.champsimtrace.xz
CPU 1 runs /scratch/user/djimenez/champsim-traces/speccpu2017/xz/605.mcf_s/605.mcf_s-665B.champsimtrace.xz
CPU 2 runs /scratch/user/djimenez/champsim-traces/speccpu2017/xz/657.xz_s/657.xz_s-56B.champsimtrace.xz
CPU 3 runs /scratch/user/djimenez/champsim-traces/speccpu2017/xz/607.cactuBSSN_s/607.cactuBSSN_s-3477B.champsimtrace.xz
Heartbeat CPU 2 instructions: 10000002 cycles: 3313204 heartbeat IPC: 3.01823 cumulative IPC: 3.01823 (Simulation time: 0 hr 1 min 58 sec) 
Heartbeat CPU 0 instructions: 10000002 cycles: 4010756 heartbeat IPC: 2.4933 cumulative IPC: 2.4933 (Simulation time: 0 hr 2 min 23 sec) 
Heartbeat CPU 3 instructions: 10000003 cycles: 5769370 heartbeat IPC: 1.73329 cumulative IPC: 1.73329 (Simulation time: 0 hr 3 min 26 sec) 
Heartbeat CPU 1 instructions: 10000001 cycles: 6502439 heartbeat IPC: 1.53788 cumulative IPC: 1.53788 (Simulation time: 0 hr 3 min 53 sec) 
Heartbeat CPU 2 instructions: 20000000 cycles: 6625718 heartbeat IPC: 3.01885 cumulative IPC: 3.01854 (Simulation time: 0 hr 3 min 57 sec) 
Heartbeat CPU 0 instructions: 20000000 cycles: 7793454 heartbeat IPC: 2.64362 cumulative IPC: 2.56626 (Simulation time: 0 hr 4 min 39 sec) 
Heartbeat CPU 2 instructions: 30000001 cycles: 9938241 heartbeat IPC: 3.01885 cumulative IPC: 3.01864 (Simulation time: 0 hr 5 min 55 sec) 
Heartbeat CPU 3 instructions: 20000000 cycles: 11537349 heartbeat IPC: 1.73371 cumulative IPC: 1.7335 (Simulation time: 0 hr 6 min 53 sec) 
Heartbeat CPU 0 instructions: 30000000 cycles: 11779316 heartbeat IPC: 2.50887 cumulative IPC: 2.54684 (Simulation time: 0 hr 7 min 2 sec) 
Heartbeat CPU 1 instructions: 20000000 cycles: 12991577 heartbeat IPC: 1.54104 cumulative IPC: 1.53946 (Simulation time: 0 hr 7 min 46 sec) 
Heartbeat CPU 2 instructions: 40000000 cycles: 13250797 heartbeat IPC: 3.01882 cumulative IPC: 3.01869 (Simulation time: 0 hr 7 min 55 sec) 
Heartbeat CPU 0 instructions: 40000000 cycles: 15593075 heartbeat IPC: 2.62208 cumulative IPC: 2.56524 (Simulation time: 0 hr 9 min 20 sec) 
Heartbeat CPU 2 instructions: 50000000 cycles: 16563329 heartbeat IPC: 3.01884 cumulative IPC: 3.01872 (Simulation time: 0 hr 9 min 55 sec) 
Heartbeat CPU 3 instructions: 30000000 cycles: 17306661 heartbeat IPC: 1.73331 cumulative IPC: 1.73344 (Simulation time: 0 hr 10 min 22 sec) 
Heartbeat CPU 0 instructions: 50000000 cycles: 19464153 heartbeat IPC: 2.58326 cumulative IPC: 2.56882 (Simulation time: 0 hr 11 min 40 sec) 
Heartbeat CPU 1 instructions: 30000001 cycles: 19471743 heartbeat IPC: 1.54317 cumulative IPC: 1.54069 (Simulation time: 0 hr 11 min 41 sec) 
Heartbeat CPU 2 instructions: 60000000 cycles: 19875854 heartbeat IPC: 3.01885 cumulative IPC: 3.01874 (Simulation time: 0 hr 11 min 55 sec) 
Heartbeat CPU 3 instructions: 40000000 cycles: 23076911 heartbeat IPC: 1.73303 cumulative IPC: 1.73333 (Simulation time: 0 hr 13 min 50 sec) 
Heartbeat CPU 2 instructions: 70000003 cycles: 23188440 heartbeat IPC: 3.01879 cumulative IPC: 3.01875 (Simulation time: 0 hr 13 min 54 sec) 
Heartbeat CPU 0 instructions: 60000000 cycles: 23411526 heartbeat IPC: 2.53333 cumulative IPC: 2.56284 (Simulation time: 0 hr 14 min 2 sec) 
Heartbeat CPU 1 instructions: 40000000 cycles: 25965383 heartbeat IPC: 1.53997 cumulative IPC: 1.54051 (Simulation time: 0 hr 15 min 35 sec) 
Heartbeat CPU 2 instructions: 80000000 cycles: 26500986 heartbeat IPC: 3.01883 cumulative IPC: 3.01876 (Simulation time: 0 hr 15 min 53 sec) 
Heartbeat CPU 0 instructions: 70000002 cycles: 27205710 heartbeat IPC: 2.63561 cumulative IPC: 2.57299 (Simulation time: 0 hr 16 min 18 sec) 
Heartbeat CPU 3 instructions: 50000001 cycles: 28847151 heartbeat IPC: 1.73303 cumulative IPC: 1.73327 (Simulation time: 0 hr 17 min 16 sec) 
Heartbeat CPU 2 instructions: 90000001 cycles: 29813516 heartbeat IPC: 3.01884 cumulative IPC: 3.01876 (Simulation time: 0 hr 17 min 51 sec) 
Heartbeat CPU 0 instructions: 80000000 cycles: 31141924 heartbeat IPC: 2.54051 cumulative IPC: 2.56888 (Simulation time: 0 hr 18 min 38 sec) 
Heartbeat CPU 1 instructions: 50000000 cycles: 32463671 heartbeat IPC: 1.53887 cumulative IPC: 1.54018 (Simulation time: 0 hr 19 min 25 sec) 
Heartbeat CPU 2 instructions: 100000000 cycles: 33126134 heartbeat IPC: 3.01876 cumulative IPC: 3.01876 (Simulation time: 0 hr 19 min 49 sec) 
Heartbeat CPU 3 instructions: 60000000 cycles: 34618495 heartbeat IPC: 1.7327 cumulative IPC: 1.73318 (Simulation time: 0 hr 20 min 41 sec) 
Heartbeat CPU 0 instructions: 90000001 cycles: 34961476 heartbeat IPC: 2.61811 cumulative IPC: 2.57426 (Simulation time: 0 hr 20 min 53 sec) 
Heartbeat CPU 2 instructions: 110000001 cycles: 36438660 heartbeat IPC: 3.01884 cumulative IPC: 3.01877 (Simulation time: 0 hr 21 min 45 sec) 
Heartbeat CPU 0 instructions: 100000000 cycles: 38901372 heartbeat IPC: 2.53814 cumulative IPC: 2.5706 (Simulation time: 0 hr 23 min 13 sec) 
Heartbeat CPU 1 instructions: 60000000 cycles: 38957813 heartbeat IPC: 1.53985 cumulative IPC: 1.54013 (Simulation time: 0 hr 23 min 15 sec) 
Heartbeat CPU 2 instructions: 120000000 cycles: 39751183 heartbeat IPC: 3.01885 cumulative IPC: 3.01878 (Simulation time: 0 hr 23 min 43 sec) 
Heartbeat CPU 3 instructions: 70000001 cycles: 40389955 heartbeat IPC: 1.73266 cumulative IPC: 1.7331 (Simulation time: 0 hr 24 min 5 sec) 
Heartbeat CPU 0 instructions: 110000000 cycles: 42790033 heartbeat IPC: 2.57158 cumulative IPC: 2.57069 (Simulation time: 0 hr 25 min 21 sec) 
Heartbeat CPU 2 instructions: 130000003 cycles: 43063785 heartbeat IPC: 3.01878 cumulative IPC: 3.01878 (Simulation time: 0 hr 25 min 29 sec) 
Heartbeat CPU 1 instructions: 70000002 cycles: 45471571 heartbeat IPC: 1.53521 cumulative IPC: 1.53942 (Simulation time: 0 hr 26 min 45 sec) 
Heartbeat CPU 3 instructions: 80000000 cycles: 46161069 heartbeat IPC: 1.73277 cumulative IPC: 1.73306 (Simulation time: 0 hr 27 min 6 sec) 
Heartbeat CPU 2 instructions: 140000000 cycles: 46376306 heartbeat IPC: 3.01885 cumulative IPC: 3.01878 (Simulation time: 0 hr 27 min 14 sec) 
Heartbeat CPU 0 instructions: 120000000 cycles: 46716487 heartbeat IPC: 2.54683 cumulative IPC: 2.56869 (Simulation time: 0 hr 27 min 24 sec) 
Heartbeat CPU 2 instructions: 150000001 cycles: 49688828 heartbeat IPC: 3.01885 cumulative IPC: 3.01879 (Simulation time: 0 hr 28 min 58 sec) 
Heartbeat CPU 0 instructions: 130000001 cycles: 50606761 heartbeat IPC: 2.57051 cumulative IPC: 2.56883 (Simulation time: 0 hr 29 min 30 sec) 
Heartbeat CPU 3 instructions: 90000001 cycles: 51932834 heartbeat IPC: 1.73257 cumulative IPC: 1.73301 (Simulation time: 0 hr 30 min 16 sec) 
Heartbeat CPU 1 instructions: 80000000 cycles: 51969622 heartbeat IPC: 1.53892 cumulative IPC: 1.53936 (Simulation time: 0 hr 30 min 18 sec) 
Heartbeat CPU 2 instructions: 160000000 cycles: 53001403 heartbeat IPC: 3.0188 cumulative IPC: 3.01879 (Simulation time: 0 hr 30 min 54 sec) 
Heartbeat CPU 0 instructions: 140000000 cycles: 54533890 heartbeat IPC: 2.54639 cumulative IPC: 2.56721 (Simulation time: 0 hr 31 min 48 sec) 
Heartbeat CPU 2 instructions: 170000002 cycles: 56313982 heartbeat IPC: 3.0188 cumulative IPC: 3.01879 (Simulation time: 0 hr 32 min 50 sec) 
Heartbeat CPU 3 instructions: 100000000 cycles: 57704268 heartbeat IPC: 1.73267 cumulative IPC: 1.73297 (Simulation time: 0 hr 33 min 44 sec) 
Heartbeat CPU 1 instructions: 90000002 cycles: 58480820 heartbeat IPC: 1.53582 cumulative IPC: 1.53897 (Simulation time: 0 hr 34 min 11 sec) 
Heartbeat CPU 0 instructions: 150000002 cycles: 58485886 heartbeat IPC: 2.53037 cumulative IPC: 2.56472 (Simulation time: 0 hr 34 min 11 sec) 
Heartbeat CPU 2 instructions: 180000000 cycles: 59626499 heartbeat IPC: 3.01885 cumulative IPC: 3.01879 (Simulation time: 0 hr 34 min 51 sec) 
Heartbeat CPU 0 instructions: 160000000 cycles: 62434024 heartbeat IPC: 2.53284 cumulative IPC: 2.56271 (Simulation time: 0 hr 36 min 30 sec) 
Heartbeat CPU 2 instructions: 190000000 cycles: 62939023 heartbeat IPC: 3.01885 cumulative IPC: 3.01879 (Simulation time: 0 hr 36 min 47 sec) 
Heartbeat CPU 3 instructions: 110000003 cycles: 63475778 heartbeat IPC: 1.73265 cumulative IPC: 1.73294 (Simulation time: 0 hr 37 min 6 sec) 
Heartbeat CPU 1 instructions: 100000000 cycles: 65024933 heartbeat IPC: 1.52809 cumulative IPC: 1.53787 (Simulation time: 0 hr 38 min 1 sec) 
Heartbeat CPU 2 instructions: 200000000 cycles: 66251572 heartbeat IPC: 3.01882 cumulative IPC: 3.0188 (Simulation time: 0 hr 38 min 42 sec) 
Heartbeat CPU 0 instructions: 170000001 cycles: 66423286 heartbeat IPC: 2.50673 cumulative IPC: 2.55934 (Simulation time: 0 hr 38 min 47 sec) 
Heartbeat CPU 3 instructions: 120000000 cycles: 69247514 heartbeat IPC: 1.73258 cumulative IPC: 1.73291 (Simulation time: 0 hr 40 min 17 sec) 
Heartbeat CPU 2 instructions: 210000002 cycles: 69564084 heartbeat IPC: 3.01886 cumulative IPC: 0.143752 (Simulation time: 0 hr 40 min 27 sec) 
Heartbeat CPU 0 instructions: 180000000 cycles: 70315216 heartbeat IPC: 2.56942 cumulative IPC: 2.5599 (Simulation time: 0 hr 40 min 50 sec) 
Heartbeat CPU 1 instructions: 110000000 cycles: 71560451 heartbeat IPC: 1.5301 cumulative IPC: 1.53716 (Simulation time: 0 hr 41 min 30 sec) 
Heartbeat CPU 2 instructions: 220000000 cycles: 72876581 heartbeat IPC: 3.01887 cumulative IPC: 0.274437 (Simulation time: 0 hr 42 min 11 sec) 
Heartbeat CPU 0 instructions: 190000000 cycles: 74330518 heartbeat IPC: 2.49047 cumulative IPC: 2.55615 (Simulation time: 0 hr 42 min 57 sec) 
Heartbeat CPU 3 instructions: 130000003 cycles: 75014887 heartbeat IPC: 1.73389 cumulative IPC: 1.73299 (Simulation time: 0 hr 43 min 19 sec) 
Heartbeat CPU 2 instructions: 230000002 cycles: 76189140 heartbeat IPC: 3.01881 cumulative IPC: 0.393757 (Simulation time: 0 hr 43 min 56 sec) 
Heartbeat CPU 1 instructions: 120000000 cycles: 78105465 heartbeat IPC: 1.52788 cumulative IPC: 1.53638 (Simulation time: 0 hr 44 min 56 sec) 
Heartbeat CPU 0 instructions: 200000000 cycles: 78280728 heartbeat IPC: 2.53151 cumulative IPC: 2.55491 (Simulation time: 0 hr 45 min 2 sec) 
Heartbeat CPU 2 instructions: 240000000 cycles: 79501656 heartbeat IPC: 3.01885 cumulative IPC: 0.503134 (Simulation time: 0 hr 45 min 40 sec) 
Heartbeat CPU 3 instructions: 140000000 cycles: 80784236 heartbeat IPC: 1.7333 cumulative IPC: 1.73301 (Simulation time: 0 hr 46 min 21 sec) 
Heartbeat CPU 0 instructions: 210000003 cycles: 82310567 heartbeat IPC: 2.48149 cumulative IPC: 0.121491 (Simulation time: 0 hr 47 min 9 sec) 
Heartbeat CPU 2 instructions: 250000001 cycles: 82814145 heartbeat IPC: 3.01888 cumulative IPC: 0.603762 (Simulation time: 0 hr 47 min 25 sec) 
Heartbeat CPU 1 instructions: 130000001 cycles: 84645986 heartbeat IPC: 1.52893 cumulative IPC: 1.53581 (Simulation time: 0 hr 48 min 22 sec) 
Heartbeat CPU 2 instructions: 260000000 cycles: 86126752 heartbeat IPC: 3.01877 cumulative IPC: 0.696648 (Simulation time: 0 hr 49 min 9 sec) 
Heartbeat CPU 0 instructions: 220000000 cycles: 86279479 heartbeat IPC: 2.51958 cumulative IPC: 0.231805 (Simulation time: 0 hr 49 min 13 sec) 
Heartbeat CPU 3 instructions: 150000001 cycles: 86554709 heartbeat IPC: 1.73296 cumulative IPC: 1.73301 (Simulation time: 0 hr 49 min 22 sec) 
Heartbeat CPU 2 instructions: 270000000 cycles: 89439247 heartbeat IPC: 3.01887 cumulative IPC: 0.782654 (Simulation time: 0 hr 50 min 53 sec) 
Heartbeat CPU 0 instructions: 230000001 cycles: 90322745 heartbeat IPC: 2.47325 cumulative IPC: 0.332142 (Simulation time: 0 hr 51 min 25 sec) 
Heartbeat CPU 1 instructions: 140000000 cycles: 91214736 heartbeat IPC: 1.52236 cumulative IPC: 1.53484 (Simulation time: 0 hr 51 min 56 sec) 
Heartbeat CPU 3 instructions: 160000000 cycles: 92324160 heartbeat IPC: 1.73327 cumulative IPC: 1.73302 (Simulation time: 0 hr 52 min 34 sec) 
Heartbeat CPU 2 instructions: 280000000 cycles: 92751772 heartbeat IPC: 3.01885 cumulative IPC: 0.862517 (Simulation time: 0 hr 52 min 49 sec) 
Heartbeat CPU 0 instructions: 240000000 cycles: 94287771 heartbeat IPC: 2.52205 cumulative IPC: 0.424233 (Simulation time: 0 hr 53 min 43 sec) 
Heartbeat CPU 2 instructions: 290000002 cycles: 96064390 heartbeat IPC: 3.01876 cumulative IPC: 0.936872 (Simulation time: 0 hr 55 min 24 sec) 
Heartbeat CPU 1 instructions: 150000000 cycles: 97774541 heartbeat IPC: 1.52444 cumulative IPC: 1.53414 (Simulation time: 0 hr 57 min 28 sec) 
Heartbeat CPU 3 instructions: 170000001 cycles: 98093793 heartbeat IPC: 1.73321 cumulative IPC: 1.73304 (Simulation time: 0 hr 57 min 52 sec) 
Heartbeat CPU 0 instructions: 250000001 cycles: 98288016 heartbeat IPC: 2.49985 cumulative IPC: 0.508709 (Simulation time: 0 hr 58 min 0 sec) 
Heartbeat CPU 2 instructions: 300000000 cycles: 99376915 heartbeat IPC: 3.01884 cumulative IPC: 1.00627 (Simulation time: 0 hr 58 min 38 sec) 
Heartbeat CPU 0 instructions: 260000000 cycles: 102356727 heartbeat IPC: 2.45778 cumulative IPC: 0.586185 (Simulation time: 1 hr 0 min 18 sec) 
Heartbeat CPU 2 instructions: 310000001 cycles: 102689450 heartbeat IPC: 3.01884 cumulative IPC: 1.07119 (Simulation time: 1 hr 0 min 30 sec) 
Heartbeat CPU 3 instructions: 180000000 cycles: 103863450 heartbeat IPC: 1.73321 cumulative IPC: 1.73304 (Simulation time: 1 hr 1 min 10 sec) 
Heartbeat CPU 1 instructions: 160000000 cycles: 104327887 heartbeat IPC: 1.52594 cumulative IPC: 1.53363 (Simulation time: 1 hr 1 min 27 sec) 
Heartbeat CPU 2 instructions: 320000000 cycles: 106002005 heartbeat IPC: 3.01882 cumulative IPC: 1.13205 (Simulation time: 1 hr 2 min 25 sec) 
Heartbeat CPU 0 instructions: 270000000 cycles: 106299562 heartbeat IPC: 2.53625 cumulative IPC: 0.658516 (Simulation time: 1 hr 2 min 35 sec) 
Heartbeat CPU 2 instructions: 330000001 cycles: 109314555 heartbeat IPC: 3.01882 cumulative IPC: 1.18923 (Simulation time: 1 hr 4 min 20 sec) 
Heartbeat CPU 3 instructions: 190000000 cycles: 109633196 heartbeat IPC: 1.73318 cumulative IPC: 1.73305 (Simulation time: 1 hr 4 min 32 sec) 
Heartbeat CPU 0 instructions: 280000000 cycles: 110409060 heartbeat IPC: 2.43339 cumulative IPC: 0.724578 (Simulation time: 1 hr 4 min 59 sec) 
Heartbeat CPU 1 instructions: 170000003 cycles: 110903073 heartbeat IPC: 1.52087 cumulative IPC: 1.53287 (Simulation time: 1 hr 5 min 16 sec) 
Heartbeat CPU 2 instructions: 340000000 cycles: 112627076 heartbeat IPC: 3.01885 cumulative IPC: 1.24304 (Simulation time: 1 hr 6 min 17 sec) 
Heartbeat CPU 0 instructions: 290000001 cycles: 114354406 heartbeat IPC: 2.53463 cumulative IPC: 0.787027 (Simulation time: 1 hr 7 min 16 sec) 
Heartbeat CPU 3 instructions: 200000000 cycles: 115403127 heartbeat IPC: 1.73312 cumulative IPC: 1.73306 (Simulation time: 1 hr 7 min 54 sec) 
Heartbeat CPU 2 instructions: 350000002 cycles: 115939606 heartbeat IPC: 3.01884 cumulative IPC: 1.29378 (Simulation time: 1 hr 8 min 12 sec) 
Heartbeat CPU 1 instructions: 180000000 cycles: 117476138 heartbeat IPC: 1.52136 cumulative IPC: 1.53223 (Simulation time: 1 hr 9 min 6 sec) 
Heartbeat CPU 0 instructions: 300000000 cycles: 118378971 heartbeat IPC: 2.48474 cumulative IPC: 0.844745 (Simulation time: 1 hr 9 min 37 sec) 
Heartbeat CPU 2 instructions: 360000000 cycles: 119252160 heartbeat IPC: 3.01882 cumulative IPC: 1.34169 (Simulation time: 1 hr 10 min 9 sec) 
Heartbeat CPU 3 instructions: 210000000 cycles: 121177895 heartbeat IPC: 1.73167 cumulative IPC: 0.0825233 (Simulation time: 1 hr 11 min 15 sec) 
Heartbeat CPU 0 instructions: 310000003 cycles: 122388111 heartbeat IPC: 2.4943 cumulative IPC: 0.89878 (Simulation time: 1 hr 11 min 53 sec) 
Heartbeat CPU 2 instructions: 370000002 cycles: 122564734 heartbeat IPC: 3.0188 cumulative IPC: 1.38702 (Simulation time: 1 hr 11 min 59 sec) 
Heartbeat CPU 1 instructions: 190000001 cycles: 124033309 heartbeat IPC: 1.52505 cumulative IPC: 1.53185 (Simulation time: 1 hr 12 min 47 sec) 
Heartbeat CPU 2 instructions: 380000000 cycles: 125877205 heartbeat IPC: 3.01889 cumulative IPC: 1.42997 (Simulation time: 1 hr 13 min 51 sec) 
Heartbeat CPU 0 instructions: 320000000 cycles: 126449277 heartbeat IPC: 2.46235 cumulative IPC: 0.948997 (Simulation time: 1 hr 14 min 12 sec) 
Heartbeat CPU 3 instructions: 220000000 cycles: 126952984 heartbeat IPC: 1.73158 cumulative IPC: 0.157539 (Simulation time: 1 hr 14 min 29 sec) 
Heartbeat CPU 2 instructions: 390000000 cycles: 129189782 heartbeat IPC: 3.0188 cumulative IPC: 1.4707 (Simulation time: 1 hr 15 min 47 sec) 
Heartbeat CPU 0 instructions: 330000000 cycles: 130463223 heartbeat IPC: 2.49131 cumulative IPC: 0.996449 (Simulation time: 1 hr 16 min 31 sec) 
Heartbeat CPU 1 instructions: 200000000 cycles: 130587510 heartbeat IPC: 1.52574 cumulative IPC: 1.53154 (Simulation time: 1 hr 16 min 35 sec) 

Warmup complete CPU 0 instructions: 330328191 cycles: 130587511 (Simulation time: 1 hr 16 min 35 sec) 
Warmup complete CPU 1 instructions: 200000002 cycles: 130587511 (Simulation time: 1 hr 16 min 35 sec) 
Warmup complete CPU 2 instructions: 394219665 cycles: 130587510 (Simulation time: 1 hr 16 min 35 sec) 
Warmup complete CPU 3 instructions: 226293626 cycles: 130587510 (Simulation time: 1 hr 16 min 35 sec) 

Heartbeat CPU 3 instructions: 230000003 cycles: 134371330 heartbeat IPC: 1.34801 cumulative IPC: 0.979533 (Simulation time: 1 hr 17 min 41 sec) 
Heartbeat CPU 2 instructions: 400000000 cycles: 136240691 heartbeat IPC: 1.41826 cumulative IPC: 1.02249 (Simulation time: 1 hr 18 min 15 sec) 
Heartbeat CPU 0 instructions: 340000000 cycles: 141444743 heartbeat IPC: 0.910621 cumulative IPC: 0.890817 (Simulation time: 1 hr 19 min 49 sec) 
Heartbeat CPU 3 instructions: 240000000 cycles: 144507636 heartbeat IPC: 0.986552 cumulative IPC: 0.984644 (Simulation time: 1 hr 20 min 45 sec) 
Heartbeat CPU 2 instructions: 410000003 cycles: 145997389 heartbeat IPC: 1.02494 cumulative IPC: 1.02404 (Simulation time: 1 hr 21 min 11 sec) 
Heartbeat CPU 0 instructions: 350000001 cycles: 152110014 heartbeat IPC: 0.937623 cumulative IPC: 0.914011 (Simulation time: 1 hr 22 min 59 sec) 
Heartbeat CPU 3 instructions: 250000002 cycles: 154764332 heartbeat IPC: 0.974973 cumulative IPC: 0.980541 (Simulation time: 1 hr 23 min 46 sec) 
Heartbeat CPU 2 instructions: 420000000 cycles: 155797867 heartbeat IPC: 1.02036 cumulative IPC: 1.02261 (Simulation time: 1 hr 24 min 5 sec) 
Heartbeat CPU 0 instructions: 360000000 cycles: 163106495 heartbeat IPC: 0.909382 cumulative IPC: 0.912446 (Simulation time: 1 hr 26 min 17 sec) 
Heartbeat CPU 1 instructions: 210000002 cycles: 163449804 heartbeat IPC: 0.3043 cumulative IPC: 0.3043 (Simulation time: 1 hr 26 min 23 sec) 
Heartbeat CPU 3 instructions: 260000000 cycles: 164963345 heartbeat IPC: 0.980487 cumulative IPC: 0.980525 (Simulation time: 1 hr 26 min 50 sec) 
Heartbeat CPU 2 instructions: 430000001 cycles: 165574545 heartbeat IPC: 1.02284 cumulative IPC: 1.02267 (Simulation time: 1 hr 27 min 1 sec) 
Heartbeat CPU 0 instructions: 370000000 cycles: 174427040 heartbeat IPC: 0.88335 cumulative IPC: 0.904932 (Simulation time: 1 hr 29 min 38 sec) 
Heartbeat CPU 3 instructions: 270000000 cycles: 175190104 heartbeat IPC: 0.977827 cumulative IPC: 0.979907 (Simulation time: 1 hr 29 min 52 sec) 
Heartbeat CPU 2 instructions: 440000000 cycles: 175361426 heartbeat IPC: 1.02178 cumulative IPC: 1.02248 (Simulation time: 1 hr 29 min 55 sec) 
Heartbeat CPU 0 instructions: 380000000 cycles: 184805149 heartbeat IPC: 0.963567 cumulative IPC: 0.916156 (Simulation time: 1 hr 32 min 58 sec) 
Heartbeat CPU 2 instructions: 450000000 cycles: 185137964 heartbeat IPC: 1.02286 cumulative IPC: 1.02255 (Simulation time: 1 hr 33 min 4 sec) 
Heartbeat CPU 3 instructions: 280000000 cycles: 185388646 heartbeat IPC: 0.980532 cumulative IPC: 0.980023 (Simulation time: 1 hr 33 min 9 sec) 
Heartbeat CPU 2 instructions: 460000000 cycles: 194949162 heartbeat IPC: 1.01924 cumulative IPC: 1.02204 (Simulation time: 1 hr 35 min 58 sec) 
Heartbeat CPU 3 instructions: 290000003 cycles: 195620127 heartbeat IPC: 0.977376 cumulative IPC: 0.979607 (Simulation time: 1 hr 36 min 9 sec) 
Heartbeat CPU 1 instructions: 220000000 cycles: 196087613 heartbeat IPC: 0.306393 cumulative IPC: 0.305343 (Simulation time: 1 hr 36 min 17 sec) 
Heartbeat CPU 2 instructions: 470000000 cycles: 204815380 heartbeat IPC: 1.01356 cumulative IPC: 1.02091 (Simulation time: 1 hr 38 min 43 sec) 
Heartbeat CPU 3 instructions: 300000000 cycles: 206064311 heartbeat IPC: 0.95747 cumulative IPC: 0.976543 (Simulation time: 1 hr 39 min 5 sec) 
Heartbeat CPU 2 instructions: 480000000 cycles: 214633896 heartbeat IPC: 1.01848 cumulative IPC: 1.02063 (Simulation time: 1 hr 41 min 28 sec) 
Heartbeat CPU 3 instructions: 310000003 cycles: 216726342 heartbeat IPC: 0.937908 cumulative IPC: 0.971761 (Simulation time: 1 hr 41 min 57 sec) 
Heartbeat CPU 0 instructions: 390000002 cycles: 222524003 heartbeat IPC: 0.265119 cumulative IPC: 0.649055 (Simulation time: 1 hr 43 min 33 sec) 
Heartbeat CPU 2 instructions: 490000003 cycles: 224475508 heartbeat IPC: 1.01609 cumulative IPC: 1.02016 (Simulation time: 1 hr 44 min 11 sec) 
Heartbeat CPU 3 instructions: 320000000 cycles: 227013875 heartbeat IPC: 0.97205 cumulative IPC: 0.971792 (Simulation time: 1 hr 45 min 0 sec) 
Heartbeat CPU 1 instructions: 230000002 cycles: 230861869 heartbeat IPC: 0.287569 cumulative IPC: 0.299179 (Simulation time: 1 hr 46 min 15 sec) 
Heartbeat CPU 2 instructions: 500000000 cycles: 234283157 heartbeat IPC: 1.01961 cumulative IPC: 1.0201 (Simulation time: 1 hr 47 min 22 sec) 
Heartbeat CPU 0 instructions: 400000000 cycles: 234664101 heartbeat IPC: 0.823716 cumulative IPC: 0.669428 (Simulation time: 1 hr 47 min 29 sec) 
Heartbeat CPU 3 instructions: 330000002 cycles: 237272444 heartbeat IPC: 0.974795 cumulative IPC: 0.972081 (Simulation time: 1 hr 48 min 20 sec) 
Heartbeat CPU 2 instructions: 510000001 cycles: 244088444 heartbeat IPC: 1.01986 cumulative IPC: 1.02008 (Simulation time: 1 hr 50 min 33 sec) 
Heartbeat CPU 0 instructions: 410000001 cycles: 246866893 heartbeat IPC: 0.819485 cumulative IPC: 0.685176 (Simulation time: 1 hr 51 min 36 sec) 
Heartbeat CPU 3 instructions: 340000000 cycles: 247507247 heartbeat IPC: 0.977058 cumulative IPC: 0.972516 (Simulation time: 1 hr 51 min 49 sec) 
Heartbeat CPU 2 instructions: 520000000 cycles: 253873779 heartbeat IPC: 1.02194 cumulative IPC: 1.02023 (Simulation time: 1 hr 53 min 53 sec) 
Heartbeat CPU 3 instructions: 350000003 cycles: 257718457 heartbeat IPC: 0.979316 cumulative IPC: 0.973063 (Simulation time: 1 hr 55 min 8 sec) 
Heartbeat CPU 0 instructions: 420000000 cycles: 259050548 heartbeat IPC: 0.820772 cumulative IPC: 0.698036 (Simulation time: 1 hr 55 min 34 sec) 
Heartbeat CPU 1 instructions: 240000000 cycles: 262811435 heartbeat IPC: 0.312993 cumulative IPC: 0.302517 (Simulation time: 1 hr 56 min 46 sec) 
Heartbeat CPU 2 instructions: 530000002 cycles: 263686667 heartbeat IPC: 1.01907 cumulative IPC: 1.02014 (Simulation time: 1 hr 57 min 3 sec) 
Heartbeat CPU 3 instructions: 360000000 cycles: 268226314 heartbeat IPC: 0.951669 cumulative IPC: 0.971429 (Simulation time: 1 hr 58 min 32 sec) 
Heartbeat CPU 0 instructions: 430000000 cycles: 271230103 heartbeat IPC: 0.821048 cumulative IPC: 0.708689 (Simulation time: 1 hr 59 min 31 sec) 
Heartbeat CPU 2 instructions: 540000000 cycles: 273473874 heartbeat IPC: 1.02174 cumulative IPC: 1.02025 (Simulation time: 2 hr 0 min 14 sec) 
Heartbeat CPU 3 instructions: 370000000 cycles: 278401736 heartbeat IPC: 0.98276 cumulative IPC: 0.972209 (Simulation time: 2 hr 1 min 51 sec) 
Heartbeat CPU 2 instructions: 550000003 cycles: 283259623 heartbeat IPC: 1.02189 cumulative IPC: 1.02036 (Simulation time: 2 hr 3 min 27 sec) 
Heartbeat CPU 0 instructions: 440000000 cycles: 283385015 heartbeat IPC: 0.822713 cumulative IPC: 0.717759 (Simulation time: 2 hr 3 min 29 sec) 
Heartbeat CPU 3 instructions: 380000000 cycles: 288624309 heartbeat IPC: 0.978227 cumulative IPC: 0.972599 (Simulation time: 2 hr 5 min 14 sec) 
Heartbeat CPU 2 instructions: 560000000 cycles: 293052207 heartbeat IPC: 1.02118 cumulative IPC: 1.02041 (Simulation time: 2 hr 6 min 52 sec) 
Heartbeat CPU 1 instructions: 250000002 cycles: 295059752 heartbeat IPC: 0.310094 cumulative IPC: 0.304003 (Simulation time: 2 hr 7 min 36 sec) 
Heartbeat CPU 0 instructions: 450000002 cycles: 295570310 heartbeat IPC: 0.820661 cumulative IPC: 0.725359 (Simulation time: 2 hr 7 min 46 sec) 
Heartbeat CPU 3 instructions: 390000000 cycles: 298824194 heartbeat IPC: 0.980403 cumulative IPC: 0.973072 (Simulation time: 2 hr 8 min 57 sec) 
Heartbeat CPU 2 instructions: 570000002 cycles: 302843144 heartbeat IPC: 1.02135 cumulative IPC: 1.02046 (Simulation time: 2 hr 10 min 27 sec) 
Heartbeat CPU 0 instructions: 460000000 cycles: 307720901 heartbeat IPC: 0.823005 cumulative IPC: 0.732057 (Simulation time: 2 hr 12 min 16 sec) 
Heartbeat CPU 3 instructions: 400000000 cycles: 309012508 heartbeat IPC: 0.981517 cumulative IPC: 0.973554 (Simulation time: 2 hr 12 min 42 sec) 
Heartbeat CPU 2 instructions: 580000000 cycles: 312660776 heartbeat IPC: 1.01858 cumulative IPC: 1.02036 (Simulation time: 2 hr 14 min 4 sec) 
Heartbeat CPU 3 instructions: 410000000 cycles: 319207926 heartbeat IPC: 0.980833 cumulative IPC: 0.973947 (Simulation time: 2 hr 16 min 26 sec) 
Heartbeat CPU 0 instructions: 470000003 cycles: 319890809 heartbeat IPC: 0.821699 cumulative IPC: 0.73782 (Simulation time: 2 hr 16 min 39 sec) 
Heartbeat CPU 2 instructions: 590000001 cycles: 322446444 heartbeat IPC: 1.0219 cumulative IPC: 1.02044 (Simulation time: 2 hr 17 min 29 sec) 
Heartbeat CPU 1 instructions: 260000000 cycles: 327380417 heartbeat IPC: 0.3094 cumulative IPC: 0.304889 (Simulation time: 2 hr 19 min 5 sec) 
Heartbeat CPU 3 instructions: 420000000 cycles: 329409749 heartbeat IPC: 0.980217 cumulative IPC: 0.974269 (Simulation time: 2 hr 19 min 44 sec) 
Heartbeat CPU 0 instructions: 480000000 cycles: 332049297 heartbeat IPC: 0.82247 cumulative IPC: 0.742929 (Simulation time: 2 hr 20 min 36 sec) 
Heartbeat CPU 2 instructions: 600000000 cycles: 332231432 heartbeat IPC: 1.02197 cumulative IPC: 1.02051 (Simulation time: 2 hr 20 min 39 sec) 
Heartbeat CPU 3 instructions: 430000000 cycles: 339573211 heartbeat IPC: 0.983917 cumulative IPC: 0.974738 (Simulation time: 2 hr 23 min 15 sec) 
Heartbeat CPU 2 instructions: 610000000 cycles: 342001921 heartbeat IPC: 1.02349 cumulative IPC: 1.02065 (Simulation time: 2 hr 24 min 6 sec) 
Heartbeat CPU 0 instructions: 490000003 cycles: 344208068 heartbeat IPC: 0.822452 cumulative IPC: 0.747455 (Simulation time: 2 hr 24 min 49 sec) 
Heartbeat CPU 3 instructions: 440000000 cycles: 349760074 heartbeat IPC: 0.981656 cumulative IPC: 0.97506 (Simulation time: 2 hr 26 min 41 sec) 
Heartbeat CPU 2 instructions: 620000000 cycles: 351777830 heartbeat IPC: 1.02292 cumulative IPC: 1.02075 (Simulation time: 2 hr 27 min 25 sec) 
Heartbeat CPU 0 instructions: 500000000 cycles: 356359459 heartbeat IPC: 0.822951 cumulative IPC: 0.751519 (Simulation time: 2 hr 29 min 3 sec) 
Heartbeat CPU 1 instructions: 270000003 cycles: 359642674 heartbeat IPC: 0.30996 cumulative IPC: 0.305603 (Simulation time: 2 hr 30 min 7 sec) 
Heartbeat CPU 3 instructions: 450000003 cycles: 359961864 heartbeat IPC: 0.98022 cumulative IPC: 0.975289 (Simulation time: 2 hr 30 min 14 sec) 
Heartbeat CPU 2 instructions: 630000003 cycles: 361559508 heartbeat IPC: 1.02232 cumulative IPC: 1.02082 (Simulation time: 2 hr 30 min 45 sec) 
Heartbeat CPU 3 instructions: 460000000 cycles: 370298153 heartbeat IPC: 0.967465 cumulative IPC: 0.974952 (Simulation time: 2 hr 33 min 24 sec) 
Heartbeat CPU 2 instructions: 640000000 cycles: 371371218 heartbeat IPC: 1.01919 cumulative IPC: 1.02075 (Simulation time: 2 hr 33 min 43 sec) 
Heartbeat CPU 3 instructions: 470000003 cycles: 380543594 heartbeat IPC: 0.976044 cumulative IPC: 0.974997 (Simulation time: 2 hr 36 min 11 sec) 
Heartbeat CPU 2 instructions: 650000002 cycles: 381157214 heartbeat IPC: 1.02187 cumulative IPC: 1.0208 (Simulation time: 2 hr 36 min 24 sec) 
Heartbeat CPU 3 instructions: 480000000 cycles: 390872345 heartbeat IPC: 0.968171 cumulative IPC: 0.974726 (Simulation time: 2 hr 39 min 7 sec) 
Heartbeat CPU 2 instructions: 660000000 cycles: 390978969 heartbeat IPC: 1.01815 cumulative IPC: 1.0207 (Simulation time: 2 hr 39 min 9 sec) 
Heartbeat CPU 1 instructions: 280000000 cycles: 393053442 heartbeat IPC: 0.299305 cumulative IPC: 0.304801 (Simulation time: 2 hr 39 min 43 sec) 
Heartbeat CPU 0 instructions: 510000001 cycles: 398095767 heartbeat IPC: 0.2396 cumulative IPC: 0.67165 (Simulation time: 2 hr 41 min 22 sec) 
Heartbeat CPU 2 instructions: 670000002 cycles: 400784304 heartbeat IPC: 1.01985 cumulative IPC: 1.02066 (Simulation time: 2 hr 42 min 14 sec) 
Heartbeat CPU 3 instructions: 490000000 cycles: 401183924 heartbeat IPC: 0.969784 cumulative IPC: 0.974538 (Simulation time: 2 hr 42 min 23 sec) 
Heartbeat CPU 2 instructions: 680000000 cycles: 410614098 heartbeat IPC: 1.01732 cumulative IPC: 1.02055 (Simulation time: 2 hr 45 min 27 sec) 
Heartbeat CPU 3 instructions: 500000000 cycles: 411437868 heartbeat IPC: 0.975235 cumulative IPC: 0.974563 (Simulation time: 2 hr 45 min 43 sec) 
Heartbeat CPU 0 instructions: 520000000 cycles: 412834075 heartbeat IPC: 0.678504 cumulative IPC: 0.672008 (Simulation time: 2 hr 46 min 11 sec) 
Heartbeat CPU 2 instructions: 690000002 cycles: 420397364 heartbeat IPC: 1.02215 cumulative IPC: 1.0206 (Simulation time: 2 hr 48 min 29 sec) 
Heartbeat CPU 3 instructions: 510000000 cycles: 421896963 heartbeat IPC: 0.956106 cumulative IPC: 0.9739 (Simulation time: 2 hr 48 min 57 sec) 
Heartbeat CPU 1 instructions: 290000000 cycles: 425549170 heartbeat IPC: 0.307733 cumulative IPC: 0.305124 (Simulation time: 2 hr 50 min 11 sec) 
Heartbeat CPU 0 instructions: 530000001 cycles: 429491448 heartbeat IPC: 0.600335 cumulative IPC: 0.668013 (Simulation time: 2 hr 51 min 25 sec) 
Heartbeat CPU 2 instructions: 700000000 cycles: 430286454 heartbeat IPC: 1.01122 cumulative IPC: 1.02029 (Simulation time: 2 hr 51 min 40 sec) 
Heartbeat CPU 3 instructions: 520000000 cycles: 432285677 heartbeat IPC: 0.962583 cumulative IPC: 0.973511 (Simulation time: 2 hr 52 min 14 sec) 
Heartbeat CPU 2 instructions: 710000001 cycles: 440222676 heartbeat IPC: 1.00642 cumulative IPC: 1.01985 (Simulation time: 2 hr 54 min 53 sec) 
Heartbeat CPU 3 instructions: 530000002 cycles: 442790111 heartbeat IPC: 0.951979 cumulative IPC: 0.972786 (Simulation time: 2 hr 55 min 40 sec) 
Heartbeat CPU 0 instructions: 540000000 cycles: 442916031 heartbeat IPC: 0.744902 cumulative IPC: 0.671318 (Simulation time: 2 hr 55 min 42 sec) 
Heartbeat CPU 2 instructions: 720000000 cycles: 450271769 heartbeat IPC: 0.995115 cumulative IPC: 1.01907 (Simulation time: 2 hr 58 min 8 sec) 
Heartbeat CPU 3 instructions: 540000000 cycles: 453426199 heartbeat IPC: 0.940195 cumulative IPC: 0.971712 (Simulation time: 2 hr 59 min 12 sec) 
Heartbeat CPU 0 instructions: 550000001 cycles: 456831136 heartbeat IPC: 0.718644 cumulative IPC: 0.673337 (Simulation time: 3 hr 0 min 25 sec) 
Heartbeat CPU 2 instructions: 730000001 cycles: 460144724 heartbeat IPC: 1.01287 cumulative IPC: 1.01888 (Simulation time: 3 hr 1 min 34 sec) 
Heartbeat CPU 1 instructions: 300000000 cycles: 460377542 heartbeat IPC: 0.287122 cumulative IPC: 0.303223 (Simulation time: 3 hr 1 min 41 sec) 
Heartbeat CPU 3 instructions: 550000002 cycles: 463669536 heartbeat IPC: 0.976245 cumulative IPC: 0.971852 (Simulation time: 3 hr 2 min 44 sec) 
Heartbeat CPU 0 instructions: 560000000 cycles: 468935358 heartbeat IPC: 0.826158 cumulative IPC: 0.678804 (Simulation time: 3 hr 4 min 22 sec) 
Heartbeat CPU 2 instructions: 740000000 cycles: 469937473 heartbeat IPC: 1.02116 cumulative IPC: 1.01895 (Simulation time: 3 hr 4 min 39 sec) 
Heartbeat CPU 3 instructions: 560000000 cycles: 473866678 heartbeat IPC: 0.980667 cumulative IPC: 0.972114 (Simulation time: 3 hr 6 min 1 sec) 
Heartbeat CPU 2 instructions: 750000002 cycles: 479724546 heartbeat IPC: 1.02176 cumulative IPC: 1.01903 (Simulation time: 3 hr 8 min 3 sec) 
Heartbeat CPU 0 instructions: 570000000 cycles: 481318404 heartbeat IPC: 0.807556 cumulative IPC: 0.68335 (Simulation time: 3 hr 8 min 32 sec) 
Heartbeat CPU 3 instructions: 570000003 cycles: 484069108 heartbeat IPC: 0.980159 cumulative IPC: 0.972346 (Simulation time: 3 hr 9 min 25 sec) 
Heartbeat CPU 2 instructions: 760000000 cycles: 489501462 heartbeat IPC: 1.02282 cumulative IPC: 1.01913 (Simulation time: 3 hr 11 min 9 sec) 
Heartbeat CPU 1 instructions: 310000001 cycles: 491783131 heartbeat IPC: 0.318415 cumulative IPC: 0.304544 (Simulation time: 3 hr 11 min 51 sec) 
Heartbeat CPU 0 instructions: 580000000 cycles: 493051610 heartbeat IPC: 0.852282 cumulative IPC: 0.688818 (Simulation time: 3 hr 12 min 15 sec) 
Heartbeat CPU 3 instructions: 580000000 cycles: 494233150 heartbeat IPC: 0.98386 cumulative IPC: 0.972668 (Simulation time: 3 hr 12 min 36 sec) 
Heartbeat CPU 2 instructions: 770000001 cycles: 499271459 heartbeat IPC: 1.02354 cumulative IPC: 1.01925 (Simulation time: 3 hr 14 min 5 sec) 
Heartbeat CPU 3 instructions: 590000003 cycles: 504397465 heartbeat IPC: 0.983834 cumulative IPC: 0.972971 (Simulation time: 3 hr 15 min 36 sec) 
Heartbeat CPU 0 instructions: 590000000 cycles: 504893110 heartbeat IPC: 0.844488 cumulative IPC: 0.693743 (Simulation time: 3 hr 15 min 45 sec) 
Heartbeat CPU 2 instructions: 780000000 cycles: 509053801 heartbeat IPC: 1.02225 cumulative IPC: 1.01933 (Simulation time: 3 hr 16 min 57 sec) 
Heartbeat CPU 3 instructions: 600000000 cycles: 514543031 heartbeat IPC: 0.985652 cumulative IPC: 0.973306 (Simulation time: 3 hr 18 min 34 sec) 
Heartbeat CPU 0 instructions: 600000000 cycles: 517270691 heartbeat IPC: 0.807912 cumulative IPC: 0.697397 (Simulation time: 3 hr 19 min 21 sec) 
Heartbeat CPU 2 instructions: 790000000 cycles: 518838275 heartbeat IPC: 1.02203 cumulative IPC: 1.01939 (Simulation time: 3 hr 19 min 48 sec) 
Heartbeat CPU 1 instructions: 320000000 cycles: 524633196 heartbeat IPC: 0.304413 cumulative IPC: 0.304533 (Simulation time: 3 hr 21 min 20 sec) 
Heartbeat CPU 3 instructions: 610000001 cycles: 525092827 heartbeat IPC: 0.947886 cumulative IPC: 0.972627 (Simulation time: 3 hr 21 min 28 sec) 
Heartbeat CPU 2 instructions: 800000000 cycles: 528970062 heartbeat IPC: 0.986993 cumulative IPC: 1.01857 (Simulation time: 3 hr 22 min 28 sec) 
Heartbeat CPU 0 instructions: 610000000 cycles: 535172872 heartbeat IPC: 0.558591 cumulative IPC: 0.691255 (Simulation time: 3 hr 24 min 5 sec) 
Heartbeat CPU 3 instructions: 620000000 cycles: 535818667 heartbeat IPC: 0.932328 cumulative IPC: 0.97156 (Simulation time: 3 hr 24 min 18 sec) 
Heartbeat CPU 2 instructions: 810000001 cycles: 538987435 heartbeat IPC: 0.998266 cumulative IPC: 1.01807 (Simulation time: 3 hr 25 min 10 sec) 
Heartbeat CPU 3 instructions: 630000003 cycles: 546174038 heartbeat IPC: 0.965683 cumulative IPC: 0.971414 (Simulation time: 3 hr 27 min 13 sec) 
Heartbeat CPU 2 instructions: 820000000 cycles: 548797376 heartbeat IPC: 1.01937 cumulative IPC: 1.0181 (Simulation time: 3 hr 27 min 56 sec) 
Heartbeat CPU 0 instructions: 620000000 cycles: 549089603 heartbeat IPC: 0.71856 cumulative IPC: 0.692163 (Simulation time: 3 hr 28 min 1 sec) 
Heartbeat CPU 3 instructions: 640000000 cycles: 556386581 heartbeat IPC: 0.979188 cumulative IPC: 0.9716 (Simulation time: 3 hr 30 min 6 sec) 
Heartbeat CPU 1 instructions: 330000002 cycles: 558160108 heartbeat IPC: 0.298268 cumulative IPC: 0.304042 (Simulation time: 3 hr 30 min 36 sec) 
Heartbeat CPU 2 instructions: 830000000 cycles: 558582744 heartbeat IPC: 1.02193 cumulative IPC: 1.01819 (Simulation time: 3 hr 30 min 44 sec) 
Heartbeat CPU 0 instructions: 630000000 cycles: 563363803 heartbeat IPC: 0.700565 cumulative IPC: 0.69244 (Simulation time: 3 hr 32 min 11 sec) 
Heartbeat CPU 3 instructions: 650000002 cycles: 566582161 heartbeat IPC: 0.980817 cumulative IPC: 0.971816 (Simulation time: 3 hr 33 min 14 sec) 
Heartbeat CPU 2 instructions: 840000000 cycles: 568364700 heartbeat IPC: 1.02229 cumulative IPC: 1.01828 (Simulation time: 3 hr 33 min 46 sec) 
Heartbeat CPU 0 instructions: 640000000 cycles: 576279595 heartbeat IPC: 0.774246 cumulative IPC: 0.694811 (Simulation time: 3 hr 36 min 11 sec) 
Heartbeat CPU 3 instructions: 660000000 cycles: 577027793 heartbeat IPC: 0.957338 cumulative IPC: 0.971477 (Simulation time: 3 hr 36 min 26 sec) 
Heartbeat CPU 2 instructions: 850000003 cycles: 578167876 heartbeat IPC: 1.02008 cumulative IPC: 1.01832 (Simulation time: 3 hr 36 min 46 sec) 
Heartbeat CPU 3 instructions: 670000000 cycles: 587200759 heartbeat IPC: 0.982997 cumulative IPC: 0.971733 (Simulation time: 3 hr 39 min 32 sec) 
Heartbeat CPU 2 instructions: 860000000 cycles: 587951857 heartbeat IPC: 1.02208 cumulative IPC: 1.0184 (Simulation time: 3 hr 39 min 47 sec) 
Heartbeat CPU 0 instructions: 650000001 cycles: 589088131 heartbeat IPC: 0.780729 cumulative IPC: 0.697211 (Simulation time: 3 hr 40 min 11 sec) 
Heartbeat CPU 1 instructions: 340000000 cycles: 590025467 heartbeat IPC: 0.31382 cumulative IPC: 0.30472 (Simulation time: 3 hr 40 min 26 sec) 
Heartbeat CPU 3 instructions: 680000000 cycles: 597423529 heartbeat IPC: 0.978208 cumulative IPC: 0.971875 (Simulation time: 3 hr 42 min 44 sec) 
Heartbeat CPU 2 instructions: 870000002 cycles: 597725016 heartbeat IPC: 1.02321 cumulative IPC: 1.0185 (Simulation time: 3 hr 42 min 50 sec) 
Heartbeat CPU 0 instructions: 660000000 cycles: 602729836 heartbeat IPC: 0.733046 cumulative IPC: 0.698247 (Simulation time: 3 hr 44 min 23 sec) 
Heartbeat CPU 2 instructions: 880000000 cycles: 607509765 heartbeat IPC: 1.022 cumulative IPC: 1.01857 (Simulation time: 3 hr 45 min 53 sec) 
Heartbeat CPU 3 instructions: 690000001 cycles: 607606281 heartbeat IPC: 0.982053 cumulative IPC: 0.972093 (Simulation time: 3 hr 45 min 55 sec) 
Heartbeat CPU 0 instructions: 670000001 cycles: 615715943 heartbeat IPC: 0.770054 cumulative IPC: 0.700169 (Simulation time: 3 hr 48 min 27 sec) 
Heartbeat CPU 2 instructions: 890000000 cycles: 617307467 heartbeat IPC: 1.02065 cumulative IPC: 1.01862 (Simulation time: 3 hr 48 min 55 sec) 
Heartbeat CPU 3 instructions: 700000000 cycles: 617820755 heartbeat IPC: 0.979003 cumulative IPC: 0.972237 (Simulation time: 3 hr 49 min 5 sec) 
Heartbeat CPU 1 instructions: 350000001 cycles: 621664857 heartbeat IPC: 0.316062 cumulative IPC: 0.305451 (Simulation time: 3 hr 50 min 23 sec) 
Heartbeat CPU 2 instructions: 900000000 cycles: 627103062 heartbeat IPC: 1.02087 cumulative IPC: 1.01866 (Simulation time: 3 hr 52 min 16 sec) 
Heartbeat CPU 3 instructions: 710000003 cycles: 628044356 heartbeat IPC: 0.978129 cumulative IPC: 0.972358 (Simulation time: 3 hr 52 min 33 sec) 
Heartbeat CPU 0 instructions: 680000000 cycles: 629113779 heartbeat IPC: 0.746389 cumulative IPC: 0.701411 (Simulation time: 3 hr 52 min 52 sec) 
Heartbeat CPU 2 instructions: 910000001 cycles: 636903316 heartbeat IPC: 1.02038 cumulative IPC: 1.01869 (Simulation time: 3 hr 55 min 18 sec) 
Heartbeat CPU 3 instructions: 720000000 cycles: 638244581 heartbeat IPC: 0.98037 cumulative IPC: 0.972519 (Simulation time: 3 hr 55 min 43 sec) 
Heartbeat CPU 0 instructions: 690000003 cycles: 642406073 heartbeat IPC: 0.752316 cumulative IPC: 0.702733 (Simulation time: 3 hr 57 min 0 sec) 
Heartbeat CPU 2 instructions: 920000000 cycles: 646719519 heartbeat IPC: 1.01872 cumulative IPC: 1.01869 (Simulation time: 3 hr 58 min 21 sec) 
Heartbeat CPU 3 instructions: 730000000 cycles: 648431337 heartbeat IPC: 0.981667 cumulative IPC: 0.972699 (Simulation time: 3 hr 58 min 56 sec) 
Heartbeat CPU 1 instructions: 360000000 cycles: 653034695 heartbeat IPC: 0.318778 cumulative IPC: 0.306251 (Simulation time: 4 hr 0 min 32 sec) 
Heartbeat CPU 0 instructions: 700000000 cycles: 655387200 heartbeat IPC: 0.770349 cumulative IPC: 0.704406 (Simulation time: 4 hr 1 min 26 sec) 
Heartbeat CPU 2 instructions: 930000000 cycles: 656504870 heartbeat IPC: 1.02194 cumulative IPC: 1.01875 (Simulation time: 4 hr 1 min 51 sec) 
Heartbeat CPU 3 instructions: 740000000 cycles: 658634590 heartbeat IPC: 0.98008 cumulative IPC: 0.972842 (Simulation time: 4 hr 2 min 31 sec) 
Heartbeat CPU 2 instructions: 940000000 cycles: 666319111 heartbeat IPC: 1.01893 cumulative IPC: 1.01876 (Simulation time: 4 hr 4 min 56 sec) 
Heartbeat CPU 0 instructions: 710000002 cycles: 668078352 heartbeat IPC: 0.787951 cumulative IPC: 0.706378 (Simulation time: 4 hr 5 min 31 sec) 
Heartbeat CPU 3 instructions: 750000001 cycles: 668825960 heartbeat IPC: 0.981222 cumulative IPC: 0.973001 (Simulation time: 4 hr 5 min 44 sec) 
Heartbeat CPU 2 instructions: 950000001 cycles: 676114454 heartbeat IPC: 1.02089 cumulative IPC: 1.0188 (Simulation time: 4 hr 8 min 0 sec) 
Heartbeat CPU 3 instructions: 760000000 cycles: 679008479 heartbeat IPC: 0.982075 cumulative IPC: 0.973169 (Simulation time: 4 hr 8 min 56 sec) 
Heartbeat CPU 0 instructions: 720000000 cycles: 681697881 heartbeat IPC: 0.73424 cumulative IPC: 0.707067 (Simulation time: 4 hr 9 min 50 sec) 
Heartbeat CPU 1 instructions: 370000001 cycles: 684426489 heartbeat IPC: 0.318555 cumulative IPC: 0.306948 (Simulation time: 4 hr 10 min 51 sec) 
Heartbeat CPU 2 instructions: 960000000 cycles: 685913081 heartbeat IPC: 1.02055 cumulative IPC: 1.01883 (Simulation time: 4 hr 11 min 20 sec) 
Heartbeat CPU 3 instructions: 770000003 cycles: 689225359 heartbeat IPC: 0.978773 cumulative IPC: 0.973272 (Simulation time: 4 hr 12 min 29 sec) 
Heartbeat CPU 0 instructions: 730000003 cycles: 694694612 heartbeat IPC: 0.769424 cumulative IPC: 0.708503 (Simulation time: 4 hr 14 min 18 sec) 
Heartbeat CPU 2 instructions: 970000003 cycles: 695669897 heartbeat IPC: 1.02492 cumulative IPC: 1.01893 (Simulation time: 4 hr 14 min 38 sec) 
Heartbeat CPU 3 instructions: 780000000 cycles: 699411192 heartbeat IPC: 0.981755 cumulative IPC: 0.973424 (Simulation time: 4 hr 16 min 1 sec) 
Heartbeat CPU 2 instructions: 980000000 cycles: 705467199 heartbeat IPC: 1.02069 cumulative IPC: 1.01896 (Simulation time: 4 hr 17 min 59 sec) 
Heartbeat CPU 0 instructions: 740000000 cycles: 708035711 heartbeat IPC: 0.749563 cumulative IPC: 0.709452 (Simulation time: 4 hr 18 min 46 sec) 
Heartbeat CPU 3 instructions: 790000001 cycles: 709614583 heartbeat IPC: 0.980066 cumulative IPC: 0.973541 (Simulation time: 4 hr 19 min 15 sec) 
Heartbeat CPU 2 instructions: 990000002 cycles: 715241907 heartbeat IPC: 1.02305 cumulative IPC: 1.01903 (Simulation time: 4 hr 21 min 2 sec) 
Heartbeat CPU 1 instructions: 380000000 cycles: 716269185 heartbeat IPC: 0.314044 cumulative IPC: 0.307334 (Simulation time: 4 hr 21 min 22 sec) 
Heartbeat CPU 3 instructions: 800000000 cycles: 719807276 heartbeat IPC: 0.981095 cumulative IPC: 0.973671 (Simulation time: 4 hr 22 min 27 sec) 
Heartbeat CPU 0 instructions: 750000001 cycles: 721351680 heartbeat IPC: 0.750978 cumulative IPC: 0.710388 (Simulation time: 4 hr 22 min 56 sec) 
Heartbeat CPU 2 instructions: 1000000000 cycles: 725012513 heartbeat IPC: 1.02348 cumulative IPC: 1.0191 (Simulation time: 4 hr 24 min 5 sec) 
Heartbeat CPU 3 instructions: 810000001 cycles: 730224566 heartbeat IPC: 0.959943 cumulative IPC: 0.973433 (Simulation time: 4 hr 25 min 40 sec) 
Heartbeat CPU 0 instructions: 760000000 cycles: 734404650 heartbeat IPC: 0.766109 cumulative IPC: 0.711593 (Simulation time: 4 hr 26 min 59 sec) 
Heartbeat CPU 2 instructions: 1010000000 cycles: 734807541 heartbeat IPC: 1.02093 cumulative IPC: 1.01913 (Simulation time: 4 hr 27 min 6 sec) 
Heartbeat CPU 3 instructions: 820000000 cycles: 740462732 heartbeat IPC: 0.976737 cumulative IPC: 0.973488 (Simulation time: 4 hr 28 min 53 sec) 
Heartbeat CPU 2 instructions: 1020000000 cycles: 744599374 heartbeat IPC: 1.02126 cumulative IPC: 1.01917 (Simulation time: 4 hr 30 min 12 sec) 
Heartbeat CPU 0 instructions: 770000000 cycles: 747155214 heartbeat IPC: 0.784279 cumulative IPC: 0.713096 (Simulation time: 4 hr 31 min 7 sec) 
Heartbeat CPU 1 instructions: 390000003 cycles: 747968638 heartbeat IPC: 0.315463 cumulative IPC: 0.307752 (Simulation time: 4 hr 31 min 23 sec) 
Heartbeat CPU 3 instructions: 830000003 cycles: 750691809 heartbeat IPC: 0.977606 cumulative IPC: 0.973556 (Simulation time: 4 hr 32 min 18 sec) 
Heartbeat CPU 2 instructions: 1030000001 cycles: 754390051 heartbeat IPC: 1.02138 cumulative IPC: 1.0192 (Simulation time: 4 hr 33 min 26 sec) 
Heartbeat CPU 0 instructions: 780000000 cycles: 760877266 heartbeat IPC: 0.728754 cumulative IPC: 0.713437 (Simulation time: 4 hr 35 min 33 sec) 
Heartbeat CPU 3 instructions: 840000000 cycles: 760904728 heartbeat IPC: 0.979152 cumulative IPC: 0.973647 (Simulation time: 4 hr 35 min 34 sec) 
Heartbeat CPU 2 instructions: 1040000000 cycles: 764180910 heartbeat IPC: 1.02136 cumulative IPC: 1.01923 (Simulation time: 4 hr 36 min 42 sec) 
Heartbeat CPU 3 instructions: 850000000 cycles: 771122860 heartbeat IPC: 0.978652 cumulative IPC: 0.973727 (Simulation time: 4 hr 38 min 58 sec) 
Heartbeat CPU 0 instructions: 790000000 cycles: 773875047 heartbeat IPC: 0.769362 cumulative IPC: 0.714567 (Simulation time: 4 hr 39 min 53 sec) 
Heartbeat CPU 2 instructions: 1050000003 cycles: 773974978 heartbeat IPC: 1.02103 cumulative IPC: 1.01926 (Simulation time: 4 hr 39 min 54 sec) 
Heartbeat CPU 1 instructions: 400000000 cycles: 779678794 heartbeat IPC: 0.315356 cumulative IPC: 0.308123 (Simulation time: 4 hr 41 min 48 sec) 
Heartbeat CPU 3 instructions: 860000000 cycles: 781388925 heartbeat IPC: 0.974083 cumulative IPC: 0.973732 (Simulation time: 4 hr 42 min 25 sec) 
Heartbeat CPU 2 instructions: 1060000000 cycles: 783779373 heartbeat IPC: 1.01995 cumulative IPC: 1.01927 (Simulation time: 4 hr 43 min 9 sec) 
Heartbeat CPU 0 instructions: 800000000 cycles: 787247549 heartbeat IPC: 0.747803 cumulative IPC: 0.715243 (Simulation time: 4 hr 44 min 18 sec) 
Heartbeat CPU 3 instructions: 870000000 cycles: 791597263 heartbeat IPC: 0.979591 cumulative IPC: 0.973823 (Simulation time: 4 hr 45 min 45 sec) 
Heartbeat CPU 2 instructions: 1070000002 cycles: 793579161 heartbeat IPC: 1.02043 cumulative IPC: 1.01929 (Simulation time: 4 hr 46 min 23 sec) 
Heartbeat CPU 0 instructions: 810000000 cycles: 800631319 heartbeat IPC: 0.747174 cumulative IPC: 0.715881 (Simulation time: 4 hr 48 min 40 sec) 
Heartbeat CPU 3 instructions: 880000000 cycles: 801793219 heartbeat IPC: 0.980781 cumulative IPC: 0.973929 (Simulation time: 4 hr 49 min 2 sec) 
Heartbeat CPU 2 instructions: 1080000000 cycles: 803360741 heartbeat IPC: 1.02233 cumulative IPC: 1.01933 (Simulation time: 4 hr 49 min 30 sec) 
Heartbeat CPU 1 instructions: 410000003 cycles: 811468660 heartbeat IPC: 0.314566 cumulative IPC: 0.308424 (Simulation time: 4 hr 51 min 48 sec) 
Heartbeat CPU 3 instructions: 890000000 cycles: 812001041 heartbeat IPC: 0.979641 cumulative IPC: 0.974014 (Simulation time: 4 hr 51 min 58 sec) 
Heartbeat CPU 2 instructions: 1090000001 cycles: 813169588 heartbeat IPC: 1.01949 cumulative IPC: 1.01934 (Simulation time: 4 hr 52 min 17 sec) 
Heartbeat CPU 0 instructions: 820000000 cycles: 813508693 heartbeat IPC: 0.776556 cumulative IPC: 0.717025 (Simulation time: 4 hr 52 min 24 sec) 
Heartbeat CPU 3 instructions: 900000000 cycles: 822209435 heartbeat IPC: 0.979586 cumulative IPC: 0.974096 (Simulation time: 4 hr 54 min 46 sec) 
Heartbeat CPU 2 instructions: 1100000000 cycles: 823013182 heartbeat IPC: 1.01589 cumulative IPC: 1.01929 (Simulation time: 4 hr 54 min 57 sec) 
Heartbeat CPU 3 instructions: 910000000 cycles: 832617485 heartbeat IPC: 0.960795 cumulative IPC: 0.973899 (Simulation time: 4 hr 57 min 11 sec) 
Heartbeat CPU 2 instructions: 1110000003 cycles: 832960176 heartbeat IPC: 1.00533 cumulative IPC: 1.01909 (Simulation time: 4 hr 57 min 16 sec) 
Heartbeat CPU 2 instructions: 1120000000 cycles: 842853276 heartbeat IPC: 1.01081 cumulative IPC: 1.01897 (Simulation time: 4 hr 59 min 35 sec) 
Heartbeat CPU 3 instructions: 920000000 cycles: 842948820 heartbeat IPC: 0.967929 cumulative IPC: 0.973813 (Simulation time: 4 hr 59 min 36 sec) 
Heartbeat CPU 1 instructions: 420000000 cycles: 844298186 heartbeat IPC: 0.304604 cumulative IPC: 0.308248 (Simulation time: 4 hr 59 min 54 sec) 
Heartbeat CPU 2 instructions: 1130000001 cycles: 852716154 heartbeat IPC: 1.0139 cumulative IPC: 1.0189 (Simulation time: 5 hr 2 min 14 sec) 
Heartbeat CPU 0 instructions: 830000002 cycles: 853209208 heartbeat IPC: 0.251886 cumulative IPC: 0.691471 (Simulation time: 5 hr 2 min 24 sec) 
Heartbeat CPU 3 instructions: 930000002 cycles: 853238440 heartbeat IPC: 0.971853 cumulative IPC: 0.973785 (Simulation time: 5 hr 2 min 24 sec) 
Heartbeat CPU 2 instructions: 1140000000 cycles: 862533498 heartbeat IPC: 1.01861 cumulative IPC: 1.0189 (Simulation time: 5 hr 5 min 28 sec) 
Heartbeat CPU 3 instructions: 940000000 cycles: 863490310 heartbeat IPC: 0.975432 cumulative IPC: 0.973808 (Simulation time: 5 hr 5 min 46 sec) 
Heartbeat CPU 0 instructions: 840000000 cycles: 865340816 heartbeat IPC: 0.824293 cumulative IPC: 0.693664 (Simulation time: 5 hr 6 min 23 sec) 
Heartbeat CPU 2 instructions: 1150000002 cycles: 872344546 heartbeat IPC: 1.01926 cumulative IPC: 1.01891 (Simulation time: 5 hr 8 min 42 sec) 
Heartbeat CPU 3 instructions: 950000000 cycles: 873736579 heartbeat IPC: 0.975965 cumulative IPC: 0.973837 (Simulation time: 5 hr 9 min 19 sec) 
Heartbeat CPU 1 instructions: 430000000 cycles: 875870169 heartbeat IPC: 0.316737 cumulative IPC: 0.308608 (Simulation time: 5 hr 10 min 4 sec) 
Heartbeat CPU 0 instructions: 850000001 cycles: 877538660 heartbeat IPC: 0.819817 cumulative IPC: 0.695724 (Simulation time: 5 hr 10 min 37 sec) 
Heartbeat CPU 2 instructions: 1160000000 cycles: 882126713 heartbeat IPC: 1.02227 cumulative IPC: 1.01895 (Simulation time: 5 hr 12 min 15 sec) 
Heartbeat CPU 3 instructions: 960000000 cycles: 883922993 heartbeat IPC: 0.9817 cumulative IPC: 0.973944 (Simulation time: 5 hr 12 min 55 sec) 
Heartbeat CPU 0 instructions: 860000000 cycles: 889778148 heartbeat IPC: 0.817028 cumulative IPC: 0.69768 (Simulation time: 5 hr 15 min 13 sec) 
Heartbeat CPU 2 instructions: 1170000003 cycles: 891950686 heartbeat IPC: 1.01792 cumulative IPC: 1.01894 (Simulation time: 5 hr 15 min 58 sec) 
Heartbeat CPU 3 instructions: 970000003 cycles: 894364300 heartbeat IPC: 0.957735 cumulative IPC: 0.973722 (Simulation time: 5 hr 16 min 46 sec) 
Heartbeat CPU 2 instructions: 1180000000 cycles: 901746759 heartbeat IPC: 1.02082 cumulative IPC: 1.01896 (Simulation time: 5 hr 19 min 13 sec) 
Heartbeat CPU 0 instructions: 870000002 cycles: 901965527 heartbeat IPC: 0.820521 cumulative IPC: 0.69962 (Simulation time: 5 hr 19 min 17 sec) 
Heartbeat CPU 3 instructions: 980000000 cycles: 904538559 heartbeat IPC: 0.982872 cumulative IPC: 0.973842 (Simulation time: 5 hr 20 min 9 sec) 
Heartbeat CPU 1 instructions: 440000000 cycles: 907075202 heartbeat IPC: 0.320461 cumulative IPC: 0.309084 (Simulation time: 5 hr 20 min 59 sec) 
Heartbeat CPU 2 instructions: 1190000003 cycles: 911571307 heartbeat IPC: 1.01786 cumulative IPC: 1.01895 (Simulation time: 5 hr 22 min 28 sec) 
Heartbeat CPU 0 instructions: 880000000 cycles: 914138093 heartbeat IPC: 0.821519 cumulative IPC: 0.701514 (Simulation time: 5 hr 23 min 19 sec) 
Heartbeat CPU 3 instructions: 990000001 cycles: 914716126 heartbeat IPC: 0.982553 cumulative IPC: 0.973956 (Simulation time: 5 hr 23 min 31 sec) 
Heartbeat CPU 2 instructions: 1200000000 cycles: 921361801 heartbeat IPC: 1.0214 cumulative IPC: 1.01898 (Simulation time: 5 hr 25 min 42 sec) 
Heartbeat CPU 3 instructions: 1000000000 cycles: 924885708 heartbeat IPC: 0.983324 cumulative IPC: 0.974075 (Simulation time: 5 hr 26 min 52 sec) 
Heartbeat CPU 0 instructions: 890000002 cycles: 926329725 heartbeat IPC: 0.820235 cumulative IPC: 0.703333 (Simulation time: 5 hr 27 min 20 sec) 
Heartbeat CPU 2 instructions: 1210000001 cycles: 931170378 heartbeat IPC: 1.01952 cumulative IPC: 1.01898 (Simulation time: 5 hr 28 min 56 sec) 
Heartbeat CPU 3 instructions: 1010000002 cycles: 935117259 heartbeat IPC: 0.977369 cumulative IPC: 0.974117 (Simulation time: 5 hr 30 min 14 sec) 
Heartbeat CPU 0 instructions: 900000000 cycles: 938502691 heartbeat IPC: 0.821492 cumulative IPC: 0.705113 (Simulation time: 5 hr 31 min 21 sec) 
Heartbeat CPU 1 instructions: 450000003 cycles: 938540516 heartbeat IPC: 0.31781 cumulative IPC: 0.309424 (Simulation time: 5 hr 31 min 22 sec) 
Heartbeat CPU 2 instructions: 1220000000 cycles: 940971756 heartbeat IPC: 1.02026 cumulative IPC: 1.019 (Simulation time: 5 hr 32 min 8 sec) 
Heartbeat CPU 3 instructions: 1020000000 cycles: 945316657 heartbeat IPC: 0.98045 cumulative IPC: 0.974197 (Simulation time: 5 hr 33 min 34 sec) 
Heartbeat CPU 0 instructions: 910000001 cycles: 950658063 heartbeat IPC: 0.822682 cumulative IPC: 0.706856 (Simulation time: 5 hr 35 min 21 sec) 
Heartbeat CPU 2 instructions: 1230000000 cycles: 950747535 heartbeat IPC: 1.02294 cumulative IPC: 1.01905 (Simulation time: 5 hr 35 min 22 sec) 
Heartbeat CPU 3 instructions: 1030000000 cycles: 955479022 heartbeat IPC: 0.984023 cumulative IPC: 0.974318 (Simulation time: 5 hr 36 min 58 sec) 
Heartbeat CPU 2 instructions: 1240000000 cycles: 960547705 heartbeat IPC: 1.02039 cumulative IPC: 1.01906 (Simulation time: 5 hr 38 min 40 sec) 
Heartbeat CPU 0 instructions: 920000000 cycles: 962821574 heartbeat IPC: 0.822131 cumulative IPC: 0.708541 (Simulation time: 5 hr 39 min 25 sec) 
Heartbeat CPU 3 instructions: 1040000000 cycles: 965662645 heartbeat IPC: 0.981969 cumulative IPC: 0.974411 (Simulation time: 5 hr 40 min 20 sec) 
Heartbeat CPU 1 instructions: 460000000 cycles: 970192213 heartbeat IPC: 0.315939 cumulative IPC: 0.30967 (Simulation time: 5 hr 41 min 49 sec) 
Heartbeat CPU 2 instructions: 1250000002 cycles: 970338696 heartbeat IPC: 1.02135 cumulative IPC: 1.01909 (Simulation time: 5 hr 41 min 51 sec) 
Heartbeat CPU 0 instructions: 930000001 cycles: 974958455 heartbeat IPC: 0.823935 cumulative IPC: 0.710199 (Simulation time: 5 hr 43 min 21 sec) 
Heartbeat CPU 3 instructions: 1050000000 cycles: 975854116 heartbeat IPC: 0.981213 cumulative IPC: 0.974493 (Simulation time: 5 hr 43 min 39 sec) 
Heartbeat CPU 2 instructions: 1260000000 cycles: 980127808 heartbeat IPC: 1.02154 cumulative IPC: 1.01912 (Simulation time: 5 hr 45 min 43 sec) 
Heartbeat CPU 3 instructions: 1060000000 cycles: 986070346 heartbeat IPC: 0.978835 cumulative IPC: 0.974545 (Simulation time: 5 hr 48 min 3 sec) 
Heartbeat CPU 0 instructions: 940000000 cycles: 987125147 heartbeat IPC: 0.821916 cumulative IPC: 0.711786 (Simulation time: 5 hr 48 min 24 sec) 
Heartbeat CPU 2 instructions: 1270000001 cycles: 989934284 heartbeat IPC: 1.01973 cumulative IPC: 1.01912 (Simulation time: 5 hr 49 min 18 sec) 
Heartbeat CPU 3 instructions: 1070000001 cycles: 996281749 heartbeat IPC: 0.979297 cumulative IPC: 0.974601 (Simulation time: 5 hr 51 min 6 sec) 
Heartbeat CPU 2 instructions: 1280000000 cycles: 999809902 heartbeat IPC: 1.01259 cumulative IPC: 1.01905 (Simulation time: 5 hr 51 min 59 sec) 
Heartbeat CPU 1 instructions: 470000003 cycles: 1002779979 heartbeat IPC: 0.306864 cumulative IPC: 0.309565 (Simulation time: 5 hr 52 min 43 sec) 
Heartbeat CPU 3 instructions: 1080000000 cycles: 1006568171 heartbeat IPC: 0.972155 cumulative IPC: 0.974572 (Simulation time: 5 hr 53 min 39 sec) 
Heartbeat CPU 2 instructions: 1290000002 cycles: 1009725546 heartbeat IPC: 1.00851 cumulative IPC: 1.01893 (Simulation time: 5 hr 54 min 32 sec) 
Heartbeat CPU 3 instructions: 1090000002 cycles: 1016884379 heartbeat IPC: 0.969349 cumulative IPC: 0.974511 (Simulation time: 5 hr 56 min 39 sec) 
Heartbeat CPU 2 instructions: 1300000000 cycles: 1019648260 heartbeat IPC: 1.00779 cumulative IPC: 1.01881 (Simulation time: 5 hr 57 min 25 sec) 
Heartbeat CPU 3 instructions: 1100000000 cycles: 1027136834 heartbeat IPC: 0.975376 cumulative IPC: 0.974521 (Simulation time: 5 hr 59 min 48 sec) 
Heartbeat CPU 0 instructions: 950000000 cycles: 1028022629 heartbeat IPC: 0.244514 cumulative IPC: 0.690492 (Simulation time: 6 hr 0 min 5 sec) 
Heartbeat CPU 2 instructions: 1310000001 cycles: 1029508732 heartbeat IPC: 1.01415 cumulative IPC: 1.01875 (Simulation time: 6 hr 0 min 34 sec) 
Heartbeat CPU 1 instructions: 480000000 cycles: 1036218210 heartbeat IPC: 0.299059 cumulative IPC: 0.309177 (Simulation time: 6 hr 2 min 33 sec) 
Heartbeat CPU 3 instructions: 1110000002 cycles: 1037402199 heartbeat IPC: 0.97415 cumulative IPC: 0.974517 (Simulation time: 6 hr 2 min 54 sec) 
Heartbeat CPU 2 instructions: 1320000000 cycles: 1039316817 heartbeat IPC: 1.01957 cumulative IPC: 1.01876 (Simulation time: 6 hr 3 min 28 sec) 
Heartbeat CPU 0 instructions: 960000000 cycles: 1040465788 heartbeat IPC: 0.803654 cumulative IPC: 0.69204 (Simulation time: 6 hr 3 min 46 sec) 
Heartbeat CPU 3 instructions: 1120000000 cycles: 1047922273 heartbeat IPC: 0.950563 cumulative IPC: 0.974242 (Simulation time: 6 hr 5 min 59 sec) 
Heartbeat CPU 2 instructions: 1330000002 cycles: 1049127295 heartbeat IPC: 1.01932 cumulative IPC: 1.01877 (Simulation time: 6 hr 6 min 22 sec) 
Heartbeat CPU 0 instructions: 970000001 cycles: 1051931978 heartbeat IPC: 0.872129 cumulative IPC: 0.694281 (Simulation time: 6 hr 7 min 14 sec) 
Heartbeat CPU 3 instructions: 1130000003 cycles: 1058185531 heartbeat IPC: 0.97435 cumulative IPC: 0.974244 (Simulation time: 6 hr 9 min 12 sec) 
Heartbeat CPU 2 instructions: 1340000000 cycles: 1058918051 heartbeat IPC: 1.02137 cumulative IPC: 1.0188 (Simulation time: 6 hr 9 min 26 sec) 
Heartbeat CPU 0 instructions: 980000000 cycles: 1064327727 heartbeat IPC: 0.806728 cumulative IPC: 0.695774 (Simulation time: 6 hr 11 min 7 sec) 
Heartbeat CPU 3 instructions: 1140000000 cycles: 1068466601 heartbeat IPC: 0.972661 cumulative IPC: 0.974226 (Simulation time: 6 hr 12 min 25 sec) 
Heartbeat CPU 2 instructions: 1350000001 cycles: 1068746003 heartbeat IPC: 1.01751 cumulative IPC: 1.01878 (Simulation time: 6 hr 12 min 29 sec) 
Heartbeat CPU 1 instructions: 490000001 cycles: 1069251205 heartbeat IPC: 0.302728 cumulative IPC: 0.30895 (Simulation time: 6 hr 12 min 38 sec) 
Heartbeat CPU 0 instructions: 990000003 cycles: 1076617034 heartbeat IPC: 0.813716 cumulative IPC: 0.697306 (Simulation time: 6 hr 14 min 47 sec) 
Heartbeat CPU 2 instructions: 1360000000 cycles: 1078544920 heartbeat IPC: 1.02052 cumulative IPC: 1.0188 (Simulation time: 6 hr 15 min 20 sec) 
Heartbeat CPU 3 instructions: 1150000002 cycles: 1078718891 heartbeat IPC: 0.975392 cumulative IPC: 0.974239 (Simulation time: 6 hr 15 min 23 sec) 
Heartbeat CPU 2 instructions: 1370000001 cycles: 1088369740 heartbeat IPC: 1.01783 cumulative IPC: 1.01879 (Simulation time: 6 hr 18 min 10 sec) 
Heartbeat CPU 3 instructions: 1160000000 cycles: 1088989837 heartbeat IPC: 0.97362 cumulative IPC: 0.974232 (Simulation time: 6 hr 18 min 21 sec) 
Heartbeat CPU 0 instructions: 1000000000 cycles: 1089256780 heartbeat IPC: 0.791155 cumulative IPC: 0.698543 (Simulation time: 6 hr 18 min 26 sec) 
Heartbeat CPU 2 instructions: 1380000000 cycles: 1098215528 heartbeat IPC: 1.01566 cumulative IPC: 1.01876 (Simulation time: 6 hr 20 min 56 sec) 
Heartbeat CPU 3 instructions: 1170000001 cycles: 1099278304 heartbeat IPC: 0.971962 cumulative IPC: 0.974208 (Simulation time: 6 hr 21 min 15 sec) 
Heartbeat CPU 1 instructions: 500000000 cycles: 1103073748 heartbeat IPC: 0.295661 cumulative IPC: 0.308488 (Simulation time: 6 hr 22 min 18 sec) 
Heartbeat CPU 0 instructions: 1010000001 cycles: 1103860919 heartbeat IPC: 0.684737 cumulative IPC: 0.698336 (Simulation time: 6 hr 22 min 32 sec) 
Heartbeat CPU 2 instructions: 1390000000 cycles: 1108036124 heartbeat IPC: 1.01827 cumulative IPC: 1.01875 (Simulation time: 6 hr 23 min 42 sec) 
Heartbeat CPU 3 instructions: 1180000000 cycles: 1109523637 heartbeat IPC: 0.976054 cumulative IPC: 0.974227 (Simulation time: 6 hr 24 min 8 sec) 
Finished CPU 2 instructions: 1000000000 cycles: 981594949 cumulative IPC: 1.01875 (Simulation time: 6 hr 24 min 55 sec) 
Heartbeat CPU 0 instructions: 1020000000 cycles: 1114243479 heartbeat IPC: 0.963153 cumulative IPC: 0.701131 (Simulation time: 6 hr 25 min 31 sec) 
Heartbeat CPU 2 instructions: 1400000000 cycles: 1117857543 heartbeat IPC: 1.01818 cumulative IPC: 1.01875 (Simulation time: 6 hr 26 min 35 sec) 
Heartbeat CPU 3 instructions: 1190000002 cycles: 1119765711 heartbeat IPC: 0.976365 cumulative IPC: 0.974249 (Simulation time: 6 hr 27 min 8 sec) 
Heartbeat CPU 0 instructions: 1030000002 cycles: 1124485625 heartbeat IPC: 0.976358 cumulative IPC: 0.703967 (Simulation time: 6 hr 28 min 29 sec) 
Heartbeat CPU 2 instructions: 1410000003 cycles: 1127648960 heartbeat IPC: 1.0213 cumulative IPC: 1.01877 (Simulation time: 6 hr 29 min 25 sec) 
Heartbeat CPU 3 instructions: 1200000000 cycles: 1130018488 heartbeat IPC: 0.975345 cumulative IPC: 0.974261 (Simulation time: 6 hr 30 min 11 sec) 
Heartbeat CPU 0 instructions: 1040000000 cycles: 1134713985 heartbeat IPC: 0.977674 cumulative IPC: 0.706755 (Simulation time: 6 hr 31 min 30 sec) 
Heartbeat CPU 1 instructions: 510000003 cycles: 1135564834 heartbeat IPC: 0.307777 cumulative IPC: 0.308465 (Simulation time: 6 hr 31 min 45 sec) 
Heartbeat CPU 2 instructions: 1420000000 cycles: 1137432178 heartbeat IPC: 1.02216 cumulative IPC: 1.01881 (Simulation time: 6 hr 32 min 16 sec) 
Heartbeat CPU 3 instructions: 1210000002 cycles: 1140269769 heartbeat IPC: 0.975488 cumulative IPC: 0.974273 (Simulation time: 6 hr 33 min 7 sec) 
Heartbeat CPU 0 instructions: 1050000001 cycles: 1144757393 heartbeat IPC: 0.995678 cumulative IPC: 0.709617 (Simulation time: 6 hr 34 min 26 sec) 
Heartbeat CPU 2 instructions: 1430000002 cycles: 1147234065 heartbeat IPC: 1.02021 cumulative IPC: 1.01882 (Simulation time: 6 hr 35 min 8 sec) 
Heartbeat CPU 3 instructions: 1220000000 cycles: 1150500020 heartbeat IPC: 0.977493 cumulative IPC: 0.974306 (Simulation time: 6 hr 36 min 4 sec) 
Heartbeat CPU 0 instructions: 1060000000 cycles: 1156178025 heartbeat IPC: 0.875608 cumulative IPC: 0.711465 (Simulation time: 6 hr 37 min 38 sec) 
Finished CPU 3 instructions: 1000000001 cycles: 1026327045 cumulative IPC: 0.974348 (Simulation time: 6 hr 37 min 51 sec) 
Heartbeat CPU 2 instructions: 1440000000 cycles: 1157054351 heartbeat IPC: 1.0183 cumulative IPC: 1.01882 (Simulation time: 6 hr 37 min 54 sec) 
Heartbeat CPU 3 instructions: 1230000003 cycles: 1160707093 heartbeat IPC: 0.979713 cumulative IPC: 0.974359 (Simulation time: 6 hr 38 min 58 sec) 
Heartbeat CPU 0 instructions: 1070000003 cycles: 1165607355 heartbeat IPC: 1.06052 cumulative IPC: 0.714645 (Simulation time: 6 hr 40 min 24 sec) 
Heartbeat CPU 2 instructions: 1450000001 cycles: 1166869906 heartbeat IPC: 1.01879 cumulative IPC: 1.01882 (Simulation time: 6 hr 40 min 45 sec) 
Heartbeat CPU 1 instructions: 520000000 cycles: 1168005891 heartbeat IPC: 0.308251 cumulative IPC: 0.308458 (Simulation time: 6 hr 41 min 5 sec) 
Heartbeat CPU 3 instructions: 1240000000 cycles: 1170982047 heartbeat IPC: 0.97324 cumulative IPC: 0.974348 (Simulation time: 6 hr 41 min 54 sec) 
Heartbeat CPU 2 instructions: 1460000000 cycles: 1176692837 heartbeat IPC: 1.01803 cumulative IPC: 1.01881 (Simulation time: 6 hr 43 min 31 sec) 
Heartbeat CPU 0 instructions: 1080000000 cycles: 1176703579 heartbeat IPC: 0.901207 cumulative IPC: 0.716624 (Simulation time: 6 hr 43 min 31 sec) 
Heartbeat CPU 3 instructions: 1250000000 cycles: 1181215216 heartbeat IPC: 0.977214 cumulative IPC: 0.974376 (Simulation time: 6 hr 44 min 58 sec) 
Heartbeat CPU 2 instructions: 1470000002 cycles: 1186492498 heartbeat IPC: 1.02044 cumulative IPC: 1.01882 (Simulation time: 6 hr 46 min 37 sec) 
Heartbeat CPU 0 instructions: 1090000000 cycles: 1186503557 heartbeat IPC: 1.02041 cumulative IPC: 0.719443 (Simulation time: 6 hr 46 min 38 sec) 
Heartbeat CPU 3 instructions: 1260000000 cycles: 1191445553 heartbeat IPC: 0.977485 cumulative IPC: 0.974406 (Simulation time: 6 hr 48 min 8 sec) 
Heartbeat CPU 2 instructions: 1480000000 cycles: 1196316429 heartbeat IPC: 1.01792 cumulative IPC: 1.01881 (Simulation time: 6 hr 49 min 32 sec) 
Heartbeat CPU 0 instructions: 1100000000 cycles: 1197399889 heartbeat IPC: 0.91774 cumulative IPC: 0.721469 (Simulation time: 6 hr 49 min 52 sec) 
Heartbeat CPU 1 instructions: 530000002 cycles: 1201108054 heartbeat IPC: 0.302095 cumulative IPC: 0.308261 (Simulation time: 6 hr 50 min 55 sec) 
Heartbeat CPU 3 instructions: 1270000000 cycles: 1201875143 heartbeat IPC: 0.95881 cumulative IPC: 0.974254 (Simulation time: 6 hr 51 min 10 sec) 
Heartbeat CPU 2 instructions: 1490000003 cycles: 1206129751 heartbeat IPC: 1.01902 cumulative IPC: 1.01882 (Simulation time: 6 hr 52 min 28 sec) 
Heartbeat CPU 0 instructions: 1110000003 cycles: 1208086975 heartbeat IPC: 0.935709 cumulative IPC: 0.723594 (Simulation time: 6 hr 53 min 4 sec) 
Heartbeat CPU 3 instructions: 1280000000 cycles: 1212158823 heartbeat IPC: 0.972415 cumulative IPC: 0.974237 (Simulation time: 6 hr 54 min 20 sec) 
Heartbeat CPU 2 instructions: 1500000000 cycles: 1215918929 heartbeat IPC: 1.02154 cumulative IPC: 1.01884 (Simulation time: 6 hr 55 min 32 sec) 
Heartbeat CPU 0 instructions: 1120000000 cycles: 1218034668 heartbeat IPC: 1.00526 cumulative IPC: 0.72617 (Simulation time: 6 hr 56 min 12 sec) 
Heartbeat CPU 3 instructions: 1290000002 cycles: 1222348576 heartbeat IPC: 0.981378 cumulative IPC: 0.974303 (Simulation time: 6 hr 57 min 35 sec) 
Heartbeat CPU 2 instructions: 1510000000 cycles: 1225732831 heartbeat IPC: 1.01896 cumulative IPC: 1.01884 (Simulation time: 6 hr 58 min 37 sec) 
Heartbeat CPU 0 instructions: 1130000002 cycles: 1228816210 heartbeat IPC: 0.927511 cumulative IPC: 0.728147 (Simulation time: 6 hr 59 min 35 sec) 
Heartbeat CPU 3 instructions: 1300000000 cycles: 1232573748 heartbeat IPC: 0.977978 cumulative IPC: 0.974337 (Simulation time: 7 hr 0 min 45 sec) 
Heartbeat CPU 1 instructions: 540000000 cycles: 1233560870 heartbeat IPC: 0.30814 cumulative IPC: 0.308258 (Simulation time: 7 hr 1 min 5 sec) 
Heartbeat CPU 2 instructions: 1520000000 cycles: 1235553285 heartbeat IPC: 1.01828 cumulative IPC: 1.01884 (Simulation time: 7 hr 1 min 43 sec) 
Heartbeat CPU 0 instructions: 1140000000 cycles: 1239009590 heartbeat IPC: 0.981029 cumulative IPC: 0.730472 (Simulation time: 7 hr 2 min 46 sec) 
Heartbeat CPU 3 instructions: 1310000000 cycles: 1242828492 heartbeat IPC: 0.975158 cumulative IPC: 0.974345 (Simulation time: 7 hr 3 min 57 sec) 
Heartbeat CPU 2 instructions: 1530000001 cycles: 1245367653 heartbeat IPC: 1.01891 cumulative IPC: 1.01884 (Simulation time: 7 hr 4 min 44 sec) 
Heartbeat CPU 0 instructions: 1150000003 cycles: 1249713003 heartbeat IPC: 0.934282 cumulative IPC: 0.732422 (Simulation time: 7 hr 6 min 4 sec) 
Heartbeat CPU 3 instructions: 1320000000 cycles: 1253077579 heartbeat IPC: 0.975697 cumulative IPC: 0.974357 (Simulation time: 7 hr 7 min 10 sec) 
Heartbeat CPU 2 instructions: 1540000000 cycles: 1255165552 heartbeat IPC: 1.02063 cumulative IPC: 1.01885 (Simulation time: 7 hr 7 min 56 sec) 
Heartbeat CPU 0 instructions: 1160000000 cycles: 1260220415 heartbeat IPC: 0.951709 cumulative IPC: 0.734461 (Simulation time: 7 hr 9 min 30 sec) 
Heartbeat CPU 3 instructions: 1330000000 cycles: 1263313356 heartbeat IPC: 0.976965 cumulative IPC: 0.974381 (Simulation time: 7 hr 10 min 25 sec) 
Heartbeat CPU 2 instructions: 1550000000 cycles: 1264981041 heartbeat IPC: 1.0188 cumulative IPC: 1.01885 (Simulation time: 7 hr 10 min 56 sec) 
Heartbeat CPU 1 instructions: 550000002 cycles: 1266780425 heartbeat IPC: 0.301028 cumulative IPC: 0.308046 (Simulation time: 7 hr 11 min 28 sec) 
Heartbeat CPU 0 instructions: 1170000003 cycles: 1271321018 heartbeat IPC: 0.900852 cumulative IPC: 0.736081 (Simulation time: 7 hr 12 min 52 sec) 
Heartbeat CPU 3 instructions: 1340000000 cycles: 1273514636 heartbeat IPC: 0.980269 cumulative IPC: 0.974433 (Simulation time: 7 hr 13 min 33 sec) 
Heartbeat CPU 2 instructions: 1560000000 cycles: 1274752860 heartbeat IPC: 1.02335 cumulative IPC: 1.01889 (Simulation time: 7 hr 13 min 57 sec) 
Heartbeat CPU 0 instructions: 1180000000 cycles: 1281619306 heartbeat IPC: 0.971035 cumulative IPC: 0.738183 (Simulation time: 7 hr 16 min 8 sec) 
Heartbeat CPU 3 instructions: 1350000001 cycles: 1283751957 heartbeat IPC: 0.976818 cumulative IPC: 0.974455 (Simulation time: 7 hr 16 min 48 sec) 
Heartbeat CPU 2 instructions: 1570000001 cycles: 1284583175 heartbeat IPC: 1.01726 cumulative IPC: 1.01888 (Simulation time: 7 hr 17 min 2 sec) 
Heartbeat CPU 0 instructions: 1190000003 cycles: 1292568142 heartbeat IPC: 0.913339 cumulative IPC: 0.739833 (Simulation time: 7 hr 19 min 30 sec) 
Heartbeat CPU 3 instructions: 1360000000 cycles: 1293971949 heartbeat IPC: 0.978474 cumulative IPC: 0.97449 (Simulation time: 7 hr 19 min 56 sec) 
Heartbeat CPU 2 instructions: 1580000000 cycles: 1294395058 heartbeat IPC: 1.01917 cumulative IPC: 1.01888 (Simulation time: 7 hr 20 min 4 sec) 
Heartbeat CPU 1 instructions: 560000000 cycles: 1300097394 heartbeat IPC: 0.300147 cumulative IPC: 0.307821 (Simulation time: 7 hr 21 min 57 sec) 
Heartbeat CPU 0 instructions: 1200000000 cycles: 1302825780 heartbeat IPC: 0.974883 cumulative IPC: 0.74189 (Simulation time: 7 hr 22 min 53 sec) 
Heartbeat CPU 3 instructions: 1370000002 cycles: 1304201210 heartbeat IPC: 0.977588 cumulative IPC: 0.974517 (Simulation time: 7 hr 23 min 18 sec) 
Heartbeat CPU 2 instructions: 1590000001 cycles: 1304213348 heartbeat IPC: 1.01851 cumulative IPC: 1.01888 (Simulation time: 7 hr 23 min 18 sec) 
Heartbeat CPU 0 instructions: 1210000001 cycles: 1313864230 heartbeat IPC: 0.905924 cumulative IPC: 0.74342 (Simulation time: 7 hr 26 min 26 sec) 
Heartbeat CPU 2 instructions: 1600000000 cycles: 1314007338 heartbeat IPC: 1.02103 cumulative IPC: 1.01889 (Simulation time: 7 hr 26 min 29 sec) 
Heartbeat CPU 3 instructions: 1380000000 cycles: 1314456289 heartbeat IPC: 0.975126 cumulative IPC: 0.974522 (Simulation time: 7 hr 26 min 39 sec) 
Heartbeat CPU 2 instructions: 1610000000 cycles: 1323807198 heartbeat IPC: 1.02042 cumulative IPC: 1.01891 (Simulation time: 7 hr 29 min 43 sec) 
Heartbeat CPU 3 instructions: 1390000001 cycles: 1324722803 heartbeat IPC: 0.974041 cumulative IPC: 0.974518 (Simulation time: 7 hr 30 min 0 sec) 
Heartbeat CPU 0 instructions: 1220000000 cycles: 1324826108 heartbeat IPC: 0.912252 cumulative IPC: 0.74497 (Simulation time: 7 hr 30 min 2 sec) 
Heartbeat CPU 2 instructions: 1620000000 cycles: 1333727876 heartbeat IPC: 1.008 cumulative IPC: 1.01882 (Simulation time: 7 hr 32 min 43 sec) 
Heartbeat CPU 3 instructions: 1400000000 cycles: 1335000430 heartbeat IPC: 0.972987 cumulative IPC: 0.974505 (Simulation time: 7 hr 33 min 4 sec) 
Heartbeat CPU 0 instructions: 1230000000 cycles: 1335498058 heartbeat IPC: 0.937036 cumulative IPC: 0.746671 (Simulation time: 7 hr 33 min 13 sec) 
Heartbeat CPU 1 instructions: 570000001 cycles: 1340920467 heartbeat IPC: 0.24496 cumulative IPC: 0.305701 (Simulation time: 7 hr 34 min 49 sec) 
Heartbeat CPU 2 instructions: 1630000003 cycles: 1343665709 heartbeat IPC: 1.00626 cumulative IPC: 1.01871 (Simulation time: 7 hr 35 min 39 sec) 
Heartbeat CPU 3 instructions: 1410000002 cycles: 1345386872 heartbeat IPC: 0.962794 cumulative IPC: 0.974405 (Simulation time: 7 hr 36 min 9 sec) 
Heartbeat CPU 0 instructions: 1240000000 cycles: 1347068453 heartbeat IPC: 0.864275 cumulative IPC: 0.74779 (Simulation time: 7 hr 36 min 40 sec) 
Heartbeat CPU 2 instructions: 1640000000 cycles: 1353494102 heartbeat IPC: 1.01746 cumulative IPC: 1.0187 (Simulation time: 7 hr 38 min 36 sec) 
Heartbeat CPU 3 instructions: 1420000000 cycles: 1355887963 heartbeat IPC: 0.952282 cumulative IPC: 0.974215 (Simulation time: 7 hr 39 min 18 sec) 
Heartbeat CPU 0 instructions: 1250000003 cycles: 1357734402 heartbeat IPC: 0.937563 cumulative IPC: 0.749439 (Simulation time: 7 hr 39 min 51 sec) 
Heartbeat CPU 2 instructions: 1650000001 cycles: 1363337772 heartbeat IPC: 1.01588 cumulative IPC: 1.01868 (Simulation time: 7 hr 41 min 32 sec) 
Heartbeat CPU 3 instructions: 1430000001 cycles: 1366146499 heartbeat IPC: 0.974798 cumulative IPC: 0.97422 (Simulation time: 7 hr 42 min 21 sec) 
Heartbeat CPU 0 instructions: 1260000000 cycles: 1368886522 heartbeat IPC: 0.89669 cumulative IPC: 0.750765 (Simulation time: 7 hr 43 min 12 sec) 
Heartbeat CPU 2 instructions: 1660000000 cycles: 1373141913 heartbeat IPC: 1.01998 cumulative IPC: 1.01869 (Simulation time: 7 hr 44 min 30 sec) 
Heartbeat CPU 1 instructions: 580000000 cycles: 1375010831 heartbeat IPC: 0.293338 cumulative IPC: 0.305362 (Simulation time: 7 hr 45 min 4 sec) 
Heartbeat CPU 3 instructions: 1440000000 cycles: 1376356051 heartbeat IPC: 0.979475 cumulative IPC: 0.974263 (Simulation time: 7 hr 45 min 28 sec) 
Heartbeat CPU 0 instructions: 1270000000 cycles: 1379667484 heartbeat IPC: 0.927561 cumulative IPC: 0.752291 (Simulation time: 7 hr 46 min 29 sec) 
Heartbeat CPU 2 instructions: 1670000001 cycles: 1382945627 heartbeat IPC: 1.02002 cumulative IPC: 1.0187 (Simulation time: 7 hr 47 min 28 sec) 
Heartbeat CPU 3 instructions: 1450000003 cycles: 1386538431 heartbeat IPC: 0.982089 cumulative IPC: 0.974327 (Simulation time: 7 hr 48 min 32 sec) 
Heartbeat CPU 0 instructions: 1280000000 cycles: 1391349728 heartbeat IPC: 0.856 cumulative IPC: 0.753252 (Simulation time: 7 hr 50 min 0 sec) 
Heartbeat CPU 2 instructions: 1680000000 cycles: 1392732129 heartbeat IPC: 1.02182 cumulative IPC: 1.01873 (Simulation time: 7 hr 50 min 25 sec) 
Heartbeat CPU 3 instructions: 1460000000 cycles: 1396743013 heartbeat IPC: 0.979952 cumulative IPC: 0.974372 (Simulation time: 7 hr 51 min 39 sec) 
Heartbeat CPU 0 instructions: 1290000002 cycles: 1401952145 heartbeat IPC: 0.943181 cumulative IPC: 0.754836 (Simulation time: 7 hr 53 min 13 sec) 
Heartbeat CPU 2 instructions: 1690000002 cycles: 1402521311 heartbeat IPC: 1.02154 cumulative IPC: 1.01875 (Simulation time: 7 hr 53 min 24 sec) 
Heartbeat CPU 3 instructions: 1470000001 cycles: 1407006641 heartbeat IPC: 0.974314 cumulative IPC: 0.974371 (Simulation time: 7 hr 54 min 42 sec) 
Heartbeat CPU 1 instructions: 590000001 cycles: 1409505357 heartbeat IPC: 0.289901 cumulative IPC: 0.304945 (Simulation time: 7 hr 55 min 24 sec) 
Heartbeat CPU 2 instructions: 1700000000 cycles: 1412320615 heartbeat IPC: 1.02048 cumulative IPC: 1.01876 (Simulation time: 7 hr 56 min 15 sec) 
Heartbeat CPU 0 instructions: 1300000000 cycles: 1413141480 heartbeat IPC: 0.893708 cumulative IPC: 0.756048 (Simulation time: 7 hr 56 min 30 sec) 
Heartbeat CPU 3 instructions: 1480000000 cycles: 1417214168 heartbeat IPC: 0.979669 cumulative IPC: 0.974414 (Simulation time: 7 hr 57 min 45 sec) 
Heartbeat CPU 2 instructions: 1710000001 cycles: 1422136457 heartbeat IPC: 1.01876 cumulative IPC: 1.01876 (Simulation time: 7 hr 59 min 14 sec) 
Heartbeat CPU 0 instructions: 1310000001 cycles: 1423961598 heartbeat IPC: 0.924204 cumulative IPC: 0.757454 (Simulation time: 7 hr 59 min 47 sec) 
Heartbeat CPU 3 instructions: 1490000000 cycles: 1427441504 heartbeat IPC: 0.977772 cumulative IPC: 0.97444 (Simulation time: 8 hr 0 min 49 sec) 
Heartbeat CPU 2 instructions: 1720000000 cycles: 1431941135 heartbeat IPC: 1.01992 cumulative IPC: 1.01877 (Simulation time: 8 hr 2 min 10 sec) 
Heartbeat CPU 0 instructions: 1320000000 cycles: 1435134649 heartbeat IPC: 0.895011 cumulative IPC: 0.758632 (Simulation time: 8 hr 3 min 9 sec) 
Heartbeat CPU 3 instructions: 1500000000 cycles: 1437671497 heartbeat IPC: 0.977518 cumulative IPC: 0.974464 (Simulation time: 8 hr 3 min 56 sec) 
Heartbeat CPU 2 instructions: 1730000003 cycles: 1441767264 heartbeat IPC: 1.0177 cumulative IPC: 1.01876 (Simulation time: 8 hr 5 min 10 sec) 
Heartbeat CPU 1 instructions: 600000000 cycles: 1443735162 heartbeat IPC: 0.292143 cumulative IPC: 0.304612 (Simulation time: 8 hr 5 min 49 sec) 
Heartbeat CPU 0 instructions: 1330000003 cycles: 1446635546 heartbeat IPC: 0.869498 cumulative IPC: 0.759601 (Simulation time: 8 hr 6 min 47 sec) 
Finished CPU 0 instructions: 1000000000 cycles: 1316403124 cumulative IPC: 0.759646 (Simulation time: 8 hr 6 min 53 sec) 
Heartbeat CPU 3 instructions: 1510000001 cycles: 1447897370 heartbeat IPC: 0.977912 cumulative IPC: 0.974491 (Simulation time: 8 hr 7 min 11 sec) 
Heartbeat CPU 2 instructions: 1740000000 cycles: 1451568576 heartbeat IPC: 1.02027 cumulative IPC: 1.01877 (Simulation time: 8 hr 8 min 22 sec) 
Heartbeat CPU 0 instructions: 1340000000 cycles: 1457472234 heartbeat IPC: 0.922791 cumulative IPC: 0.760934 (Simulation time: 8 hr 10 min 10 sec) 
Heartbeat CPU 3 instructions: 1520000000 cycles: 1458116282 heartbeat IPC: 0.978578 cumulative IPC: 0.974522 (Simulation time: 8 hr 10 min 21 sec) 
Heartbeat CPU 2 instructions: 1750000000 cycles: 1461366061 heartbeat IPC: 1.02067 cumulative IPC: 1.01879 (Simulation time: 8 hr 11 min 20 sec) 
Heartbeat CPU 3 instructions: 1530000002 cycles: 1468370339 heartbeat IPC: 0.975224 cumulative IPC: 0.974528 (Simulation time: 8 hr 13 min 26 sec) 
Heartbeat CPU 0 instructions: 1350000003 cycles: 1468735727 heartbeat IPC: 0.887824 cumulative IPC: 0.762002 (Simulation time: 8 hr 13 min 33 sec) 
Heartbeat CPU 2 instructions: 1760000000 cycles: 1471161852 heartbeat IPC: 1.02085 cumulative IPC: 1.0188 (Simulation time: 8 hr 14 min 17 sec) 
Heartbeat CPU 1 instructions: 610000000 cycles: 1477789769 heartbeat IPC: 0.293646 cumulative IPC: 0.304334 (Simulation time: 8 hr 16 min 17 sec) 
Heartbeat CPU 3 instructions: 1540000000 cycles: 1478562053 heartbeat IPC: 0.981189 cumulative IPC: 0.974578 (Simulation time: 8 hr 16 min 32 sec) 
Heartbeat CPU 0 instructions: 1360000000 cycles: 1479615252 heartbeat IPC: 0.919158 cumulative IPC: 0.76327 (Simulation time: 8 hr 16 min 51 sec) 
Heartbeat CPU 2 instructions: 1770000001 cycles: 1480956535 heartbeat IPC: 1.02096 cumulative IPC: 1.01882 (Simulation time: 8 hr 17 min 16 sec) 
Heartbeat CPU 3 instructions: 1550000000 cycles: 1488840931 heartbeat IPC: 0.972869 cumulative IPC: 0.974565 (Simulation time: 8 hr 19 min 37 sec) 
Heartbeat CPU 2 instructions: 1780000000 cycles: 1490765253 heartbeat IPC: 1.0195 cumulative IPC: 1.01882 (Simulation time: 8 hr 20 min 12 sec) 
Heartbeat CPU 0 instructions: 1370000003 cycles: 1491487183 heartbeat IPC: 0.842323 cumulative IPC: 0.763959 (Simulation time: 8 hr 20 min 25 sec) 
Heartbeat CPU 3 instructions: 1560000000 cycles: 1499018168 heartbeat IPC: 0.982585 cumulative IPC: 0.974625 (Simulation time: 8 hr 22 min 39 sec) 
Heartbeat CPU 2 instructions: 1790000000 cycles: 1500560391 heartbeat IPC: 1.02091 cumulative IPC: 1.01884 (Simulation time: 8 hr 23 min 8 sec) 
Heartbeat CPU 0 instructions: 1380000000 cycles: 1502024719 heartbeat IPC: 0.948988 cumulative IPC: 0.765381 (Simulation time: 8 hr 23 min 34 sec) 
Heartbeat CPU 3 instructions: 1570000000 cycles: 1509254723 heartbeat IPC: 0.976891 cumulative IPC: 0.974642 (Simulation time: 8 hr 25 min 45 sec) 
Heartbeat CPU 2 instructions: 1800000000 cycles: 1510348457 heartbeat IPC: 1.02165 cumulative IPC: 1.01886 (Simulation time: 8 hr 26 min 5 sec) 
Heartbeat CPU 1 instructions: 620000000 cycles: 1511438056 heartbeat IPC: 0.297192 cumulative IPC: 0.30416 (Simulation time: 8 hr 26 min 24 sec) 
Heartbeat CPU 0 instructions: 1390000002 cycles: 1513702901 heartbeat IPC: 0.856298 cumulative IPC: 0.766149 (Simulation time: 8 hr 27 min 4 sec) 
Heartbeat CPU 3 instructions: 1580000000 cycles: 1519709985 heartbeat IPC: 0.956456 cumulative IPC: 0.974505 (Simulation time: 8 hr 28 min 54 sec) 
Heartbeat CPU 2 instructions: 1810000001 cycles: 1520139306 heartbeat IPC: 1.02136 cumulative IPC: 1.01888 (Simulation time: 8 hr 29 min 2 sec) 
Heartbeat CPU 0 instructions: 1400000000 cycles: 1524689840 heartbeat IPC: 0.910171 cumulative IPC: 0.767284 (Simulation time: 8 hr 30 min 24 sec) 
[...]
Heartbeat CPU 0 instructions: 2810000000 cycles: 3413078538 heartbeat IPC: 0.744922 cumulative IPC: 0.755424 (Simulation time: 16 hr 18 min 44 sec) 
Heartbeat CPU 2 instructions: 3730000003 cycles: 3417997198 heartbeat IPC: 1.01109 cumulative IPC: 1.01471 (Simulation time: 16 hr 19 min 50 sec) 
Heartbeat CPU 3 instructions: 3430000001 cycles: 3419330571 heartbeat IPC: 0.977657 cumulative IPC: 0.974143 (Simulation time: 16 hr 20 min 7 sec) 
Heartbeat CPU 0 instructions: 2820000000 cycles: 3426156481 heartbeat IPC: 0.764646 cumulative IPC: 0.75546 (Simulation time: 16 hr 21 min 37 sec) 
Heartbeat CPU 2 instructions: 3740000000 cycles: 3427867820 heartbeat IPC: 1.01311 cumulative IPC: 1.01471 (Simulation time: 16 hr 21 min 59 sec) 
Heartbeat CPU 3 instructions: 3440000000 cycles: 3429588141 heartbeat IPC: 0.97489 cumulative IPC: 0.974145 (Simulation time: 16 hr 22 min 19 sec) 
Heartbeat CPU 2 instructions: 3750000000 cycles: 3437809586 heartbeat IPC: 1.00586 cumulative IPC: 1.01468 (Simulation time: 16 hr 23 min 48 sec) 
Heartbeat CPU 3 instructions: 3450000003 cycles: 3439883184 heartbeat IPC: 0.971342 cumulative IPC: 0.974137 (Simulation time: 16 hr 24 min 8 sec) 
Heartbeat CPU 1 instructions: 1170000000 cycles: 3445251435 heartbeat IPC: 0.276146 cumulative IPC: 0.292639 (Simulation time: 16 hr 25 min 2 sec) 
Heartbeat CPU 2 instructions: 3760000000 cycles: 3447793362 heartbeat IPC: 1.00163 cumulative IPC: 1.01464 (Simulation time: 16 hr 25 min 28 sec) 
Heartbeat CPU 3 instructions: 3460000000 cycles: 3450202093 heartbeat IPC: 0.969094 cumulative IPC: 0.974121 (Simulation time: 16 hr 25 min 52 sec) 
Heartbeat CPU 2 instructions: 3770000001 cycles: 3457744192 heartbeat IPC: 1.00494 cumulative IPC: 1.01461 (Simulation time: 16 hr 27 min 6 sec) 
Heartbeat CPU 3 instructions: 3470000001 cycles: 3460508725 heartbeat IPC: 0.970249 cumulative IPC: 0.974109 (Simulation time: 16 hr 27 min 32 sec) 
Heartbeat CPU 0 instructions: 2830000002 cycles: 3465989870 heartbeat IPC: 0.251046 cumulative IPC: 0.749436 (Simulation time: 16 hr 28 min 39 sec) 
Heartbeat CPU 2 instructions: 3780000000 cycles: 3467650620 heartbeat IPC: 1.00945 cumulative IPC: 1.0146 (Simulation time: 16 hr 29 min 0 sec) 
Heartbeat CPU 3 instructions: 3480000000 cycles: 3470742236 heartbeat IPC: 0.977182 cumulative IPC: 0.974118 (Simulation time: 16 hr 29 min 37 sec) 
Heartbeat CPU 2 instructions: 3790000000 cycles: 3477537247 heartbeat IPC: 1.01147 cumulative IPC: 1.01459 (Simulation time: 16 hr 31 min 0 sec) 
Heartbeat CPU 0 instructions: 2840000000 cycles: 3478154390 heartbeat IPC: 0.822063 cumulative IPC: 0.7497 (Simulation time: 16 hr 31 min 8 sec) 
Heartbeat CPU 1 instructions: 1180000000 cycles: 3479908432 heartbeat IPC: 0.288542 cumulative IPC: 0.292597 (Simulation time: 16 hr 31 min 29 sec) 
Heartbeat CPU 3 instructions: 3490000000 cycles: 3480939604 heartbeat IPC: 0.980645 cumulative IPC: 0.974138 (Simulation time: 16 hr 31 min 42 sec) 
Heartbeat CPU 2 instructions: 3800000000 cycles: 3487423350 heartbeat IPC: 1.01152 cumulative IPC: 1.01458 (Simulation time: 16 hr 33 min 1 sec) 
Heartbeat CPU 0 instructions: 2850000001 cycles: 3490344745 heartbeat IPC: 0.820321 cumulative IPC: 0.749956 (Simulation time: 16 hr 33 min 37 sec) 
Heartbeat CPU 3 instructions: 3500000000 cycles: 3491144264 heartbeat IPC: 0.979944 cumulative IPC: 0.974156 (Simulation time: 16 hr 33 min 47 sec) 
Heartbeat CPU 2 instructions: 3810000001 cycles: 3497279719 heartbeat IPC: 1.01457 cumulative IPC: 1.01458 (Simulation time: 16 hr 35 min 1 sec) 
Heartbeat CPU 3 instructions: 3510000001 cycles: 3501318846 heartbeat IPC: 0.982841 cumulative IPC: 0.974182 (Simulation time: 16 hr 35 min 51 sec) 
Heartbeat CPU 0 instructions: 2860000000 cycles: 3502566236 heartbeat IPC: 0.818231 cumulative IPC: 0.750204 (Simulation time: 16 hr 36 min 6 sec) 
Heartbeat CPU 2 instructions: 3820000000 cycles: 3507150021 heartbeat IPC: 1.01314 cumulative IPC: 1.01458 (Simulation time: 16 hr 37 min 2 sec) 
Heartbeat CPU 3 instructions: 3520000000 cycles: 3511507139 heartbeat IPC: 0.981519 cumulative IPC: 0.974204 (Simulation time: 16 hr 37 min 56 sec) 
Heartbeat CPU 1 instructions: 1190000001 cycles: 3514141551 heartbeat IPC: 0.292115 cumulative IPC: 0.292592 (Simulation time: 16 hr 38 min 28 sec) 
Heartbeat CPU 0 instructions: 2870000002 cycles: 3514762582 heartbeat IPC: 0.819918 cumulative IPC: 0.750455 (Simulation time: 16 hr 38 min 35 sec) 
Heartbeat CPU 2 instructions: 3830000000 cycles: 3517009509 heartbeat IPC: 1.01425 cumulative IPC: 1.01458 (Simulation time: 16 hr 39 min 3 sec) 
Heartbeat CPU 3 instructions: 3530000002 cycles: 3521712284 heartbeat IPC: 0.979898 cumulative IPC: 0.974221 (Simulation time: 16 hr 40 min 1 sec) 
Heartbeat CPU 2 instructions: 3840000000 cycles: 3526875842 heartbeat IPC: 1.01355 cumulative IPC: 1.01457 (Simulation time: 16 hr 41 min 4 sec) 
Heartbeat CPU 0 instructions: 2880000000 cycles: 3526925632 heartbeat IPC: 0.822162 cumulative IPC: 0.750712 (Simulation time: 16 hr 41 min 5 sec) 
Heartbeat CPU 3 instructions: 3540000000 cycles: 3531900698 heartbeat IPC: 0.981507 cumulative IPC: 0.974243 (Simulation time: 16 hr 42 min 6 sec) 
Heartbeat CPU 2 instructions: 3850000001 cycles: 3536724294 heartbeat IPC: 1.01539 cumulative IPC: 1.01457 (Simulation time: 16 hr 43 min 5 sec) 
Heartbeat CPU 0 instructions: 2890000002 cycles: 3539110575 heartbeat IPC: 0.820685 cumulative IPC: 0.750962 (Simulation time: 16 hr 43 min 34 sec) 
Heartbeat CPU 3 instructions: 3550000000 cycles: 3542121910 heartbeat IPC: 0.978358 cumulative IPC: 0.974256 (Simulation time: 16 hr 44 min 11 sec) 
Heartbeat CPU 2 instructions: 3860000000 cycles: 3546571810 heartbeat IPC: 1.01548 cumulative IPC: 1.01458 (Simulation time: 16 hr 45 min 6 sec) 
Heartbeat CPU 1 instructions: 1200000000 cycles: 3548020458 heartbeat IPC: 0.295169 cumulative IPC: 0.292617 (Simulation time: 16 hr 45 min 24 sec) 
Finished CPU 1 instructions: 1000000000 cycles: 3417432955 cumulative IPC: 0.292617 (Simulation time: 16 hr 45 min 24 sec) 

CPU 0 Branch Prediction Accuracy: 97.0071% MPKI: 2.09474

CPU 1 Branch Prediction Accuracy: 90.4608% MPKI: 18.9548

CPU 2 Branch Prediction Accuracy: 98.9362% MPKI: 0.198108

CPU 3 Branch Prediction Accuracy: 99.9818% MPKI: 0.00121103

ChampSim completed all CPUs

Total Simulation Statistics (not including warmup)

CPU 0 cumulative IPC: 0.751143 instructions: 2566982273 cycles: 3417432955
L1D TOTAL     ACCESS:  482792571  HIT:  420657034  MISS:   62135537
L1D LOAD      ACCESS:  305004351  HIT:  266141891  MISS:   38862460
L1D RFO       ACCESS:  177788220  HIT:  154515143  MISS:   23273077
L1D PREFETCH  ACCESS:          0  HIT:          0  MISS:          0
L1D WRITEBACK ACCESS:          0  HIT:          0  MISS:          0
L1I TOTAL     ACCESS:  678646907  HIT:  678573628  MISS:      73279
L1I LOAD      ACCESS:  678646907  HIT:  678573628  MISS:      73279
L1I RFO       ACCESS:          0  HIT:          0  MISS:          0
L1I PREFETCH  ACCESS:          0  HIT:          0  MISS:          0
L1I WRITEBACK ACCESS:          0  HIT:          0  MISS:          0
L2C TOTAL     ACCESS:   89542546  HIT:   46385098  MISS:   43157448
L2C LOAD      ACCESS:   38934978  HIT:   11862024  MISS:   27072954
L2C RFO       ACCESS:   23263742  HIT:    7216483  MISS:   16047259
L2C PREFETCH  ACCESS:          0  HIT:          0  MISS:          0
L2C WRITEBACK ACCESS:   27343826  HIT:   27306591  MISS:      37235
LLC TOTAL     ACCESS:   62307100  HIT:   50735556  MISS:   11571544
LLC LOAD      ACCESS:   27071680  HIT:   20841178  MISS:    6230502
LLC RFO       ACCESS:   16047172  HIT:   10706289  MISS:    5340883
LLC PREFETCH  ACCESS:          0  HIT:          0  MISS:          0
LLC WRITEBACK ACCESS:   19188248  HIT:   19188089  MISS:        159

CPU 1 cumulative IPC: 0.292617 instructions: 1000000000 cycles: 3417432955
L1D TOTAL     ACCESS:  384406872  HIT:  340098626  MISS:   44308246
L1D LOAD      ACCESS:  275554006  HIT:  235129252  MISS:   40424754
L1D RFO       ACCESS:  108852866  HIT:  104969374  MISS:    3883492
L1D PREFETCH  ACCESS:          0  HIT:          0  MISS:          0
L1D WRITEBACK ACCESS:          0  HIT:          0  MISS:          0
L1I TOTAL     ACCESS:  242231847  HIT:  242231847  MISS:          0
L1I LOAD      ACCESS:  242231847  HIT:  242231847  MISS:          0
L1I RFO       ACCESS:          0  HIT:          0  MISS:          0
L1I PREFETCH  ACCESS:          0  HIT:          0  MISS:          0
L1I WRITEBACK ACCESS:          0  HIT:          0  MISS:          0
L2C TOTAL     ACCESS:   50279506  HIT:   18048588  MISS:   32230918
L2C LOAD      ACCESS:   40424668  HIT:   11065386  MISS:   29359282
L2C RFO       ACCESS:    3883460  HIT:    1019967  MISS:    2863493
L2C PREFETCH  ACCESS:          0  HIT:          0  MISS:          0
L2C WRITEBACK ACCESS:    5971378  HIT:    5963235  MISS:       8143
LLC TOTAL     ACCESS:   36518745  HIT:   24566902  MISS:   11951843
LLC LOAD      ACCESS:   29359255  HIT:   17417581  MISS:   11941674
LLC RFO       ACCESS:    2863468  HIT:    2853764  MISS:       9704
LLC PREFETCH  ACCESS:          0  HIT:          0  MISS:          0
LLC WRITEBACK ACCESS:    4296022  HIT:    4295557  MISS:        465

CPU 2 cumulative IPC: 1.01458 instructions: 3467249210 cycles: 3417432956
L1D TOTAL     ACCESS:  289047028  HIT:  287596295  MISS:    1450733
L1D LOAD      ACCESS:  216510420  HIT:  215059687  MISS:    1450733
L1D RFO       ACCESS:   72536608  HIT:   72536608  MISS:          0
L1D PREFETCH  ACCESS:          0  HIT:          0  MISS:          0
L1D WRITEBACK ACCESS:          0  HIT:          0  MISS:          0
L1I TOTAL     ACCESS:  894852218  HIT:  894852218  MISS:          0
L1I LOAD      ACCESS:  894852218  HIT:  894852218  MISS:          0
L1I RFO       ACCESS:          0  HIT:          0  MISS:          0
L1I PREFETCH  ACCESS:          0  HIT:          0  MISS:          0
L1I WRITEBACK ACCESS:          0  HIT:          0  MISS:          0
L2C TOTAL     ACCESS:    1450733  HIT:          0  MISS:    1450733
L2C LOAD      ACCESS:    1450733  HIT:          0  MISS:    1450733
L2C RFO       ACCESS:          0  HIT:          0  MISS:          0
L2C PREFETCH  ACCESS:          0  HIT:          0  MISS:          0
L2C WRITEBACK ACCESS:          0  HIT:          0  MISS:          0
LLC TOTAL     ACCESS:    1450733  HIT:          0  MISS:    1450733
LLC LOAD      ACCESS:    1450733  HIT:          0  MISS:    1450733
LLC RFO       ACCESS:          0  HIT:          0  MISS:          0
LLC PREFETCH  ACCESS:          0  HIT:          0  MISS:          0
LLC WRITEBACK ACCESS:          0  HIT:          0  MISS:          0

CPU 3 cumulative IPC: 0.974274 instructions: 3329516956 cycles: 3417432956
L1D TOTAL     ACCESS: 1326402985  HIT: 1061623944  MISS:  264779041
L1D LOAD      ACCESS: 1063783203  HIT:  820940935  MISS:  242842268
L1D RFO       ACCESS:  262619782  HIT:  240683009  MISS:   21936773
L1D PREFETCH  ACCESS:          0  HIT:          0  MISS:          0
L1D WRITEBACK ACCESS:          0  HIT:          0  MISS:          0
L1I TOTAL     ACCESS:  778171677  HIT:  682179192  MISS:   95992485
L1I LOAD      ACCESS:  778171677  HIT:  682179192  MISS:   95992485
L1I RFO       ACCESS:          0  HIT:          0  MISS:          0
L1I PREFETCH  ACCESS:          0  HIT:          0  MISS:          0
L1I WRITEBACK ACCESS:          0  HIT:          0  MISS:          0
L2C TOTAL     ACCESS:  385170755  HIT:  354857936  MISS:   30312819
L2C LOAD      ACCESS:  338818966  HIT:  311381625  MISS:   27437341
L2C RFO       ACCESS:   21923063  HIT:   19057911  MISS:    2865152
L2C PREFETCH  ACCESS:          0  HIT:          0  MISS:          0
L2C WRITEBACK ACCESS:   24428726  HIT:   24418400  MISS:      10326
LLC TOTAL     ACCESS:   32989200  HIT:   24191010  MISS:    8798190
LLC LOAD      ACCESS:   27437121  HIT:   20593011  MISS:    6844110
LLC RFO       ACCESS:    2664927  HIT:     715892  MISS:    1949035
LLC PREFETCH  ACCESS:          0  HIT:          0  MISS:          0
LLC WRITEBACK ACCESS:    2887152  HIT:    2882107  MISS:       5045

Region of Interest Statistics

CPU 0 cumulative IPC: 0.759646 instructions: 1000000000 cycles: 1316403124
L1D TOTAL     ACCESS:  187689389  HIT:  163380804  MISS:   24308585
L1D LOAD      ACCESS:  118436239  HIT:  103156557  MISS:   15279682
L1D RFO       ACCESS:   69253150  HIT:   60224247  MISS:    9028903
L1D PREFETCH  ACCESS:          0  HIT:          0  MISS:          0
L1D WRITEBACK ACCESS:          0  HIT:          0  MISS:          0
L1D PREFETCH  REQUESTED:          0  ISSUED:          0  USEFUL:          0  USELESS:          0
L1I TOTAL     ACCESS:  261375963  HIT:  261348971  MISS:      26992
L1I LOAD      ACCESS:  261375963  HIT:  261348971  MISS:      26992
L1I RFO       ACCESS:          0  HIT:          0  MISS:          0
L1I PREFETCH  ACCESS:          0  HIT:          0  MISS:          0
L1I WRITEBACK ACCESS:          0  HIT:          0  MISS:          0
L1I PREFETCH  REQUESTED:          0  ISSUED:          0  USEFUL:          0  USELESS:          0
L2C TOTAL     ACCESS:   35025461  HIT:   18404091  MISS:   16621370
L2C LOAD      ACCESS:   15306363  HIT:    4774671  MISS:   10531692
L2C RFO       ACCESS:    9025249  HIT:    2950301  MISS:    6074948
L2C PREFETCH  ACCESS:          0  HIT:          0  MISS:          0
L2C WRITEBACK ACCESS:   10693849  HIT:   10679119  MISS:      14730
L2C PREFETCH  REQUESTED:          0  ISSUED:          0  USEFUL:          0  USELESS:          0
LLC TOTAL     ACCESS:   23969713  HIT:   19681063  MISS:    4288650
LLC LOAD      ACCESS:   10531255  HIT:    8118743  MISS:    2412512
LLC RFO       ACCESS:    6074917  HIT:    4198833  MISS:    1876084
LLC PREFETCH  ACCESS:          0  HIT:          0  MISS:          0
LLC WRITEBACK ACCESS:    7363541  HIT:    7363487  MISS:         54
LLC PREFETCH  REQUESTED:          0  ISSUED:          0  USEFUL:          0  USELESS:          0
Major fault: 0 Minor fault: 20277

CPU 1 cumulative IPC: 0.292617 instructions: 1000000000 cycles: 3417432955
L1D TOTAL     ACCESS:  384406872  HIT:  340098626  MISS:   44308246
L1D LOAD      ACCESS:  275554006  HIT:  235129252  MISS:   40424754
L1D RFO       ACCESS:  108852866  HIT:  104969374  MISS:    3883492
L1D PREFETCH  ACCESS:          0  HIT:          0  MISS:          0
L1D WRITEBACK ACCESS:          0  HIT:          0  MISS:          0
L1D PREFETCH  REQUESTED:          0  ISSUED:          0  USEFUL:          0  USELESS:          0
L1I TOTAL     ACCESS:  242231847  HIT:  242231847  MISS:          0
L1I LOAD      ACCESS:  242231847  HIT:  242231847  MISS:          0
L1I RFO       ACCESS:          0  HIT:          0  MISS:          0
L1I PREFETCH  ACCESS:          0  HIT:          0  MISS:          0
L1I WRITEBACK ACCESS:          0  HIT:          0  MISS:          0
L1I PREFETCH  REQUESTED:          0  ISSUED:          0  USEFUL:          0  USELESS:          0
L2C TOTAL     ACCESS:   50279506  HIT:   18048588  MISS:   32230918
L2C LOAD      ACCESS:   40424668  HIT:   11065386  MISS:   29359282
L2C RFO       ACCESS:    3883460  HIT:    1019967  MISS:    2863493
L2C PREFETCH  ACCESS:          0  HIT:          0  MISS:          0
L2C WRITEBACK ACCESS:    5971378  HIT:    5963235  MISS:       8143
L2C PREFETCH  REQUESTED:          0  ISSUED:          0  USEFUL:          0  USELESS:          0
LLC TOTAL     ACCESS:   36518745  HIT:   24566902  MISS:   11951843
LLC LOAD      ACCESS:   29359255  HIT:   17417581  MISS:   11941674
LLC RFO       ACCESS:    2863468  HIT:    2853764  MISS:       9704
LLC PREFETCH  ACCESS:          0  HIT:          0  MISS:          0
LLC WRITEBACK ACCESS:    4296022  HIT:    4295557  MISS:        465
LLC PREFETCH  REQUESTED:          0  ISSUED:          0  USEFUL:          0  USELESS:          0
Major fault: 0 Minor fault: 169569

CPU 2 cumulative IPC: 1.01875 instructions: 1000000000 cycles: 981594949
L1D TOTAL     ACCESS:   83364928  HIT:   82946518  MISS:     418410
L1D LOAD      ACCESS:   62444428  HIT:   62026018  MISS:     418410
L1D RFO       ACCESS:   20920500  HIT:   20920500  MISS:          0
L1D PREFETCH  ACCESS:          0  HIT:          0  MISS:          0
L1D WRITEBACK ACCESS:          0  HIT:          0  MISS:          0
L1D PREFETCH  REQUESTED:          0  ISSUED:          0  USEFUL:          0  USELESS:          0
L1I TOTAL     ACCESS:  258087094  HIT:  258087094  MISS:          0
L1I LOAD      ACCESS:  258087094  HIT:  258087094  MISS:          0
L1I RFO       ACCESS:          0  HIT:          0  MISS:          0
L1I PREFETCH  ACCESS:          0  HIT:          0  MISS:          0
L1I WRITEBACK ACCESS:          0  HIT:          0  MISS:          0
L1I PREFETCH  REQUESTED:          0  ISSUED:          0  USEFUL:          0  USELESS:          0
L2C TOTAL     ACCESS:     418410  HIT:          0  MISS:     418410
L2C LOAD      ACCESS:     418410  HIT:          0  MISS:     418410
L2C RFO       ACCESS:          0  HIT:          0  MISS:          0
L2C PREFETCH  ACCESS:          0  HIT:          0  MISS:          0
L2C WRITEBACK ACCESS:          0  HIT:          0  MISS:          0
L2C PREFETCH  REQUESTED:          0  ISSUED:          0  USEFUL:          0  USELESS:          0
LLC TOTAL     ACCESS:     418410  HIT:          0  MISS:     418410
LLC LOAD      ACCESS:     418410  HIT:          0  MISS:     418410
LLC RFO       ACCESS:          0  HIT:          0  MISS:          0
LLC PREFETCH  ACCESS:          0  HIT:          0  MISS:          0
LLC WRITEBACK ACCESS:          0  HIT:          0  MISS:          0
LLC PREFETCH  REQUESTED:          0  ISSUED:          0  USEFUL:          0  USELESS:          0
Major fault: 0 Minor fault: 13080

CPU 3 cumulative IPC: 0.974348 instructions: 1000000001 cycles: 1026327045
L1D TOTAL     ACCESS:  398375198  HIT:  318848516  MISS:   79526682
L1D LOAD      ACCESS:  319499263  HIT:  246561269  MISS:   72937994
L1D RFO       ACCESS:   78875935  HIT:   72287247  MISS:    6588688
L1D PREFETCH  ACCESS:          0  HIT:          0  MISS:          0
L1D WRITEBACK ACCESS:          0  HIT:          0  MISS:          0
L1D PREFETCH  REQUESTED:          0  ISSUED:          0  USEFUL:          0  USELESS:          0
L1I TOTAL     ACCESS:  233710664  HIT:  204880618  MISS:   28830046
L1I LOAD      ACCESS:  233710664  HIT:  204880618  MISS:   28830046
L1I RFO       ACCESS:          0  HIT:          0  MISS:          0
L1I PREFETCH  ACCESS:          0  HIT:          0  MISS:          0
L1I WRITEBACK ACCESS:          0  HIT:          0  MISS:          0
L1I PREFETCH  REQUESTED:          0  ISSUED:          0  USEFUL:          0  USELESS:          0
L2C TOTAL     ACCESS:  115685110  HIT:  106552369  MISS:    9132741
L2C LOAD      ACCESS:  101763318  HIT:   93503459  MISS:    8259859
L2C RFO       ACCESS:    6584578  HIT:    5714885  MISS:     869693
L2C PREFETCH  ACCESS:          0  HIT:          0  MISS:          0
L2C WRITEBACK ACCESS:    7337214  HIT:    7334025  MISS:       3189
L2C PREFETCH  REQUESTED:          0  ISSUED:          0  USEFUL:          0  USELESS:          0
LLC TOTAL     ACCESS:    9944289  HIT:    7307364  MISS:    2636925
LLC LOAD      ACCESS:    8259792  HIT:    6209613  MISS:    2050179
LLC RFO       ACCESS:     807945  HIT:     222645  MISS:     585300
LLC PREFETCH  ACCESS:          0  HIT:          0  MISS:          0
LLC WRITEBACK ACCESS:     876552  HIT:     875106  MISS:       1446
LLC PREFETCH  REQUESTED:          0  ISSUED:          0  USEFUL:          0  USELESS:          0
Major fault: 0 Minor fault: 41749

DRAM Statistics
 CHANNEL 0
 RQ ROW_BUFFER_HIT:   10412834  ROW_BUFFER_MISS:    6467208
 DBUS_CONGESTED:   16913419
 WQ ROW_BUFFER_HIT:     863349  ROW_BUFFER_MISS:    3723426  FULL:          0

 CHANNEL 1
 RQ ROW_BUFFER_HIT:   10411644  ROW_BUFFER_MISS:    6468561
 DBUS_CONGESTED:   16913419
 WQ ROW_BUFFER_HIT:     864093  ROW_BUFFER_MISS:    3722072  FULL:          0

 AVG_CONGESTED_CYCLE: 12
