
*** ChampSim Multicore Out-of-Order Simulator ***

Warmup Instructions: 200000000
Simulation Instructions: 1000000000
Number of CPUs: 4
LLC sets: 8192
LLC ways: 16
Off-chip DRAM Size: 8192 MB Channels: 2 Width: 64-bit Data Rate: 1600 MT/s

CPU 0 runs /scratch/user/djimenez/champsim-traces/speccpu2017/xz/649.fotonik3d_s/649.fotonik3d_s-10881B.champsimtrace.xz
CPU 1 runs /scratch/user/djimenez/champsim-traces/speccpu2017/xz/605.mcf_s/605.mcf_s-1152B.champsimtrace.xz
CPU 2 runs /scratch/user/djimenez/champsim-traces/speccpu2017/xz/625.x264_s/625.x264_s-20B.champsimtrace.xz
CPU 3 runs /scratch/user/djimenez/champsim-traces/speccpu2017/xz/605.mcf_s/605.mcf_s-1536B.champsimtrace.xz
Heartbeat CPU 3 instructions: 10000002 cycles: 3661866 heartbeat IPC: 2.73085 cumulative IPC: 2.73085 (Simulation time: 0 hr 2 min 24 sec) 
Heartbeat CPU 2 instructions: 10000001 cycles: 3744960 heartbeat IPC: 2.67026 cumulative IPC: 2.67026 (Simulation time: 0 hr 2 min 27 sec) 
Heartbeat CPU 1 instructions: 10000001 cycles: 6544963 heartbeat IPC: 1.52789 cumulative IPC: 1.52789 (Simulation time: 0 hr 4 min 19 sec) 
Heartbeat CPU 3 instructions: 20000000 cycles: 7317587 heartbeat IPC: 2.73544 cumulative IPC: 2.73314 (Simulation time: 0 hr 4 min 50 sec) 
Heartbeat CPU 2 instructions: 20000000 cycles: 7717595 heartbeat IPC: 2.51722 cumulative IPC: 2.59148 (Simulation time: 0 hr 5 min 6 sec) 
Heartbeat CPU 0 instructions: 10000001 cycles: 8413337 heartbeat IPC: 1.18859 cumulative IPC: 1.18859 (Simulation time: 0 hr 5 min 34 sec) 
Heartbeat CPU 3 instructions: 30000002 cycles: 10988947 heartbeat IPC: 2.72379 cumulative IPC: 2.73002 (Simulation time: 0 hr 7 min 17 sec) 
Heartbeat CPU 2 instructions: 30000002 cycles: 11689275 heartbeat IPC: 2.51783 cumulative IPC: 2.56646 (Simulation time: 0 hr 7 min 45 sec) 
Heartbeat CPU 1 instructions: 20000000 cycles: 13092974 heartbeat IPC: 1.52718 cumulative IPC: 1.52754 (Simulation time: 0 hr 8 min 41 sec) 
Heartbeat CPU 3 instructions: 40000000 cycles: 14659336 heartbeat IPC: 2.72451 cumulative IPC: 2.72864 (Simulation time: 0 hr 9 min 44 sec) 
Heartbeat CPU 2 instructions: 40000000 cycles: 15662926 heartbeat IPC: 2.51658 cumulative IPC: 2.5538 (Simulation time: 0 hr 10 min 24 sec) 
Heartbeat CPU 0 instructions: 20000000 cycles: 16796083 heartbeat IPC: 1.19293 cumulative IPC: 1.19075 (Simulation time: 0 hr 11 min 10 sec) 
Heartbeat CPU 3 instructions: 50000002 cycles: 18332417 heartbeat IPC: 2.72251 cumulative IPC: 2.72741 (Simulation time: 0 hr 12 min 11 sec) 
Heartbeat CPU 1 instructions: 30000001 cycles: 19629141 heartbeat IPC: 1.52995 cumulative IPC: 1.52834 (Simulation time: 0 hr 13 min 3 sec) 
Heartbeat CPU 2 instructions: 50000000 cycles: 19629832 heartbeat IPC: 2.52086 cumulative IPC: 2.54714 (Simulation time: 0 hr 13 min 3 sec) 
Heartbeat CPU 3 instructions: 60000000 cycles: 22003782 heartbeat IPC: 2.72378 cumulative IPC: 2.7268 (Simulation time: 0 hr 14 min 38 sec) 
Heartbeat CPU 2 instructions: 60000000 cycles: 23605147 heartbeat IPC: 2.51552 cumulative IPC: 2.54182 (Simulation time: 0 hr 15 min 43 sec) 
Heartbeat CPU 0 instructions: 30000000 cycles: 25170310 heartbeat IPC: 1.19414 cumulative IPC: 1.19188 (Simulation time: 0 hr 16 min 46 sec) 
Heartbeat CPU 3 instructions: 70000002 cycles: 25676552 heartbeat IPC: 2.72274 cumulative IPC: 2.72622 (Simulation time: 0 hr 17 min 6 sec) 
Heartbeat CPU 1 instructions: 40000000 cycles: 26172524 heartbeat IPC: 1.52826 cumulative IPC: 1.52832 (Simulation time: 0 hr 17 min 26 sec) 
Heartbeat CPU 2 instructions: 70000002 cycles: 27585308 heartbeat IPC: 2.51246 cumulative IPC: 2.53758 (Simulation time: 0 hr 18 min 23 sec) 
Heartbeat CPU 3 instructions: 80000000 cycles: 29349635 heartbeat IPC: 2.72251 cumulative IPC: 2.72576 (Simulation time: 0 hr 19 min 33 sec) 
Heartbeat CPU 2 instructions: 80000000 cycles: 31568884 heartbeat IPC: 2.51031 cumulative IPC: 2.53414 (Simulation time: 0 hr 21 min 2 sec) 
Heartbeat CPU 1 instructions: 50000000 cycles: 32711104 heartbeat IPC: 1.52938 cumulative IPC: 1.52853 (Simulation time: 0 hr 21 min 48 sec) 
Heartbeat CPU 3 instructions: 90000002 cycles: 33024740 heartbeat IPC: 2.72101 cumulative IPC: 2.72523 (Simulation time: 0 hr 22 min 8 sec) 
Heartbeat CPU 0 instructions: 40000000 cycles: 33555385 heartbeat IPC: 1.1926 cumulative IPC: 1.19206 (Simulation time: 0 hr 22 min 29 sec) 
Heartbeat CPU 2 instructions: 90000000 cycles: 36486381 heartbeat IPC: 2.03355 cumulative IPC: 2.46667 (Simulation time: 0 hr 24 min 23 sec) 
Heartbeat CPU 3 instructions: 100000000 cycles: 36701651 heartbeat IPC: 2.71967 cumulative IPC: 2.72467 (Simulation time: 0 hr 24 min 32 sec) 
Heartbeat CPU 1 instructions: 60000000 cycles: 39244365 heartbeat IPC: 1.53063 cumulative IPC: 1.52888 (Simulation time: 0 hr 26 min 32 sec) 
Heartbeat CPU 3 instructions: 110000001 cycles: 40379358 heartbeat IPC: 2.71909 cumulative IPC: 2.72416 (Simulation time: 0 hr 27 min 28 sec) 
Heartbeat CPU 2 instructions: 100000000 cycles: 40760490 heartbeat IPC: 2.33967 cumulative IPC: 2.45336 (Simulation time: 0 hr 27 min 49 sec) 
Heartbeat CPU 0 instructions: 50000001 cycles: 41975184 heartbeat IPC: 1.18768 cumulative IPC: 1.19118 (Simulation time: 0 hr 28 min 46 sec) 
Heartbeat CPU 3 instructions: 120000000 cycles: 44059373 heartbeat IPC: 2.71738 cumulative IPC: 2.7236 (Simulation time: 0 hr 30 min 12 sec) 
Heartbeat CPU 2 instructions: 110000003 cycles: 44435538 heartbeat IPC: 2.72105 cumulative IPC: 2.4755 (Simulation time: 0 hr 30 min 27 sec) 
Heartbeat CPU 1 instructions: 70000000 cycles: 45792900 heartbeat IPC: 1.52706 cumulative IPC: 1.52862 (Simulation time: 0 hr 31 min 23 sec) 
Heartbeat CPU 3 instructions: 130000000 cycles: 47735905 heartbeat IPC: 2.71995 cumulative IPC: 2.72332 (Simulation time: 0 hr 32 min 43 sec) 
Heartbeat CPU 2 instructions: 120000000 cycles: 48380607 heartbeat IPC: 2.53481 cumulative IPC: 2.48033 (Simulation time: 0 hr 33 min 9 sec) 
Heartbeat CPU 0 instructions: 60000000 cycles: 50365375 heartbeat IPC: 1.19187 cumulative IPC: 1.19129 (Simulation time: 0 hr 34 min 31 sec) 
Heartbeat CPU 3 instructions: 140000000 cycles: 51419479 heartbeat IPC: 2.71475 cumulative IPC: 2.7227 (Simulation time: 0 hr 35 min 14 sec) 
Heartbeat CPU 1 instructions: 80000000 cycles: 52314075 heartbeat IPC: 1.53347 cumulative IPC: 1.52923 (Simulation time: 0 hr 35 min 50 sec) 
Heartbeat CPU 2 instructions: 130000003 cycles: 52322403 heartbeat IPC: 2.53692 cumulative IPC: 2.4846 (Simulation time: 0 hr 35 min 51 sec) 
Heartbeat CPU 3 instructions: 150000003 cycles: 55105455 heartbeat IPC: 2.71299 cumulative IPC: 2.72205 (Simulation time: 0 hr 37 min 45 sec) 
Heartbeat CPU 2 instructions: 140000000 cycles: 56261090 heartbeat IPC: 2.53892 cumulative IPC: 2.4884 (Simulation time: 0 hr 38 min 33 sec) 
Heartbeat CPU 0 instructions: 70000003 cycles: 58735705 heartbeat IPC: 1.1947 cumulative IPC: 1.19178 (Simulation time: 0 hr 40 min 42 sec) 
Heartbeat CPU 3 instructions: 160000000 cycles: 58796117 heartbeat IPC: 2.70954 cumulative IPC: 2.72127 (Simulation time: 0 hr 40 min 45 sec) 
Heartbeat CPU 1 instructions: 90000002 cycles: 58830335 heartbeat IPC: 1.53462 cumulative IPC: 1.52982 (Simulation time: 0 hr 40 min 47 sec) 
Heartbeat CPU 2 instructions: 150000002 cycles: 60199165 heartbeat IPC: 2.53931 cumulative IPC: 2.49173 (Simulation time: 0 hr 41 min 54 sec) 
Heartbeat CPU 3 instructions: 170000003 cycles: 62492347 heartbeat IPC: 2.70546 cumulative IPC: 2.72033 (Simulation time: 0 hr 43 min 32 sec) 
Heartbeat CPU 2 instructions: 160000000 cycles: 64138668 heartbeat IPC: 2.53839 cumulative IPC: 2.4946 (Simulation time: 0 hr 44 min 55 sec) 
Heartbeat CPU 1 instructions: 100000000 cycles: 65335190 heartbeat IPC: 1.53731 cumulative IPC: 1.53057 (Simulation time: 0 hr 45 min 55 sec) 
Heartbeat CPU 3 instructions: 180000000 cycles: 66192982 heartbeat IPC: 2.70224 cumulative IPC: 2.71932 (Simulation time: 0 hr 46 min 44 sec) 
Heartbeat CPU 0 instructions: 80000000 cycles: 67123131 heartbeat IPC: 1.19226 cumulative IPC: 1.19184 (Simulation time: 0 hr 47 min 27 sec) 
Heartbeat CPU 2 instructions: 170000000 cycles: 68082140 heartbeat IPC: 2.53584 cumulative IPC: 2.49698 (Simulation time: 0 hr 48 min 17 sec) 
Heartbeat CPU 3 instructions: 190000002 cycles: 69898235 heartbeat IPC: 2.69887 cumulative IPC: 2.71824 (Simulation time: 0 hr 49 min 40 sec) 
Heartbeat CPU 1 instructions: 110000000 cycles: 71834647 heartbeat IPC: 1.53859 cumulative IPC: 1.53129 (Simulation time: 0 hr 51 min 11 sec) 
Heartbeat CPU 2 instructions: 180000000 cycles: 72028316 heartbeat IPC: 2.5341 cumulative IPC: 2.49902 (Simulation time: 0 hr 51 min 19 sec) 
Heartbeat CPU 3 instructions: 200000000 cycles: 73607672 heartbeat IPC: 2.69583 cumulative IPC: 2.71711 (Simulation time: 0 hr 52 min 25 sec) 
Heartbeat CPU 0 instructions: 90000001 cycles: 75530050 heartbeat IPC: 1.1895 cumulative IPC: 1.19158 (Simulation time: 0 hr 53 min 40 sec) 
Heartbeat CPU 2 instructions: 190000003 cycles: 75976241 heartbeat IPC: 2.53298 cumulative IPC: 2.50078 (Simulation time: 0 hr 53 min 57 sec) 
Heartbeat CPU 3 instructions: 210000002 cycles: 77319068 heartbeat IPC: 2.6944 cumulative IPC: 0.129334 (Simulation time: 0 hr 54 min 49 sec) 
Heartbeat CPU 1 instructions: 120000000 cycles: 78330074 heartbeat IPC: 1.53954 cumulative IPC: 1.53198 (Simulation time: 0 hr 55 min 28 sec) 
Heartbeat CPU 2 instructions: 200000000 cycles: 79913791 heartbeat IPC: 2.53965 cumulative IPC: 2.5027 (Simulation time: 0 hr 56 min 29 sec) 
Heartbeat CPU 3 instructions: 220000000 cycles: 81033715 heartbeat IPC: 2.69205 cumulative IPC: 0.246811 (Simulation time: 0 hr 57 min 12 sec) 
Heartbeat CPU 2 instructions: 210000003 cycles: 83809456 heartbeat IPC: 2.56696 cumulative IPC: 0.119318 (Simulation time: 0 hr 59 min 4 sec) 
Heartbeat CPU 0 instructions: 100000000 cycles: 83909760 heartbeat IPC: 1.19336 cumulative IPC: 1.19176 (Simulation time: 0 hr 59 min 8 sec) 
Heartbeat CPU 3 instructions: 230000002 cycles: 84748095 heartbeat IPC: 2.69224 cumulative IPC: 0.35399 (Simulation time: 0 hr 59 min 40 sec) 
Heartbeat CPU 1 instructions: 130000001 cycles: 84794488 heartbeat IPC: 1.54693 cumulative IPC: 1.53312 (Simulation time: 0 hr 59 min 42 sec) 
Heartbeat CPU 2 instructions: 220000000 cycles: 87709420 heartbeat IPC: 2.56413 cumulative IPC: 0.228026 (Simulation time: 1 hr 1 min 42 sec) 
Heartbeat CPU 3 instructions: 240000000 cycles: 88463877 heartbeat IPC: 2.69122 cumulative IPC: 0.452162 (Simulation time: 1 hr 2 min 14 sec) 
Heartbeat CPU 1 instructions: 140000000 cycles: 91242628 heartbeat IPC: 1.55083 cumulative IPC: 1.53437 (Simulation time: 1 hr 4 min 9 sec) 
Heartbeat CPU 2 instructions: 230000000 cycles: 91611106 heartbeat IPC: 2.56299 cumulative IPC: 0.327471 (Simulation time: 1 hr 4 min 25 sec) 
Heartbeat CPU 3 instructions: 250000002 cycles: 92177149 heartbeat IPC: 2.69304 cumulative IPC: 0.542434 (Simulation time: 1 hr 4 min 49 sec) 
Heartbeat CPU 0 instructions: 110000002 cycles: 92299410 heartbeat IPC: 1.19195 cumulative IPC: 1.19177 (Simulation time: 1 hr 4 min 54 sec) 
Heartbeat CPU 2 instructions: 240000000 cycles: 95510838 heartbeat IPC: 2.56428 cumulative IPC: 0.418801 (Simulation time: 1 hr 7 min 8 sec) 
Heartbeat CPU 3 instructions: 260000000 cycles: 95895154 heartbeat IPC: 2.68961 cumulative IPC: 0.625683 (Simulation time: 1 hr 7 min 24 sec) 
Heartbeat CPU 1 instructions: 150000000 cycles: 97606300 heartbeat IPC: 1.57142 cumulative IPC: 1.53679 (Simulation time: 1 hr 8 min 36 sec) 
Heartbeat CPU 2 instructions: 250000003 cycles: 99411123 heartbeat IPC: 2.56392 cumulative IPC: 0.502962 (Simulation time: 1 hr 9 min 52 sec) 
Heartbeat CPU 3 instructions: 270000002 cycles: 99618161 heartbeat IPC: 2.686 cumulative IPC: 0.702683 (Simulation time: 1 hr 10 min 1 sec) 
Heartbeat CPU 0 instructions: 120000000 cycles: 100696676 heartbeat IPC: 1.19086 cumulative IPC: 1.1917 (Simulation time: 1 hr 10 min 46 sec) 
Heartbeat CPU 2 instructions: 260000000 cycles: 103311029 heartbeat IPC: 2.56416 cumulative IPC: 0.58077 (Simulation time: 1 hr 12 min 28 sec) 
Heartbeat CPU 3 instructions: 280000000 cycles: 103336345 heartbeat IPC: 2.68948 cumulative IPC: 0.774171 (Simulation time: 1 hr 12 min 29 sec) 
Heartbeat CPU 1 instructions: 160000000 cycles: 103901578 heartbeat IPC: 1.58849 cumulative IPC: 1.53992 (Simulation time: 1 hr 12 min 53 sec) 
Heartbeat CPU 3 instructions: 290000000 cycles: 107058603 heartbeat IPC: 2.68654 cumulative IPC: 0.840661 (Simulation time: 1 hr 15 min 4 sec) 
Heartbeat CPU 2 instructions: 270000003 cycles: 107208521 heartbeat IPC: 2.56575 cumulative IPC: 0.652933 (Simulation time: 1 hr 15 min 10 sec) 
Heartbeat CPU 0 instructions: 130000001 cycles: 109099615 heartbeat IPC: 1.19006 cumulative IPC: 1.19157 (Simulation time: 1 hr 16 min 29 sec) 
Heartbeat CPU 1 instructions: 170000000 cycles: 110177599 heartbeat IPC: 1.59337 cumulative IPC: 1.54296 (Simulation time: 1 hr 17 min 14 sec) 
Heartbeat CPU 3 instructions: 300000000 cycles: 110790387 heartbeat IPC: 2.67968 cumulative IPC: 0.902605 (Simulation time: 1 hr 17 min 40 sec) 
Heartbeat CPU 2 instructions: 280000000 cycles: 111108974 heartbeat IPC: 2.5638 cumulative IPC: 0.720014 (Simulation time: 1 hr 17 min 53 sec) 
Heartbeat CPU 3 instructions: 310000002 cycles: 114514305 heartbeat IPC: 2.68534 cumulative IPC: 0.960579 (Simulation time: 1 hr 20 min 16 sec) 
Heartbeat CPU 2 instructions: 290000002 cycles: 115010841 heartbeat IPC: 2.56288 cumulative IPC: 0.782535 (Simulation time: 1 hr 20 min 37 sec) 
Heartbeat CPU 1 instructions: 180000000 cycles: 116351393 heartbeat IPC: 1.61975 cumulative IPC: 1.54704 (Simulation time: 1 hr 21 min 34 sec) 
Heartbeat CPU 0 instructions: 140000000 cycles: 117480939 heartbeat IPC: 1.19313 cumulative IPC: 1.19168 (Simulation time: 1 hr 22 min 21 sec) 
Heartbeat CPU 3 instructions: 320000000 cycles: 118237589 heartbeat IPC: 2.6858 cumulative IPC: 1.01491 (Simulation time: 1 hr 22 min 53 sec) 
Heartbeat CPU 2 instructions: 300000000 cycles: 118910284 heartbeat IPC: 2.56447 cumulative IPC: 0.84097 (Simulation time: 1 hr 23 min 21 sec) 
Heartbeat CPU 3 instructions: 330000000 cycles: 121962228 heartbeat IPC: 2.68482 cumulative IPC: 1.0659 (Simulation time: 1 hr 25 min 30 sec) 
Heartbeat CPU 1 instructions: 190000001 cycles: 122566797 heartbeat IPC: 1.60891 cumulative IPC: 1.55018 (Simulation time: 1 hr 25 min 55 sec) 
Heartbeat CPU 2 instructions: 310000001 cycles: 122808876 heartbeat IPC: 2.56503 cumulative IPC: 0.895701 (Simulation time: 1 hr 26 min 6 sec) 
Heartbeat CPU 3 instructions: 340000000 cycles: 125685931 heartbeat IPC: 2.6855 cumulative IPC: 1.11389 (Simulation time: 1 hr 28 min 7 sec) 
Heartbeat CPU 0 instructions: 150000002 cycles: 125855779 heartbeat IPC: 1.19405 cumulative IPC: 1.19184 (Simulation time: 1 hr 28 min 14 sec) 
Heartbeat CPU 2 instructions: 320000000 cycles: 126707106 heartbeat IPC: 2.56527 cumulative IPC: 0.947066 (Simulation time: 1 hr 28 min 51 sec) 
Heartbeat CPU 1 instructions: 200000000 cycles: 128801892 heartbeat IPC: 1.60382 cumulative IPC: 1.55277 (Simulation time: 1 hr 30 min 26 sec) 
Heartbeat CPU 3 instructions: 350000003 cycles: 129413843 heartbeat IPC: 2.68247 cumulative IPC: 1.15907 (Simulation time: 1 hr 30 min 59 sec) 
Heartbeat CPU 2 instructions: 330000000 cycles: 130604726 heartbeat IPC: 2.56567 cumulative IPC: 0.99537 (Simulation time: 1 hr 32 min 0 sec) 
Heartbeat CPU 3 instructions: 360000000 cycles: 133134206 heartbeat IPC: 2.68791 cumulative IPC: 1.20179 (Simulation time: 1 hr 33 min 50 sec) 
Heartbeat CPU 0 instructions: 160000000 cycles: 134255125 heartbeat IPC: 1.19057 cumulative IPC: 1.19176 (Simulation time: 1 hr 34 min 42 sec) 
Heartbeat CPU 2 instructions: 340000000 cycles: 134504379 heartbeat IPC: 2.56433 cumulative IPC: 1.04086 (Simulation time: 1 hr 34 min 53 sec) 
Heartbeat CPU 1 instructions: 210000002 cycles: 135052655 heartbeat IPC: 1.5998 cumulative IPC: 0.0740452 (Simulation time: 1 hr 35 min 16 sec) 
Heartbeat CPU 3 instructions: 370000002 cycles: 136859289 heartbeat IPC: 2.6845 cumulative IPC: 1.24215 (Simulation time: 1 hr 36 min 34 sec) 
Heartbeat CPU 2 instructions: 350000002 cycles: 138576282 heartbeat IPC: 2.45585 cumulative IPC: 1.08244 (Simulation time: 1 hr 37 min 49 sec) 
Heartbeat CPU 3 instructions: 380000000 cycles: 140581840 heartbeat IPC: 2.68633 cumulative IPC: 1.28039 (Simulation time: 1 hr 39 min 25 sec) 
Heartbeat CPU 1 instructions: 220000000 cycles: 141301473 heartbeat IPC: 1.6003 cumulative IPC: 0.141541 (Simulation time: 1 hr 39 min 58 sec) 
Heartbeat CPU 0 instructions: 170000000 cycles: 142661975 heartbeat IPC: 1.18951 cumulative IPC: 1.19163 (Simulation time: 1 hr 40 min 57 sec) 
Heartbeat CPU 2 instructions: 360000000 cycles: 142717541 heartbeat IPC: 2.41472 cumulative IPC: 1.1211 (Simulation time: 1 hr 41 min 0 sec) 
Heartbeat CPU 3 instructions: 390000000 cycles: 144301871 heartbeat IPC: 2.68815 cumulative IPC: 1.31668 (Simulation time: 1 hr 42 min 9 sec) 
Heartbeat CPU 2 instructions: 370000000 cycles: 146858675 heartbeat IPC: 2.4148 cumulative IPC: 1.15758 (Simulation time: 1 hr 43 min 57 sec) 
Heartbeat CPU 1 instructions: 230000001 cycles: 147597976 heartbeat IPC: 1.58818 cumulative IPC: 0.203255 (Simulation time: 1 hr 44 min 28 sec) 
Heartbeat CPU 3 instructions: 400000000 cycles: 148023053 heartbeat IPC: 2.68732 cumulative IPC: 1.35114 (Simulation time: 1 hr 44 min 46 sec) 
Heartbeat CPU 2 instructions: 380000000 cycles: 150999635 heartbeat IPC: 2.4149 cumulative IPC: 1.19206 (Simulation time: 1 hr 46 min 51 sec) 
Heartbeat CPU 0 instructions: 180000000 cycles: 151037969 heartbeat IPC: 1.19389 cumulative IPC: 1.19175 (Simulation time: 1 hr 46 min 52 sec) 
Heartbeat CPU 3 instructions: 410000003 cycles: 151744443 heartbeat IPC: 2.68717 cumulative IPC: 1.38391 (Simulation time: 1 hr 47 min 22 sec) 
Heartbeat CPU 1 instructions: 240000000 cycles: 153940360 heartbeat IPC: 1.57669 cumulative IPC: 0.259841 (Simulation time: 1 hr 48 min 54 sec) 
Heartbeat CPU 2 instructions: 390000002 cycles: 154852160 heartbeat IPC: 2.5957 cumulative IPC: 1.22698 (Simulation time: 1 hr 49 min 33 sec) 
Heartbeat CPU 3 instructions: 420000000 cycles: 155467323 heartbeat IPC: 2.68609 cumulative IPC: 1.41509 (Simulation time: 1 hr 49 min 59 sec) 
Heartbeat CPU 2 instructions: 400000000 cycles: 158670942 heartbeat IPC: 2.61864 cumulative IPC: 1.26047 (Simulation time: 1 hr 52 min 24 sec) 
Heartbeat CPU 3 instructions: 430000001 cycles: 159188361 heartbeat IPC: 2.68742 cumulative IPC: 1.44483 (Simulation time: 1 hr 52 min 46 sec) 
Heartbeat CPU 0 instructions: 190000001 cycles: 159427625 heartbeat IPC: 1.19194 cumulative IPC: 1.19176 (Simulation time: 1 hr 52 min 56 sec) 
Heartbeat CPU 1 instructions: 250000000 cycles: 160320191 heartbeat IPC: 1.56744 cumulative IPC: 0.311876 (Simulation time: 1 hr 53 min 33 sec) 
Heartbeat CPU 2 instructions: 410000002 cycles: 162491850 heartbeat IPC: 2.61718 cumulative IPC: 1.29237 (Simulation time: 1 hr 55 min 4 sec) 
Heartbeat CPU 3 instructions: 440000000 cycles: 162922206 heartbeat IPC: 2.6782 cumulative IPC: 1.4731 (Simulation time: 1 hr 55 min 22 sec) 
Heartbeat CPU 2 instructions: 420000000 cycles: 166313417 heartbeat IPC: 2.61673 cumulative IPC: 1.3228 (Simulation time: 1 hr 57 min 44 sec) 
Heartbeat CPU 3 instructions: 450000001 cycles: 166659215 heartbeat IPC: 2.67594 cumulative IPC: 1.50007 (Simulation time: 1 hr 57 min 59 sec) 
Heartbeat CPU 1 instructions: 260000000 cycles: 166707902 heartbeat IPC: 1.56551 cumulative IPC: 0.359911 (Simulation time: 1 hr 58 min 1 sec) 
Heartbeat CPU 0 instructions: 200000000 cycles: 167824079 heartbeat IPC: 1.19098 cumulative IPC: 1.19172 (Simulation time: 1 hr 58 min 48 sec) 

Warmup complete CPU 0 instructions: 200000001 cycles: 167824098 (Simulation time: 1 hr 58 min 48 sec) 
Warmup complete CPU 1 instructions: 261736352 cycles: 167824097 (Simulation time: 1 hr 58 min 48 sec) 
Warmup complete CPU 2 instructions: 423952230 cycles: 167824097 (Simulation time: 1 hr 58 min 48 sec) 
Warmup complete CPU 3 instructions: 453126140 cycles: 167824097 (Simulation time: 1 hr 58 min 48 sec) 

Heartbeat CPU 2 instructions: 430000003 cycles: 172540711 heartbeat IPC: 1.60583 cumulative IPC: 1.28223 (Simulation time: 1 hr 59 min 51 sec) 
Heartbeat CPU 2 instructions: 440000000 cycles: 180214417 heartbeat IPC: 1.30315 cumulative IPC: 1.29519 (Simulation time: 2 hr 1 min 34 sec) 
Heartbeat CPU 2 instructions: 450000000 cycles: 187810975 heartbeat IPC: 1.31639 cumulative IPC: 1.30324 (Simulation time: 2 hr 3 min 15 sec) 
Heartbeat CPU 0 instructions: 210000002 cycles: 194045177 heartbeat IPC: 0.381372 cumulative IPC: 0.381373 (Simulation time: 2 hr 4 min 37 sec) 
Heartbeat CPU 2 instructions: 460000000 cycles: 195382762 heartbeat IPC: 1.32069 cumulative IPC: 1.30804 (Simulation time: 2 hr 5 min 6 sec) 
Heartbeat CPU 2 instructions: 470000002 cycles: 202925467 heartbeat IPC: 1.32578 cumulative IPC: 1.31185 (Simulation time: 2 hr 6 min 55 sec) 
Heartbeat CPU 1 instructions: 270000000 cycles: 205138301 heartbeat IPC: 0.260211 cumulative IPC: 0.221461 (Simulation time: 2 hr 7 min 26 sec) 
Heartbeat CPU 2 instructions: 480000000 cycles: 210472666 heartbeat IPC: 1.32499 cumulative IPC: 1.31418 (Simulation time: 2 hr 8 min 35 sec) 
Heartbeat CPU 3 instructions: 460000000 cycles: 217694857 heartbeat IPC: 0.195941 cumulative IPC: 0.137833 (Simulation time: 2 hr 10 min 28 sec) 
Heartbeat CPU 2 instructions: 490000000 cycles: 218061683 heartbeat IPC: 1.31769 cumulative IPC: 1.31471 (Simulation time: 2 hr 10 min 34 sec) 
Heartbeat CPU 0 instructions: 220000000 cycles: 220421123 heartbeat IPC: 0.379133 cumulative IPC: 0.38025 (Simulation time: 2 hr 11 min 11 sec) 
Heartbeat CPU 2 instructions: 500000000 cycles: 225663428 heartbeat IPC: 1.31549 cumulative IPC: 1.31481 (Simulation time: 2 hr 12 min 37 sec) 
Heartbeat CPU 2 instructions: 510000003 cycles: 233261413 heartbeat IPC: 1.31614 cumulative IPC: 1.31496 (Simulation time: 2 hr 14 min 36 sec) 
Heartbeat CPU 2 instructions: 520000000 cycles: 240855129 heartbeat IPC: 1.31688 cumulative IPC: 1.31516 (Simulation time: 2 hr 16 min 26 sec) 
Heartbeat CPU 0 instructions: 230000002 cycles: 247913518 heartbeat IPC: 0.363737 cumulative IPC: 0.374581 (Simulation time: 2 hr 18 min 7 sec) 
Heartbeat CPU 2 instructions: 530000001 cycles: 248454911 heartbeat IPC: 1.31583 cumulative IPC: 1.31523 (Simulation time: 2 hr 18 min 14 sec) 
Heartbeat CPU 1 instructions: 280000000 cycles: 252229495 heartbeat IPC: 0.212354 cumulative IPC: 0.21638 (Simulation time: 2 hr 19 min 9 sec) 
Heartbeat CPU 2 instructions: 540000000 cycles: 255971385 heartbeat IPC: 1.33041 cumulative IPC: 1.31652 (Simulation time: 2 hr 20 min 2 sec) 
Heartbeat CPU 2 instructions: 550000001 cycles: 263516296 heartbeat IPC: 1.3254 cumulative IPC: 1.31722 (Simulation time: 2 hr 22 min 1 sec) 
Heartbeat CPU 3 instructions: 470000002 cycles: 263999651 heartbeat IPC: 0.21596 cumulative IPC: 0.175449 (Simulation time: 2 hr 22 min 8 sec) 
Heartbeat CPU 2 instructions: 560000000 cycles: 271017222 heartbeat IPC: 1.33317 cumulative IPC: 1.31838 (Simulation time: 2 hr 23 min 58 sec) 
Heartbeat CPU 0 instructions: 240000000 cycles: 275176124 heartbeat IPC: 0.366803 cumulative IPC: 0.372606 (Simulation time: 2 hr 25 min 12 sec) 
Heartbeat CPU 2 instructions: 570000003 cycles: 278535228 heartbeat IPC: 1.33014 cumulative IPC: 1.31918 (Simulation time: 2 hr 26 min 10 sec) 
Heartbeat CPU 2 instructions: 580000000 cycles: 286021959 heartbeat IPC: 1.3357 cumulative IPC: 1.32023 (Simulation time: 2 hr 28 min 10 sec) 
Heartbeat CPU 2 instructions: 590000003 cycles: 293553989 heartbeat IPC: 1.32766 cumulative IPC: 1.32067 (Simulation time: 2 hr 29 min 59 sec) 
Heartbeat CPU 1 instructions: 290000000 cycles: 299754293 heartbeat IPC: 0.210416 cumulative IPC: 0.214232 (Simulation time: 2 hr 31 min 29 sec) 
Heartbeat CPU 2 instructions: 600000000 cycles: 301128031 heartbeat IPC: 1.3203 cumulative IPC: 1.32065 (Simulation time: 2 hr 31 min 49 sec) 
Heartbeat CPU 0 instructions: 250000001 cycles: 302534378 heartbeat IPC: 0.36552 cumulative IPC: 0.371167 (Simulation time: 2 hr 32 min 11 sec) 
Heartbeat CPU 2 instructions: 610000001 cycles: 308733038 heartbeat IPC: 1.31492 cumulative IPC: 1.32034 (Simulation time: 2 hr 33 min 55 sec) 
Heartbeat CPU 3 instructions: 480000000 cycles: 310290748 heartbeat IPC: 0.216024 cumulative IPC: 0.188633 (Simulation time: 2 hr 34 min 23 sec) 
Heartbeat CPU 2 instructions: 620000000 cycles: 317165462 heartbeat IPC: 1.1859 cumulative IPC: 1.31275 (Simulation time: 2 hr 36 min 17 sec) 
Heartbeat CPU 2 instructions: 630000000 cycles: 324940123 heartbeat IPC: 1.28623 cumulative IPC: 1.31144 (Simulation time: 2 hr 38 min 28 sec) 
Heartbeat CPU 0 instructions: 260000000 cycles: 329914490 heartbeat IPC: 0.365229 cumulative IPC: 0.370164 (Simulation time: 2 hr 40 min 0 sec) 
Heartbeat CPU 2 instructions: 640000000 cycles: 332737917 heartbeat IPC: 1.28241 cumulative IPC: 1.31006 (Simulation time: 2 hr 40 min 45 sec) 
Heartbeat CPU 2 instructions: 650000001 cycles: 340512558 heartbeat IPC: 1.28623 cumulative IPC: 1.30899 (Simulation time: 2 hr 42 min 53 sec) 
Heartbeat CPU 1 instructions: 300000000 cycles: 346761876 heartbeat IPC: 0.212732 cumulative IPC: 0.213838 (Simulation time: 2 hr 44 min 24 sec) 
Heartbeat CPU 2 instructions: 660000000 cycles: 348304053 heartbeat IPC: 1.28345 cumulative IPC: 1.30789 (Simulation time: 2 hr 44 min 51 sec) 
Heartbeat CPU 2 instructions: 670000000 cycles: 356182908 heartbeat IPC: 1.26922 cumulative IPC: 1.30627 (Simulation time: 2 hr 46 min 59 sec) 
Heartbeat CPU 3 instructions: 490000002 cycles: 356542147 heartbeat IPC: 0.21621 cumulative IPC: 0.195391 (Simulation time: 2 hr 47 min 4 sec) 
Heartbeat CPU 0 instructions: 270000001 cycles: 357504801 heartbeat IPC: 0.362446 cumulative IPC: 0.369041 (Simulation time: 2 hr 47 min 20 sec) 
Heartbeat CPU 2 instructions: 680000000 cycles: 364071917 heartbeat IPC: 1.26759 cumulative IPC: 1.30472 (Simulation time: 2 hr 49 min 7 sec) 
Heartbeat CPU 2 instructions: 690000001 cycles: 371922055 heartbeat IPC: 1.27386 cumulative IPC: 1.30353 (Simulation time: 2 hr 51 min 8 sec) 
Heartbeat CPU 2 instructions: 700000000 cycles: 379813454 heartbeat IPC: 1.2672 cumulative IPC: 1.30218 (Simulation time: 2 hr 52 min 54 sec) 
Heartbeat CPU 2 instructions: 710000000 cycles: 387764024 heartbeat IPC: 1.25777 cumulative IPC: 1.30057 (Simulation time: 2 hr 54 min 30 sec) 
Heartbeat CPU 1 instructions: 310000003 cycles: 395301836 heartbeat IPC: 0.206016 cumulative IPC: 0.212169 (Simulation time: 2 hr 56 min 0 sec) 
Heartbeat CPU 2 instructions: 720000000 cycles: 395709126 heartbeat IPC: 1.25864 cumulative IPC: 1.29911 (Simulation time: 2 hr 56 min 5 sec) 
Heartbeat CPU 2 instructions: 730000002 cycles: 403595431 heartbeat IPC: 1.26802 cumulative IPC: 1.29807 (Simulation time: 2 hr 57 min 39 sec) 
Heartbeat CPU 3 instructions: 500000000 cycles: 404608409 heartbeat IPC: 0.208046 cumulative IPC: 0.19796 (Simulation time: 2 hr 57 min 52 sec) 
Heartbeat CPU 0 instructions: 280000000 cycles: 410182023 heartbeat IPC: 0.189835 cumulative IPC: 0.33009 (Simulation time: 2 hr 59 min 5 sec) 
Heartbeat CPU 2 instructions: 740000000 cycles: 411361022 heartbeat IPC: 1.28773 cumulative IPC: 1.29774 (Simulation time: 2 hr 59 min 20 sec) 
Heartbeat CPU 2 instructions: 750000001 cycles: 419126980 heartbeat IPC: 1.28767 cumulative IPC: 1.29743 (Simulation time: 3 hr 1 min 0 sec) 
Heartbeat CPU 2 instructions: 760000000 cycles: 426906233 heartbeat IPC: 1.28547 cumulative IPC: 1.29707 (Simulation time: 3 hr 2 min 45 sec) 
Heartbeat CPU 2 instructions: 770000002 cycles: 434687808 heartbeat IPC: 1.28509 cumulative IPC: 1.29672 (Simulation time: 3 hr 4 min 37 sec) 
Heartbeat CPU 2 instructions: 780000000 cycles: 442462289 heartbeat IPC: 1.28626 cumulative IPC: 1.29642 (Simulation time: 3 hr 6 min 11 sec) 
Heartbeat CPU 1 instructions: 320000000 cycles: 445706467 heartbeat IPC: 0.198394 cumulative IPC: 0.20967 (Simulation time: 3 hr 6 min 54 sec) 
Heartbeat CPU 2 instructions: 790000002 cycles: 450247778 heartbeat IPC: 1.28444 cumulative IPC: 1.29609 (Simulation time: 3 hr 7 min 50 sec) 
Heartbeat CPU 3 instructions: 510000000 cycles: 453696415 heartbeat IPC: 0.203716 cumulative IPC: 0.198948 (Simulation time: 3 hr 8 min 31 sec) 
Heartbeat CPU 2 instructions: 800000000 cycles: 458011196 heartbeat IPC: 1.28809 cumulative IPC: 1.29588 (Simulation time: 3 hr 9 min 29 sec) 
Heartbeat CPU 2 instructions: 810000000 cycles: 465748925 heartbeat IPC: 1.29237 cumulative IPC: 1.29579 (Simulation time: 3 hr 11 min 21 sec) 
Heartbeat CPU 0 instructions: 290000000 cycles: 470044989 heartbeat IPC: 0.167048 cumulative IPC: 0.297795 (Simulation time: 3 hr 12 min 23 sec) 
Heartbeat CPU 2 instructions: 820000000 cycles: 473483796 heartbeat IPC: 1.29285 cumulative IPC: 1.29571 (Simulation time: 3 hr 13 min 11 sec) 
Heartbeat CPU 2 instructions: 830000000 cycles: 482553334 heartbeat IPC: 1.10259 cumulative IPC: 1.29015 (Simulation time: 3 hr 15 min 11 sec) 
Heartbeat CPU 1 instructions: 330000002 cycles: 493349519 heartbeat IPC: 0.209894 cumulative IPC: 0.209703 (Simulation time: 3 hr 17 min 41 sec) 
Heartbeat CPU 2 instructions: 840000000 cycles: 493995022 heartbeat IPC: 0.873997 cumulative IPC: 1.27555 (Simulation time: 3 hr 17 min 50 sec) 
Heartbeat CPU 0 instructions: 300000000 cycles: 498655615 heartbeat IPC: 0.34952 cumulative IPC: 0.302269 (Simulation time: 3 hr 19 min 10 sec) 
Heartbeat CPU 3 instructions: 520000000 cycles: 500228472 heartbeat IPC: 0.214906 cumulative IPC: 0.201182 (Simulation time: 3 hr 19 min 36 sec) 
Heartbeat CPU 2 instructions: 850000000 cycles: 501307292 heartbeat IPC: 1.36756 cumulative IPC: 1.27757 (Simulation time: 3 hr 19 min 51 sec) 
Heartbeat CPU 2 instructions: 860000000 cycles: 508325389 heartbeat IPC: 1.42489 cumulative IPC: 1.28061 (Simulation time: 3 hr 21 min 32 sec) 
Heartbeat CPU 2 instructions: 870000002 cycles: 515362763 heartbeat IPC: 1.42098 cumulative IPC: 1.28345 (Simulation time: 3 hr 23 min 22 sec) 
Heartbeat CPU 2 instructions: 880000000 cycles: 522383961 heartbeat IPC: 1.42426 cumulative IPC: 1.28624 (Simulation time: 3 hr 25 min 1 sec) 
Heartbeat CPU 0 instructions: 310000002 cycles: 527865015 heartbeat IPC: 0.342356 cumulative IPC: 0.305521 (Simulation time: 3 hr 26 min 19 sec) 
Heartbeat CPU 2 instructions: 890000003 cycles: 529376824 heartbeat IPC: 1.43003 cumulative IPC: 1.28902 (Simulation time: 3 hr 26 min 41 sec) 
Heartbeat CPU 2 instructions: 900000000 cycles: 536358753 heartbeat IPC: 1.43227 cumulative IPC: 1.29173 (Simulation time: 3 hr 28 min 20 sec) 
Heartbeat CPU 1 instructions: 340000000 cycles: 541655233 heartbeat IPC: 0.207015 cumulative IPC: 0.209356 (Simulation time: 3 hr 29 min 34 sec) 
Heartbeat CPU 2 instructions: 910000000 cycles: 543682401 heartbeat IPC: 1.36544 cumulative IPC: 1.29317 (Simulation time: 3 hr 30 min 2 sec) 
Heartbeat CPU 3 instructions: 530000002 cycles: 547045139 heartbeat IPC: 0.213599 cumulative IPC: 0.202715 (Simulation time: 3 hr 30 min 49 sec) 
Heartbeat CPU 2 instructions: 920000000 cycles: 550734985 heartbeat IPC: 1.41792 cumulative IPC: 1.29547 (Simulation time: 3 hr 31 min 42 sec) 
Heartbeat CPU 2 instructions: 930000000 cycles: 557536789 heartbeat IPC: 1.4702 cumulative IPC: 1.29851 (Simulation time: 3 hr 33 min 16 sec) 
Heartbeat CPU 0 instructions: 320000000 cycles: 558012991 heartbeat IPC: 0.331697 cumulative IPC: 0.307543 (Simulation time: 3 hr 33 min 22 sec) 
Heartbeat CPU 2 instructions: 940000000 cycles: 564429089 heartbeat IPC: 1.45089 cumulative IPC: 1.30116 (Simulation time: 3 hr 34 min 52 sec) 
Heartbeat CPU 2 instructions: 950000003 cycles: 571261131 heartbeat IPC: 1.46369 cumulative IPC: 1.30392 (Simulation time: 3 hr 36 min 29 sec) 
Heartbeat CPU 2 instructions: 960000000 cycles: 578021870 heartbeat IPC: 1.47913 cumulative IPC: 1.3068 (Simulation time: 3 hr 38 min 4 sec) 
Heartbeat CPU 2 instructions: 970000003 cycles: 584914649 heartbeat IPC: 1.45079 cumulative IPC: 1.30918 (Simulation time: 3 hr 39 min 39 sec) 
Heartbeat CPU 3 instructions: 540000000 cycles: 589871653 heartbeat IPC: 0.2335 cumulative IPC: 0.205839 (Simulation time: 3 hr 40 min 54 sec) 
Heartbeat CPU 0 instructions: 330000002 cycles: 593394566 heartbeat IPC: 0.282633 cumulative IPC: 0.305472 (Simulation time: 3 hr 41 min 28 sec) 
Heartbeat CPU 1 instructions: 350000001 cycles: 599066232 heartbeat IPC: 0.174183 cumulative IPC: 0.204673 (Simulation time: 3 hr 42 min 22 sec) 
Heartbeat CPU 3 instructions: 550000001 cycles: 602402804 heartbeat IPC: 0.798011 cumulative IPC: 0.222914 (Simulation time: 3 hr 42 min 54 sec) 
Heartbeat CPU 2 instructions: 980000000 cycles: 605989819 heartbeat IPC: 0.474492 cumulative IPC: 1.26904 (Simulation time: 3 hr 43 min 36 sec) 
Heartbeat CPU 3 instructions: 560000000 cycles: 614386407 heartbeat IPC: 0.834473 cumulative IPC: 0.239326 (Simulation time: 3 hr 45 min 30 sec) 
Heartbeat CPU 2 instructions: 990000003 cycles: 615516080 heartbeat IPC: 1.04973 cumulative IPC: 1.26437 (Simulation time: 3 hr 45 min 46 sec) 
Heartbeat CPU 3 instructions: 570000001 cycles: 626313302 heartbeat IPC: 0.838441 cumulative IPC: 0.254911 (Simulation time: 3 hr 48 min 0 sec) 
Heartbeat CPU 2 instructions: 1000000000 cycles: 628361469 heartbeat IPC: 0.778489 cumulative IPC: 1.25082 (Simulation time: 3 hr 48 min 23 sec) 
Heartbeat CPU 2 instructions: 1010000000 cycles: 636507808 heartbeat IPC: 1.22755 cumulative IPC: 1.25041 (Simulation time: 3 hr 50 min 10 sec) 
Heartbeat CPU 3 instructions: 580000000 cycles: 638087535 heartbeat IPC: 0.849312 cumulative IPC: 0.269793 (Simulation time: 3 hr 50 min 30 sec) 
Heartbeat CPU 0 instructions: 340000000 cycles: 639059328 heartbeat IPC: 0.218987 cumulative IPC: 0.297092 (Simulation time: 3 hr 50 min 43 sec) 
Heartbeat CPU 2 instructions: 1020000000 cycles: 644605412 heartbeat IPC: 1.23493 cumulative IPC: 1.25015 (Simulation time: 3 hr 51 min 57 sec) 
Heartbeat CPU 3 instructions: 590000003 cycles: 649936100 heartbeat IPC: 0.843984 cumulative IPC: 0.283905 (Simulation time: 3 hr 53 min 12 sec) 
Heartbeat CPU 2 instructions: 1030000001 cycles: 652421141 heartbeat IPC: 1.27947 cumulative IPC: 1.25062 (Simulation time: 3 hr 53 min 48 sec) 
Heartbeat CPU 2 instructions: 1040000000 cycles: 660168554 heartbeat IPC: 1.29075 cumulative IPC: 1.25125 (Simulation time: 3 hr 55 min 42 sec) 
Heartbeat CPU 3 instructions: 600000000 cycles: 661720463 heartbeat IPC: 0.848582 cumulative IPC: 0.297378 (Simulation time: 3 hr 56 min 4 sec) 
Heartbeat CPU 2 instructions: 1050000002 cycles: 667990782 heartbeat IPC: 1.27841 cumulative IPC: 1.25168 (Simulation time: 3 hr 57 min 36 sec) 
Heartbeat CPU 1 instructions: 360000000 cycles: 668411374 heartbeat IPC: 0.144206 cumulative IPC: 0.196297 (Simulation time: 3 hr 57 min 43 sec) 
Heartbeat CPU 3 instructions: 610000003 cycles: 673524680 heartbeat IPC: 0.847155 cumulative IPC: 0.310211 (Simulation time: 3 hr 58 min 53 sec) 
Heartbeat CPU 2 instructions: 1060000000 cycles: 676040977 heartbeat IPC: 1.24221 cumulative IPC: 1.25153 (Simulation time: 3 hr 59 min 27 sec) 
Heartbeat CPU 2 instructions: 1070000003 cycles: 683859354 heartbeat IPC: 1.27904 cumulative IPC: 1.25195 (Simulation time: 4 hr 1 min 11 sec) 
Heartbeat CPU 0 instructions: 350000003 cycles: 684641580 heartbeat IPC: 0.219384 cumulative IPC: 0.290238 (Simulation time: 4 hr 1 min 21 sec) 
Heartbeat CPU 3 instructions: 620000000 cycles: 685318638 heartbeat IPC: 0.847892 cumulative IPC: 0.322465 (Simulation time: 4 hr 1 min 30 sec) 
Heartbeat CPU 2 instructions: 1080000000 cycles: 691795849 heartbeat IPC: 1.26 cumulative IPC: 1.25207 (Simulation time: 4 hr 2 min 56 sec) 
Heartbeat CPU 3 instructions: 630000003 cycles: 697167386 heartbeat IPC: 0.843971 cumulative IPC: 0.334138 (Simulation time: 4 hr 4 min 11 sec) 
Heartbeat CPU 2 instructions: 1090000001 cycles: 699765635 heartbeat IPC: 1.25474 cumulative IPC: 1.25211 (Simulation time: 4 hr 4 min 49 sec) 
Heartbeat CPU 2 instructions: 1100000000 cycles: 707562450 heartbeat IPC: 1.28257 cumulative IPC: 1.25255 (Simulation time: 4 hr 6 min 42 sec) 
Heartbeat CPU 3 instructions: 640000000 cycles: 708960616 heartbeat IPC: 0.847944 cumulative IPC: 0.345336 (Simulation time: 4 hr 7 min 2 sec) 
Heartbeat CPU 2 instructions: 1110000001 cycles: 715318684 heartbeat IPC: 1.28929 cumulative IPC: 1.25307 (Simulation time: 4 hr 8 min 34 sec) 
Heartbeat CPU 2 instructions: 1120000000 cycles: 722418221 heartbeat IPC: 1.40854 cumulative IPC: 1.25506 (Simulation time: 4 hr 10 min 4 sec) 
Heartbeat CPU 0 instructions: 360000000 cycles: 724501083 heartbeat IPC: 0.250881 cumulative IPC: 0.28742 (Simulation time: 4 hr 10 min 31 sec) 
Heartbeat CPU 2 instructions: 1130000000 cycles: 729382283 heartbeat IPC: 1.43594 cumulative IPC: 1.2573 (Simulation time: 4 hr 11 min 36 sec) 
Heartbeat CPU 1 instructions: 370000001 cycles: 729990837 heartbeat IPC: 0.162392 cumulative IPC: 0.192583 (Simulation time: 4 hr 11 min 43 sec) 
Heartbeat CPU 3 instructions: 650000002 cycles: 731372695 heartbeat IPC: 0.446188 cumulative IPC: 0.349347 (Simulation time: 4 hr 12 min 2 sec) 
Heartbeat CPU 2 instructions: 1140000000 cycles: 736348697 heartbeat IPC: 1.43546 cumulative IPC: 1.25948 (Simulation time: 4 hr 13 min 8 sec) 
Heartbeat CPU 2 instructions: 1150000002 cycles: 743375260 heartbeat IPC: 1.42317 cumulative IPC: 1.26148 (Simulation time: 4 hr 14 min 41 sec) 
Heartbeat CPU 0 instructions: 370000003 cycles: 750295748 heartbeat IPC: 0.387677 cumulative IPC: 0.29186 (Simulation time: 4 hr 16 min 13 sec) 
Heartbeat CPU 2 instructions: 1160000000 cycles: 750434608 heartbeat IPC: 1.41656 cumulative IPC: 1.26336 (Simulation time: 4 hr 16 min 15 sec) 
Heartbeat CPU 2 instructions: 1170000000 cycles: 760270692 heartbeat IPC: 1.01666 cumulative IPC: 1.25927 (Simulation time: 4 hr 18 min 18 sec) 
Heartbeat CPU 2 instructions: 1180000000 cycles: 766354526 heartbeat IPC: 1.6437 cumulative IPC: 1.26317 (Simulation time: 4 hr 19 min 50 sec) 
Heartbeat CPU 3 instructions: 660000000 cycles: 766886742 heartbeat IPC: 0.281579 cumulative IPC: 0.345329 (Simulation time: 4 hr 19 min 57 sec) 
Heartbeat CPU 1 instructions: 380000000 cycles: 773605471 heartbeat IPC: 0.229281 cumulative IPC: 0.195225 (Simulation time: 4 hr 21 min 28 sec) 
Heartbeat CPU 2 instructions: 1190000002 cycles: 774746208 heartbeat IPC: 1.19166 cumulative IPC: 1.26218 (Simulation time: 4 hr 21 min 44 sec) 
Heartbeat CPU 0 instructions: 380000000 cycles: 777059361 heartbeat IPC: 0.373642 cumulative IPC: 0.295452 (Simulation time: 4 hr 22 min 16 sec) 
Heartbeat CPU 2 instructions: 1200000000 cycles: 782595451 heartbeat IPC: 1.27401 cumulative IPC: 1.26234 (Simulation time: 4 hr 23 min 34 sec) 
Heartbeat CPU 2 instructions: 1210000000 cycles: 790452678 heartbeat IPC: 1.27271 cumulative IPC: 1.26247 (Simulation time: 4 hr 25 min 25 sec) 
Heartbeat CPU 2 instructions: 1220000000 cycles: 798272736 heartbeat IPC: 1.27876 cumulative IPC: 1.26267 (Simulation time: 4 hr 27 min 16 sec) 
Heartbeat CPU 0 instructions: 390000001 cycles: 802637847 heartbeat IPC: 0.390954 cumulative IPC: 0.2993 (Simulation time: 4 hr 28 min 18 sec) 
Heartbeat CPU 3 instructions: 670000000 cycles: 805184179 heartbeat IPC: 0.261114 cumulative IPC: 0.340269 (Simulation time: 4 hr 28 min 54 sec) 
Heartbeat CPU 2 instructions: 1230000002 cycles: 806127473 heartbeat IPC: 1.27312 cumulative IPC: 1.2628 (Simulation time: 4 hr 29 min 7 sec) 
Heartbeat CPU 2 instructions: 1240000000 cycles: 813992891 heartbeat IPC: 1.27139 cumulative IPC: 1.2629 (Simulation time: 4 hr 30 min 50 sec) 
Heartbeat CPU 1 instructions: 390000001 cycles: 815881492 heartbeat IPC: 0.236541 cumulative IPC: 0.19792 (Simulation time: 4 hr 31 min 14 sec) 
Heartbeat CPU 2 instructions: 1250000000 cycles: 821851445 heartbeat IPC: 1.2725 cumulative IPC: 1.26302 (Simulation time: 4 hr 32 min 36 sec) 
Heartbeat CPU 0 instructions: 400000000 cycles: 828351091 heartbeat IPC: 0.388905 cumulative IPC: 0.302789 (Simulation time: 4 hr 34 min 5 sec) 
Heartbeat CPU 2 instructions: 1260000000 cycles: 829729625 heartbeat IPC: 1.26933 cumulative IPC: 1.26309 (Simulation time: 4 hr 34 min 23 sec) 
Heartbeat CPU 2 instructions: 1270000002 cycles: 840622587 heartbeat IPC: 0.918024 cumulative IPC: 1.25751 (Simulation time: 4 hr 36 min 30 sec) 
Heartbeat CPU 3 instructions: 680000000 cycles: 843583413 heartbeat IPC: 0.260422 cumulative IPC: 0.335732 (Simulation time: 4 hr 37 min 20 sec) 
Heartbeat CPU 2 instructions: 1280000000 cycles: 845490263 heartbeat IPC: 2.05437 cumulative IPC: 1.26323 (Simulation time: 4 hr 37 min 52 sec) 
Heartbeat CPU 2 instructions: 1290000001 cycles: 854143405 heartbeat IPC: 1.15565 cumulative IPC: 1.26187 (Simulation time: 4 hr 39 min 38 sec) 
Heartbeat CPU 0 instructions: 410000003 cycles: 855045032 heartbeat IPC: 0.374617 cumulative IPC: 0.305579 (Simulation time: 4 hr 39 min 50 sec) 
Heartbeat CPU 1 instructions: 400000000 cycles: 861204842 heartbeat IPC: 0.220637 cumulative IPC: 0.199405 (Simulation time: 4 hr 41 min 11 sec) 
Heartbeat CPU 2 instructions: 1300000000 cycles: 861973889 heartbeat IPC: 1.27706 cumulative IPC: 1.26204 (Simulation time: 4 hr 41 min 21 sec) 
Heartbeat CPU 2 instructions: 1310000003 cycles: 869844848 heartbeat IPC: 1.27049 cumulative IPC: 1.26214 (Simulation time: 4 hr 43 min 7 sec) 
Heartbeat CPU 2 instructions: 1320000000 cycles: 877727630 heartbeat IPC: 1.26859 cumulative IPC: 1.26221 (Simulation time: 4 hr 44 min 52 sec) 
Heartbeat CPU 0 instructions: 420000000 cycles: 880720222 heartbeat IPC: 0.389481 cumulative IPC: 0.3086 (Simulation time: 4 hr 45 min 30 sec) 
Heartbeat CPU 3 instructions: 690000001 cycles: 881042059 heartbeat IPC: 0.266961 cumulative IPC: 0.33212 (Simulation time: 4 hr 45 min 34 sec) 
Heartbeat CPU 2 instructions: 1330000003 cycles: 885615465 heartbeat IPC: 1.26778 cumulative IPC: 1.26227 (Simulation time: 4 hr 46 min 30 sec) 
Heartbeat CPU 2 instructions: 1340000000 cycles: 893508091 heartbeat IPC: 1.26701 cumulative IPC: 1.26232 (Simulation time: 4 hr 48 min 16 sec) 
Heartbeat CPU 2 instructions: 1350000002 cycles: 901350120 heartbeat IPC: 1.27518 cumulative IPC: 1.26246 (Simulation time: 4 hr 50 min 9 sec) 
Heartbeat CPU 0 instructions: 430000003 cycles: 906713375 heartbeat IPC: 0.384717 cumulative IPC: 0.311278 (Simulation time: 4 hr 51 min 29 sec) 
Heartbeat CPU 2 instructions: 1360000000 cycles: 909259047 heartbeat IPC: 1.26439 cumulative IPC: 1.26248 (Simulation time: 4 hr 52 min 6 sec) 
Heartbeat CPU 1 instructions: 410000003 cycles: 909833702 heartbeat IPC: 0.205639 cumulative IPC: 0.199814 (Simulation time: 4 hr 52 min 14 sec) 
Heartbeat CPU 3 instructions: 700000000 cycles: 918017881 heartbeat IPC: 0.270447 cumulative IPC: 0.32908 (Simulation time: 4 hr 53 min 57 sec) 
Heartbeat CPU 2 instructions: 1370000000 cycles: 920739768 heartbeat IPC: 0.871025 cumulative IPC: 1.25651 (Simulation time: 4 hr 54 min 37 sec) 
Heartbeat CPU 2 instructions: 1380000000 cycles: 925449364 heartbeat IPC: 2.12332 cumulative IPC: 1.2619 (Simulation time: 4 hr 56 min 3 sec) 
Heartbeat CPU 0 instructions: 440000000 cycles: 933423747 heartbeat IPC: 0.374386 cumulative IPC: 0.31348 (Simulation time: 4 hr 57 min 50 sec) 
Heartbeat CPU 2 instructions: 1390000001 cycles: 933603693 heartbeat IPC: 1.22634 cumulative IPC: 1.26152 (Simulation time: 4 hr 57 min 53 sec) 
Heartbeat CPU 2 instructions: 1400000000 cycles: 940892766 heartbeat IPC: 1.37192 cumulative IPC: 1.26256 (Simulation time: 4 hr 59 min 38 sec) 
Heartbeat CPU 2 instructions: 1410000000 cycles: 948263550 heartbeat IPC: 1.35671 cumulative IPC: 1.26345 (Simulation time: 5 hr 2 min 1 sec) 
Heartbeat CPU 1 instructions: 420000000 cycles: 952561014 heartbeat IPC: 0.234042 cumulative IPC: 0.201677 (Simulation time: 5 hr 3 min 4 sec) 
Heartbeat CPU 3 instructions: 710000000 cycles: 954822095 heartbeat IPC: 0.271708 cumulative IPC: 0.326397 (Simulation time: 5 hr 3 min 38 sec) 
Heartbeat CPU 2 instructions: 1420000000 cycles: 955708758 heartbeat IPC: 1.34315 cumulative IPC: 1.26421 (Simulation time: 5 hr 3 min 51 sec) 
Finished CPU 2 instructions: 1000000002 cycles: 790874708 cumulative IPC: 1.26442 (Simulation time: 5 hr 4 min 37 sec) 
Heartbeat CPU 0 instructions: 450000002 cycles: 958893370 heartbeat IPC: 0.392625 cumulative IPC: 0.316028 (Simulation time: 5 hr 4 min 40 sec) 
Heartbeat CPU 2 instructions: 1430000003 cycles: 963292552 heartbeat IPC: 1.3186 cumulative IPC: 1.26472 (Simulation time: 5 hr 5 min 45 sec) 
Heartbeat CPU 2 instructions: 1440000000 cycles: 970879006 heartbeat IPC: 1.31814 cumulative IPC: 1.26523 (Simulation time: 5 hr 7 min 38 sec) 
Heartbeat CPU 2 instructions: 1450000001 cycles: 978579274 heartbeat IPC: 1.29866 cumulative IPC: 1.26555 (Simulation time: 5 hr 9 min 35 sec) 
Heartbeat CPU 0 instructions: 460000000 cycles: 984316830 heartbeat IPC: 0.393337 cumulative IPC: 0.318435 (Simulation time: 5 hr 11 min 2 sec) 
Heartbeat CPU 2 instructions: 1460000000 cycles: 986407450 heartbeat IPC: 1.27744 cumulative IPC: 1.26566 (Simulation time: 5 hr 11 min 40 sec) 
Heartbeat CPU 3 instructions: 720000000 cycles: 991415996 heartbeat IPC: 0.27327 cumulative IPC: 0.324037 (Simulation time: 5 hr 13 min 3 sec) 
Heartbeat CPU 2 instructions: 1470000000 cycles: 994294577 heartbeat IPC: 1.26789 cumulative IPC: 1.26568 (Simulation time: 5 hr 13 min 45 sec) 
Heartbeat CPU 1 instructions: 430000001 cycles: 994525890 heartbeat IPC: 0.238295 cumulative IPC: 0.203536 (Simulation time: 5 hr 13 min 49 sec) 
Heartbeat CPU 2 instructions: 1480000000 cycles: 1002182894 heartbeat IPC: 1.2677 cumulative IPC: 1.2657 (Simulation time: 5 hr 15 min 52 sec) 
Heartbeat CPU 0 instructions: 470000003 cycles: 1009793125 heartbeat IPC: 0.392522 cumulative IPC: 0.320677 (Simulation time: 5 hr 17 min 45 sec) 
Heartbeat CPU 2 instructions: 1490000000 cycles: 1010054523 heartbeat IPC: 1.27039 cumulative IPC: 1.26574 (Simulation time: 5 hr 17 min 48 sec) 
Heartbeat CPU 2 instructions: 1500000000 cycles: 1017936444 heartbeat IPC: 1.26873 cumulative IPC: 1.26577 (Simulation time: 5 hr 19 min 46 sec) 
Heartbeat CPU 2 instructions: 1510000003 cycles: 1025827927 heartbeat IPC: 1.26719 cumulative IPC: 1.26578 (Simulation time: 5 hr 21 min 44 sec) 
Heartbeat CPU 3 instructions: 730000000 cycles: 1027203555 heartbeat IPC: 0.279427 cumulative IPC: 0.322179 (Simulation time: 5 hr 22 min 4 sec) 
Heartbeat CPU 2 instructions: 1520000000 cycles: 1033619739 heartbeat IPC: 1.2834 cumulative IPC: 1.26594 (Simulation time: 5 hr 23 min 40 sec) 
Heartbeat CPU 0 instructions: 480000000 cycles: 1035106960 heartbeat IPC: 0.395041 cumulative IPC: 0.322847 (Simulation time: 5 hr 24 min 2 sec) 
Heartbeat CPU 1 instructions: 440000000 cycles: 1036127678 heartbeat IPC: 0.240374 cumulative IPC: 0.205301 (Simulation time: 5 hr 24 min 18 sec) 
Heartbeat CPU 2 instructions: 1530000002 cycles: 1041121928 heartbeat IPC: 1.33294 cumulative IPC: 1.26652 (Simulation time: 5 hr 25 min 32 sec) 
Heartbeat CPU 2 instructions: 1540000000 cycles: 1048624960 heartbeat IPC: 1.33279 cumulative IPC: 1.26708 (Simulation time: 5 hr 27 min 25 sec) 
Heartbeat CPU 2 instructions: 1550000000 cycles: 1056129709 heartbeat IPC: 1.33249 cumulative IPC: 1.26764 (Simulation time: 5 hr 29 min 18 sec) 
Heartbeat CPU 0 instructions: 490000002 cycles: 1060619232 heartbeat IPC: 0.391968 cumulative IPC: 0.324823 (Simulation time: 5 hr 30 min 26 sec) 
Heartbeat CPU 3 instructions: 740000000 cycles: 1062672247 heartbeat IPC: 0.281939 cumulative IPC: 0.320584 (Simulation time: 5 hr 30 min 56 sec) 
Heartbeat CPU 2 instructions: 1560000000 cycles: 1063757478 heartbeat IPC: 1.311 cumulative IPC: 1.268 (Simulation time: 5 hr 31 min 12 sec) 
Heartbeat CPU 2 instructions: 1570000003 cycles: 1070908011 heartbeat IPC: 1.3985 cumulative IPC: 1.26904 (Simulation time: 5 hr 33 min 18 sec) 
Heartbeat CPU 1 instructions: 450000001 cycles: 1077722664 heartbeat IPC: 0.240414 cumulative IPC: 0.206906 (Simulation time: 5 hr 35 min 1 sec) 
Heartbeat CPU 2 instructions: 1580000000 cycles: 1078243824 heartbeat IPC: 1.36318 cumulative IPC: 1.2698 (Simulation time: 5 hr 35 min 9 sec) 
Heartbeat CPU 2 instructions: 1590000001 cycles: 1085678457 heartbeat IPC: 1.34506 cumulative IPC: 1.27041 (Simulation time: 5 hr 37 min 2 sec) 
Heartbeat CPU 0 instructions: 500000000 cycles: 1086000847 heartbeat IPC: 0.393986 cumulative IPC: 0.326734 (Simulation time: 5 hr 37 min 7 sec) 
Heartbeat CPU 2 instructions: 1600000000 cycles: 1093208624 heartbeat IPC: 1.32799 cumulative IPC: 1.27087 (Simulation time: 5 hr 38 min 54 sec) 
Heartbeat CPU 3 instructions: 750000002 cycles: 1097713486 heartbeat IPC: 0.285378 cumulative IPC: 0.319257 (Simulation time: 5 hr 39 min 58 sec) 
Heartbeat CPU 2 instructions: 1610000003 cycles: 1100594468 heartbeat IPC: 1.35394 cumulative IPC: 1.27153 (Simulation time: 5 hr 40 min 38 sec) 
Heartbeat CPU 2 instructions: 1620000000 cycles: 1108033881 heartbeat IPC: 1.34419 cumulative IPC: 1.27211 (Simulation time: 5 hr 42 min 23 sec) 
Heartbeat CPU 0 instructions: 510000003 cycles: 1111393390 heartbeat IPC: 0.393817 cumulative IPC: 0.32854 (Simulation time: 5 hr 43 min 10 sec) 
Heartbeat CPU 2 instructions: 1630000002 cycles: 1115690886 heartbeat IPC: 1.30599 cumulative IPC: 1.27238 (Simulation time: 5 hr 44 min 10 sec) 
Heartbeat CPU 1 instructions: 460000000 cycles: 1118990168 heartbeat IPC: 0.242321 cumulative IPC: 0.208443 (Simulation time: 5 hr 44 min 55 sec) 
Heartbeat CPU 2 instructions: 1640000000 cycles: 1123253780 heartbeat IPC: 1.32224 cumulative IPC: 1.27278 (Simulation time: 5 hr 45 min 54 sec) 
Heartbeat CPU 2 instructions: 1650000002 cycles: 1130731209 heartbeat IPC: 1.33736 cumulative IPC: 1.27328 (Simulation time: 5 hr 47 min 43 sec) 
Heartbeat CPU 3 instructions: 760000000 cycles: 1132189089 heartbeat IPC: 0.29006 cumulative IPC: 0.318213 (Simulation time: 5 hr 48 min 5 sec) 
Heartbeat CPU 0 instructions: 520000000 cycles: 1136863709 heartbeat IPC: 0.392614 cumulative IPC: 0.330224 (Simulation time: 5 hr 49 min 15 sec) 
Heartbeat CPU 2 instructions: 1660000000 cycles: 1138220053 heartbeat IPC: 1.33532 cumulative IPC: 1.27376 (Simulation time: 5 hr 49 min 35 sec) 
Heartbeat CPU 2 instructions: 1670000001 cycles: 1145725192 heartbeat IPC: 1.33242 cumulative IPC: 1.27421 (Simulation time: 5 hr 51 min 28 sec) 
Heartbeat CPU 2 instructions: 1680000000 cycles: 1153277521 heartbeat IPC: 1.32409 cumulative IPC: 1.27459 (Simulation time: 5 hr 53 min 21 sec) 
Heartbeat CPU 1 instructions: 470000000 cycles: 1160120580 heartbeat IPC: 0.243129 cumulative IPC: 0.20988 (Simulation time: 5 hr 55 min 4 sec) 
Heartbeat CPU 2 instructions: 1690000003 cycles: 1160825309 heartbeat IPC: 1.32489 cumulative IPC: 1.27497 (Simulation time: 5 hr 55 min 18 sec) 
Heartbeat CPU 0 instructions: 530000001 cycles: 1162189855 heartbeat IPC: 0.394849 cumulative IPC: 0.33187 (Simulation time: 5 hr 55 min 41 sec) 
Heartbeat CPU 3 instructions: 770000000 cycles: 1166240316 heartbeat IPC: 0.293675 cumulative IPC: 0.317377 (Simulation time: 5 hr 56 min 55 sec) 
Heartbeat CPU 2 instructions: 1700000000 cycles: 1168365448 heartbeat IPC: 1.32624 cumulative IPC: 1.27536 (Simulation time: 5 hr 57 min 27 sec) 
Heartbeat CPU 2 instructions: 1710000002 cycles: 1175908420 heartbeat IPC: 1.32574 cumulative IPC: 1.27573 (Simulation time: 5 hr 59 min 38 sec) 
Heartbeat CPU 2 instructions: 1720000000 cycles: 1183421947 heartbeat IPC: 1.33093 cumulative IPC: 1.27614 (Simulation time: 6 hr 1 min 37 sec) 
Heartbeat CPU 0 instructions: 540000000 cycles: 1187435658 heartbeat IPC: 0.396105 cumulative IPC: 0.33346 (Simulation time: 6 hr 2 min 33 sec) 
Heartbeat CPU 2 instructions: 1730000000 cycles: 1190917169 heartbeat IPC: 1.33418 cumulative IPC: 1.27657 (Simulation time: 6 hr 3 min 21 sec) 
Heartbeat CPU 2 instructions: 1740000000 cycles: 1198395434 heartbeat IPC: 1.33721 cumulative IPC: 1.27701 (Simulation time: 6 hr 5 min 5 sec) 
Heartbeat CPU 3 instructions: 780000000 cycles: 1200273023 heartbeat IPC: 0.293835 cumulative IPC: 0.316601 (Simulation time: 6 hr 5 min 33 sec) 
Heartbeat CPU 1 instructions: 480000000 cycles: 1201239309 heartbeat IPC: 0.243198 cumulative IPC: 0.211206 (Simulation time: 6 hr 5 min 47 sec) 
Heartbeat CPU 2 instructions: 1750000000 cycles: 1205929045 heartbeat IPC: 1.32738 cumulative IPC: 1.27737 (Simulation time: 6 hr 6 min 58 sec) 
Heartbeat CPU 0 instructions: 550000000 cycles: 1212537080 heartbeat IPC: 0.398384 cumulative IPC: 0.33502 (Simulation time: 6 hr 8 min 36 sec) 
Heartbeat CPU 2 instructions: 1760000000 cycles: 1213479224 heartbeat IPC: 1.32447 cumulative IPC: 1.27771 (Simulation time: 6 hr 8 min 50 sec) 
Heartbeat CPU 2 instructions: 1770000002 cycles: 1221084399 heartbeat IPC: 1.31489 cumulative IPC: 1.27798 (Simulation time: 6 hr 10 min 44 sec) 
Heartbeat CPU 2 instructions: 1780000000 cycles: 1228703307 heartbeat IPC: 1.31252 cumulative IPC: 1.27823 (Simulation time: 6 hr 12 min 37 sec) 
Heartbeat CPU 3 instructions: 790000003 cycles: 1234045406 heartbeat IPC: 0.2961 cumulative IPC: 0.315951 (Simulation time: 6 hr 13 min 52 sec) 
Heartbeat CPU 2 instructions: 1790000001 cycles: 1236322534 heartbeat IPC: 1.31247 cumulative IPC: 1.27847 (Simulation time: 6 hr 14 min 23 sec) 
Heartbeat CPU 0 instructions: 560000000 cycles: 1237632054 heartbeat IPC: 0.398486 cumulative IPC: 0.336509 (Simulation time: 6 hr 14 min 42 sec) 
Heartbeat CPU 1 instructions: 490000001 cycles: 1243520066 heartbeat IPC: 0.236514 cumulative IPC: 0.212201 (Simulation time: 6 hr 16 min 6 sec) 
Heartbeat CPU 2 instructions: 1800000000 cycles: 1243834716 heartbeat IPC: 1.33117 cumulative IPC: 1.27884 (Simulation time: 6 hr 16 min 10 sec) 
Heartbeat CPU 2 instructions: 1810000003 cycles: 1251336756 heartbeat IPC: 1.33297 cumulative IPC: 1.27922 (Simulation time: 6 hr 17 min 56 sec) 
Heartbeat CPU 2 instructions: 1820000000 cycles: 1258841501 heartbeat IPC: 1.33249 cumulative IPC: 1.27958 (Simulation time: 6 hr 19 min 43 sec) 
Heartbeat CPU 0 instructions: 570000000 cycles: 1262648209 heartbeat IPC: 0.399742 cumulative IPC: 0.337954 (Simulation time: 6 hr 20 min 37 sec) 
Heartbeat CPU 2 instructions: 1830000003 cycles: 1266357349 heartbeat IPC: 1.33052 cumulative IPC: 1.27993 (Simulation time: 6 hr 21 min 29 sec) 
Heartbeat CPU 3 instructions: 800000000 cycles: 1267670208 heartbeat IPC: 0.297399 cumulative IPC: 0.315384 (Simulation time: 6 hr 21 min 47 sec) 
Heartbeat CPU 2 instructions: 1840000000 cycles: 1273792748 heartbeat IPC: 1.34492 cumulative IPC: 1.28037 (Simulation time: 6 hr 23 min 14 sec) 
Heartbeat CPU 2 instructions: 1850000000 cycles: 1281103316 heartbeat IPC: 1.36788 cumulative IPC: 1.28094 (Simulation time: 6 hr 24 min 58 sec) 
Heartbeat CPU 1 instructions: 500000000 cycles: 1284723669 heartbeat IPC: 0.242697 cumulative IPC: 0.213326 (Simulation time: 6 hr 25 min 50 sec) 
Heartbeat CPU 0 instructions: 580000000 cycles: 1287753838 heartbeat IPC: 0.398317 cumulative IPC: 0.339307 (Simulation time: 6 hr 26 min 32 sec) 
Heartbeat CPU 2 instructions: 1860000000 cycles: 1288456263 heartbeat IPC: 1.36 cumulative IPC: 1.28146 (Simulation time: 6 hr 26 min 42 sec) 
Heartbeat CPU 2 instructions: 1870000000 cycles: 1295976607 heartbeat IPC: 1.32973 cumulative IPC: 1.28178 (Simulation time: 6 hr 28 min 29 sec) 
Heartbeat CPU 3 instructions: 810000002 cycles: 1300678482 heartbeat IPC: 0.302954 cumulative IPC: 0.315022 (Simulation time: 6 hr 29 min 36 sec) 
Heartbeat CPU 2 instructions: 1880000000 cycles: 1303409775 heartbeat IPC: 1.34532 cumulative IPC: 1.2822 (Simulation time: 6 hr 30 min 17 sec) 
Heartbeat CPU 2 instructions: 1890000000 cycles: 1310823655 heartbeat IPC: 1.34882 cumulative IPC: 1.28263 (Simulation time: 6 hr 32 min 3 sec) 
Heartbeat CPU 0 instructions: 590000003 cycles: 1312817792 heartbeat IPC: 0.398979 cumulative IPC: 0.340613 (Simulation time: 6 hr 32 min 30 sec) 
Heartbeat CPU 2 instructions: 1900000000 cycles: 1318377048 heartbeat IPC: 1.32391 cumulative IPC: 1.2829 (Simulation time: 6 hr 33 min 48 sec) 
Heartbeat CPU 2 instructions: 1910000003 cycles: 1325992174 heartbeat IPC: 1.31318 cumulative IPC: 1.2831 (Simulation time: 6 hr 35 min 34 sec) 
Heartbeat CPU 1 instructions: 510000000 cycles: 1326687168 heartbeat IPC: 0.238302 cumulative IPC: 0.21423 (Simulation time: 6 hr 35 min 44 sec) 
Heartbeat CPU 2 instructions: 1920000000 cycles: 1333491533 heartbeat IPC: 1.33345 cumulative IPC: 1.28343 (Simulation time: 6 hr 37 min 20 sec) 
Heartbeat CPU 3 instructions: 820000000 cycles: 1333741178 heartbeat IPC: 0.302456 cumulative IPC: 0.314665 (Simulation time: 6 hr 37 min 24 sec) 
Heartbeat CPU 0 instructions: 600000000 cycles: 1337963260 heartbeat IPC: 0.397686 cumulative IPC: 0.34184 (Simulation time: 6 hr 38 min 24 sec) 
Heartbeat CPU 2 instructions: 1930000001 cycles: 1340993712 heartbeat IPC: 1.33295 cumulative IPC: 1.28374 (Simulation time: 6 hr 39 min 6 sec) 
Heartbeat CPU 2 instructions: 1940000000 cycles: 1348495610 heartbeat IPC: 1.333 cumulative IPC: 1.28406 (Simulation time: 6 hr 40 min 53 sec) 
Heartbeat CPU 2 instructions: 1950000003 cycles: 1356078171 heartbeat IPC: 1.31882 cumulative IPC: 1.28428 (Simulation time: 6 hr 42 min 39 sec) 
Heartbeat CPU 0 instructions: 610000000 cycles: 1361738461 heartbeat IPC: 0.420606 cumulative IPC: 0.343408 (Simulation time: 6 hr 44 min 9 sec) 
Heartbeat CPU 2 instructions: 1960000000 cycles: 1363174591 heartbeat IPC: 1.40916 cumulative IPC: 1.28502 (Simulation time: 6 hr 44 min 32 sec) 
Heartbeat CPU 3 instructions: 830000003 cycles: 1366635189 heartbeat IPC: 0.304007 cumulative IPC: 0.314373 (Simulation time: 6 hr 45 min 28 sec) 
Heartbeat CPU 1 instructions: 520000000 cycles: 1367383542 heartbeat IPC: 0.245722 cumulative IPC: 0.215299 (Simulation time: 6 hr 45 min 40 sec) 
Heartbeat CPU 2 instructions: 1970000003 cycles: 1370403361 heartbeat IPC: 1.38336 cumulative IPC: 1.28561 (Simulation time: 6 hr 46 min 29 sec) 
Heartbeat CPU 2 instructions: 1980000000 cycles: 1377750980 heartbeat IPC: 1.36098 cumulative IPC: 1.28607 (Simulation time: 6 hr 48 min 28 sec) 
Heartbeat CPU 0 instructions: 620000000 cycles: 1382571111 heartbeat IPC: 0.480016 cumulative IPC: 0.345751 (Simulation time: 6 hr 49 min 40 sec) 
Heartbeat CPU 2 instructions: 1990000000 cycles: 1385144564 heartbeat IPC: 1.35252 cumulative IPC: 1.28647 (Simulation time: 6 hr 50 min 19 sec) 
*** Reached end of trace for Core: 2 Repeating trace: /scratch/user/djimenez/champsim-traces/speccpu2017/xz/625.x264_s/625.x264_s-20B.champsimtrace.xz
Heartbeat CPU 2 instructions: 2000000000 cycles: 1392409276 heartbeat IPC: 1.37652 cumulative IPC: 1.28701 (Simulation time: 6 hr 52 min 14 sec) 
Heartbeat CPU 3 instructions: 840000000 cycles: 1399422265 heartbeat IPC: 0.304998 cumulative IPC: 0.314123 (Simulation time: 6 hr 53 min 57 sec) 
Heartbeat CPU 2 instructions: 2010000001 cycles: 1401426985 heartbeat IPC: 1.10893 cumulative IPC: 1.2857 (Simulation time: 6 hr 54 min 27 sec) 
Heartbeat CPU 0 instructions: 630000000 cycles: 1403980634 heartbeat IPC: 0.467082 cumulative IPC: 0.347852 (Simulation time: 6 hr 55 min 8 sec) 
Heartbeat CPU 1 instructions: 530000000 cycles: 1408742696 heartbeat IPC: 0.241784 cumulative IPC: 0.216182 (Simulation time: 6 hr 56 min 27 sec) 
Heartbeat CPU 2 instructions: 2020000000 cycles: 1409296135 heartbeat IPC: 1.27079 cumulative IPC: 1.28561 (Simulation time: 6 hr 56 min 38 sec) 
Heartbeat CPU 2 instructions: 2030000002 cycles: 1417162951 heartbeat IPC: 1.27116 cumulative IPC: 1.28552 (Simulation time: 6 hr 58 min 53 sec) 
Heartbeat CPU 2 instructions: 2040000000 cycles: 1425029923 heartbeat IPC: 1.27114 cumulative IPC: 1.28543 (Simulation time: 7 hr 0 min 57 sec) 
Heartbeat CPU 0 instructions: 640000000 cycles: 1425226552 heartbeat IPC: 0.470679 cumulative IPC: 0.349928 (Simulation time: 7 hr 1 min 0 sec) 
Heartbeat CPU 3 instructions: 850000002 cycles: 1432186980 heartbeat IPC: 0.305206 cumulative IPC: 0.313892 (Simulation time: 7 hr 2 min 51 sec) 
Heartbeat CPU 2 instructions: 2050000000 cycles: 1432873681 heartbeat IPC: 1.2749 cumulative IPC: 1.28536 (Simulation time: 7 hr 3 min 2 sec) 
Heartbeat CPU 2 instructions: 2060000000 cycles: 1440748086 heartbeat IPC: 1.26994 cumulative IPC: 1.28527 (Simulation time: 7 hr 5 min 7 sec) 
Heartbeat CPU 0 instructions: 650000002 cycles: 1446668811 heartbeat IPC: 0.466369 cumulative IPC: 0.35188 (Simulation time: 7 hr 6 min 49 sec) 
Heartbeat CPU 2 instructions: 2070000002 cycles: 1448598544 heartbeat IPC: 1.27381 cumulative IPC: 1.2852 (Simulation time: 7 hr 7 min 26 sec) 
Heartbeat CPU 1 instructions: 540000000 cycles: 1450082090 heartbeat IPC: 0.2419 cumulative IPC: 0.217011 (Simulation time: 7 hr 7 min 54 sec) 
Heartbeat CPU 2 instructions: 2080000000 cycles: 1456472181 heartbeat IPC: 1.27006 cumulative IPC: 1.2851 (Simulation time: 7 hr 9 min 58 sec) 
Heartbeat CPU 3 instructions: 860000000 cycles: 1464951671 heartbeat IPC: 0.305207 cumulative IPC: 0.313673 (Simulation time: 7 hr 12 min 0 sec) 
Heartbeat CPU 2 instructions: 2090000000 cycles: 1468227657 heartbeat IPC: 0.850667 cumulative IPC: 1.28118 (Simulation time: 7 hr 12 min 45 sec) 
Heartbeat CPU 0 instructions: 660000000 cycles: 1468386715 heartbeat IPC: 0.460449 cumulative IPC: 0.353693 (Simulation time: 7 hr 12 min 48 sec) 
Heartbeat CPU 2 instructions: 2100000000 cycles: 1473104418 heartbeat IPC: 2.05054 cumulative IPC: 1.28405 (Simulation time: 7 hr 14 min 23 sec) 
Heartbeat CPU 2 instructions: 2110000003 cycles: 1481214568 heartbeat IPC: 1.23302 cumulative IPC: 1.28374 (Simulation time: 7 hr 16 min 27 sec) 
Heartbeat CPU 2 instructions: 2120000000 cycles: 1488815575 heartbeat IPC: 1.31561 cumulative IPC: 1.28392 (Simulation time: 7 hr 18 min 33 sec) 
Heartbeat CPU 0 instructions: 670000002 cycles: 1490357383 heartbeat IPC: 0.455152 cumulative IPC: 0.355379 (Simulation time: 7 hr 18 min 58 sec) 
Heartbeat CPU 1 instructions: 550000000 cycles: 1492706992 heartbeat IPC: 0.234605 cumulative IPC: 0.217577 (Simulation time: 7 hr 19 min 36 sec) 
Heartbeat CPU 2 instructions: 2130000003 cycles: 1496387281 heartbeat IPC: 1.32071 cumulative IPC: 1.28413 (Simulation time: 7 hr 20 min 43 sec) 
Heartbeat CPU 3 instructions: 870000000 cycles: 1497859578 heartbeat IPC: 0.303878 cumulative IPC: 0.313431 (Simulation time: 7 hr 21 min 9 sec) 
Heartbeat CPU 2 instructions: 2140000000 cycles: 1503944923 heartbeat IPC: 1.32316 cumulative IPC: 1.28435 (Simulation time: 7 hr 23 min 0 sec) 
Heartbeat CPU 2 instructions: 2150000002 cycles: 1511485602 heartbeat IPC: 1.32614 cumulative IPC: 1.28459 (Simulation time: 7 hr 25 min 8 sec) 
Heartbeat CPU 0 instructions: 680000000 cycles: 1511563131 heartbeat IPC: 0.47157 cumulative IPC: 0.357212 (Simulation time: 7 hr 25 min 9 sec) 
Heartbeat CPU 2 instructions: 2160000000 cycles: 1519049205 heartbeat IPC: 1.32212 cumulative IPC: 1.2848 (Simulation time: 7 hr 27 min 9 sec) 
Heartbeat CPU 2 instructions: 2170000000 cycles: 1526618415 heartbeat IPC: 1.32114 cumulative IPC: 1.285 (Simulation time: 7 hr 29 min 27 sec) 
Heartbeat CPU 3 instructions: 880000000 cycles: 1529974508 heartbeat IPC: 0.311382 cumulative IPC: 0.313382 (Simulation time: 7 hr 30 min 26 sec) 
Heartbeat CPU 1 instructions: 560000000 cycles: 1532324493 heartbeat IPC: 0.252414 cumulative IPC: 0.218588 (Simulation time: 7 hr 31 min 7 sec) 
Heartbeat CPU 0 instructions: 690000003 cycles: 1532388527 heartbeat IPC: 0.480183 cumulative IPC: 0.359089 (Simulation time: 7 hr 31 min 8 sec) 
Heartbeat CPU 2 instructions: 2180000000 cycles: 1534207628 heartbeat IPC: 1.31766 cumulative IPC: 1.28518 (Simulation time: 7 hr 31 min 37 sec) 
Heartbeat CPU 2 instructions: 2190000002 cycles: 1541790778 heartbeat IPC: 1.31871 cumulative IPC: 1.28536 (Simulation time: 7 hr 33 min 38 sec) 
Heartbeat CPU 2 instructions: 2200000000 cycles: 1549413831 heartbeat IPC: 1.31181 cumulative IPC: 1.28551 (Simulation time: 7 hr 35 min 40 sec) 
Heartbeat CPU 0 instructions: 700000000 cycles: 1551902442 heartbeat IPC: 0.512455 cumulative IPC: 0.361251 (Simulation time: 7 hr 36 min 19 sec) 
Heartbeat CPU 2 instructions: 2210000003 cycles: 1557045008 heartbeat IPC: 1.31041 cumulative IPC: 1.28565 (Simulation time: 7 hr 37 min 39 sec) 
Heartbeat CPU 3 instructions: 890000003 cycles: 1562270261 heartbeat IPC: 0.309638 cumulative IPC: 0.313296 (Simulation time: 7 hr 39 min 1 sec) 
Heartbeat CPU 2 instructions: 2220000000 cycles: 1564652177 heartbeat IPC: 1.31455 cumulative IPC: 1.2858 (Simulation time: 7 hr 39 min 39 sec) 
Heartbeat CPU 0 instructions: 710000003 cycles: 1571567171 heartbeat IPC: 0.508525 cumulative IPC: 0.363314 (Simulation time: 7 hr 41 min 28 sec) 
Heartbeat CPU 1 instructions: 570000001 cycles: 1571819682 heartbeat IPC: 0.253195 cumulative IPC: 0.219562 (Simulation time: 7 hr 41 min 32 sec) 
Heartbeat CPU 2 instructions: 2230000002 cycles: 1572278229 heartbeat IPC: 1.31129 cumulative IPC: 1.28594 (Simulation time: 7 hr 41 min 40 sec) 
Heartbeat CPU 2 instructions: 2240000000 cycles: 1579885047 heartbeat IPC: 1.31461 cumulative IPC: 1.2861 (Simulation time: 7 hr 43 min 42 sec) 
Heartbeat CPU 2 instructions: 2250000003 cycles: 1587472450 heartbeat IPC: 1.31797 cumulative IPC: 1.28627 (Simulation time: 7 hr 45 min 42 sec) 
Heartbeat CPU 0 instructions: 720000000 cycles: 1591323696 heartbeat IPC: 0.506162 cumulative IPC: 0.365297 (Simulation time: 7 hr 46 min 42 sec) 
Heartbeat CPU 3 instructions: 900000000 cycles: 1594725442 heartbeat IPC: 0.308117 cumulative IPC: 0.313178 (Simulation time: 7 hr 47 min 35 sec) 
Heartbeat CPU 2 instructions: 2260000000 cycles: 1595085891 heartbeat IPC: 1.31347 cumulative IPC: 1.28641 (Simulation time: 7 hr 47 min 41 sec) 
Heartbeat CPU 2 instructions: 2270000002 cycles: 1602697549 heartbeat IPC: 1.31377 cumulative IPC: 1.28656 (Simulation time: 7 hr 49 min 39 sec) 
Heartbeat CPU 2 instructions: 2280000000 cycles: 1610297771 heartbeat IPC: 1.31575 cumulative IPC: 1.28671 (Simulation time: 7 hr 51 min 32 sec) 
Heartbeat CPU 0 instructions: 730000000 cycles: 1611528785 heartbeat IPC: 0.494925 cumulative IPC: 0.367111 (Simulation time: 7 hr 51 min 51 sec) 
Heartbeat CPU 1 instructions: 580000000 cycles: 1617901833 heartbeat IPC: 0.217004 cumulative IPC: 0.21948 (Simulation time: 7 hr 53 min 29 sec) 
Heartbeat CPU 2 instructions: 2290000000 cycles: 1617920384 heartbeat IPC: 1.31189 cumulative IPC: 1.28684 (Simulation time: 7 hr 53 min 30 sec) 
Heartbeat CPU 2 instructions: 2300000000 cycles: 1625568615 heartbeat IPC: 1.30749 cumulative IPC: 1.28695 (Simulation time: 7 hr 55 min 25 sec) 
Heartbeat CPU 3 instructions: 910000003 cycles: 1626745480 heartbeat IPC: 0.312305 cumulative IPC: 0.313159 (Simulation time: 7 hr 55 min 43 sec) 
Heartbeat CPU 0 instructions: 740000000 cycles: 1631856033 heartbeat IPC: 0.491951 cumulative IPC: 0.368844 (Simulation time: 7 hr 57 min 5 sec) 
Heartbeat CPU 2 instructions: 2310000002 cycles: 1633204842 heartbeat IPC: 1.30955 cumulative IPC: 1.28707 (Simulation time: 7 hr 57 min 27 sec) 
Heartbeat CPU 2 instructions: 2320000000 cycles: 1640838849 heartbeat IPC: 1.30993 cumulative IPC: 1.28719 (Simulation time: 7 hr 59 min 28 sec) 
Heartbeat CPU 2 instructions: 2330000000 cycles: 1648476173 heartbeat IPC: 1.30936 cumulative IPC: 1.2873 (Simulation time: 8 hr 1 min 32 sec) 
Heartbeat CPU 0 instructions: 750000002 cycles: 1651558939 heartbeat IPC: 0.507539 cumulative IPC: 0.370686 (Simulation time: 8 hr 2 min 38 sec) 
Heartbeat CPU 2 instructions: 2340000000 cycles: 1656115753 heartbeat IPC: 1.30897 cumulative IPC: 1.28741 (Simulation time: 8 hr 3 min 56 sec) 
Heartbeat CPU 1 instructions: 590000000 cycles: 1657640861 heartbeat IPC: 0.251642 cumulative IPC: 0.220338 (Simulation time: 8 hr 4 min 22 sec) 
Heartbeat CPU 3 instructions: 920000000 cycles: 1658251721 heartbeat IPC: 0.317397 cumulative IPC: 0.313248 (Simulation time: 8 hr 4 min 33 sec) 
Heartbeat CPU 2 instructions: 2350000002 cycles: 1663661061 heartbeat IPC: 1.32533 cumulative IPC: 1.28761 (Simulation time: 8 hr 6 min 11 sec) 
Heartbeat CPU 0 instructions: 760000000 cycles: 1670923347 heartbeat IPC: 0.516411 cumulative IPC: 0.372564 (Simulation time: 8 hr 8 min 22 sec) 
Heartbeat CPU 2 instructions: 2360000000 cycles: 1671167805 heartbeat IPC: 1.33214 cumulative IPC: 1.28783 (Simulation time: 8 hr 8 min 25 sec) 
Heartbeat CPU 2 instructions: 2370000000 cycles: 1678675230 heartbeat IPC: 1.33201 cumulative IPC: 1.28805 (Simulation time: 8 hr 10 min 29 sec) 
Heartbeat CPU 2 instructions: 2380000000 cycles: 1686178496 heartbeat IPC: 1.33275 cumulative IPC: 1.28827 (Simulation time: 8 hr 12 min 32 sec) 
Heartbeat CPU 3 instructions: 930000002 cycles: 1688819448 heartbeat IPC: 0.327142 cumulative IPC: 0.313527 (Simulation time: 8 hr 13 min 15 sec) 
Heartbeat CPU 0 instructions: 770000000 cycles: 1690605067 heartbeat IPC: 0.508086 cumulative IPC: 0.374315 (Simulation time: 8 hr 13 min 43 sec) 
Heartbeat CPU 2 instructions: 2390000003 cycles: 1693914209 heartbeat IPC: 1.29271 cumulative IPC: 1.28829 (Simulation time: 8 hr 14 min 36 sec) 
Heartbeat CPU 1 instructions: 600000000 cycles: 1696766721 heartbeat IPC: 0.255585 cumulative IPC: 0.22124 (Simulation time: 8 hr 15 min 21 sec) 
Heartbeat CPU 2 instructions: 2400000000 cycles: 1701660767 heartbeat IPC: 1.2909 cumulative IPC: 1.2883 (Simulation time: 8 hr 16 min 38 sec) 
Heartbeat CPU 2 instructions: 2410000002 cycles: 1709417088 heartbeat IPC: 1.28927 cumulative IPC: 1.28831 (Simulation time: 8 hr 18 min 42 sec) 
Heartbeat CPU 0 instructions: 780000000 cycles: 1712955186 heartbeat IPC: 0.447425 cumulative IPC: 0.375373 (Simulation time: 8 hr 19 min 38 sec) 
Heartbeat CPU 2 instructions: 2420000000 cycles: 1717190752 heartbeat IPC: 1.28639 cumulative IPC: 1.2883 (Simulation time: 8 hr 20 min 46 sec) 
Heartbeat CPU 3 instructions: 940000000 cycles: 1719531202 heartbeat IPC: 0.325608 cumulative IPC: 0.313767 (Simulation time: 8 hr 21 min 22 sec) 
Heartbeat CPU 2 instructions: 2430000003 cycles: 1724942631 heartbeat IPC: 1.29001 cumulative IPC: 1.28831 (Simulation time: 8 hr 22 min 46 sec) 
Heartbeat CPU 2 instructions: 2440000000 cycles: 1732577158 heartbeat IPC: 1.30984 cumulative IPC: 1.28841 (Simulation time: 8 hr 24 min 49 sec) 
Heartbeat CPU 0 instructions: 790000001 cycles: 1735329234 heartbeat IPC: 0.446946 cumulative IPC: 0.376394 (Simulation time: 8 hr 25 min 34 sec) 
Heartbeat CPU 1 instructions: 610000000 cycles: 1736214879 heartbeat IPC: 0.253497 cumulative IPC: 0.222052 (Simulation time: 8 hr 25 min 48 sec) 
Heartbeat CPU 2 instructions: 2450000000 cycles: 1740150254 heartbeat IPC: 1.32046 cumulative IPC: 1.28857 (Simulation time: 8 hr 26 min 50 sec) 
Heartbeat CPU 2 instructions: 2460000000 cycles: 1747698163 heartbeat IPC: 1.32487 cumulative IPC: 1.28874 (Simulation time: 8 hr 28 min 50 sec) 
Heartbeat CPU 3 instructions: 950000001 cycles: 1749838177 heartbeat IPC: 0.329957 cumulative IPC: 0.314077 (Simulation time: 8 hr 29 min 24 sec) 
Heartbeat CPU 2 instructions: 2470000002 cycles: 1755223362 heartbeat IPC: 1.32887 cumulative IPC: 1.28893 (Simulation time: 8 hr 30 min 50 sec) 
Heartbeat CPU 0 instructions: 800000000 cycles: 1758415092 heartbeat IPC: 0.433166 cumulative IPC: 0.377218 (Simulation time: 8 hr 31 min 52 sec) 
Heartbeat CPU 2 instructions: 2480000000 cycles: 1762751311 heartbeat IPC: 1.32838 cumulative IPC: 1.28912 (Simulation time: 8 hr 33 min 4 sec) 
Heartbeat CPU 2 instructions: 2490000000 cycles: 1770302007 heartbeat IPC: 1.32438 cumulative IPC: 1.28928 (Simulation time: 8 hr 35 min 0 sec) 
Heartbeat CPU 1 instructions: 620000000 cycles: 1775814324 heartbeat IPC: 0.252529 cumulative IPC: 0.222802 (Simulation time: 8 hr 36 min 29 sec) 
Heartbeat CPU 2 instructions: 2500000000 cycles: 1777895306 heartbeat IPC: 1.31695 cumulative IPC: 1.28941 (Simulation time: 8 hr 37 min 5 sec) 
Heartbeat CPU 3 instructions: 960000000 cycles: 1780125980 heartbeat IPC: 0.330166 cumulative IPC: 0.314379 (Simulation time: 8 hr 37 min 47 sec) 
Heartbeat CPU 0 instructions: 810000002 cycles: 1781744669 heartbeat IPC: 0.428641 cumulative IPC: 0.377962 (Simulation time: 8 hr 38 min 15 sec) 
Heartbeat CPU 2 instructions: 2510000003 cycles: 1785481155 heartbeat IPC: 1.31824 cumulative IPC: 1.28955 (Simulation time: 8 hr 39 min 21 sec) 
Heartbeat CPU 2 instructions: 2520000000 cycles: 1793070213 heartbeat IPC: 1.31769 cumulative IPC: 1.28968 (Simulation time: 8 hr 41 min 42 sec) 
Heartbeat CPU 2 instructions: 2530000001 cycles: 1800646102 heartbeat IPC: 1.31998 cumulative IPC: 1.28982 (Simulation time: 8 hr 43 min 51 sec) 
Heartbeat CPU 0 instructions: 820000000 cycles: 1804537892 heartbeat IPC: 0.438727 cumulative IPC: 0.378808 (Simulation time: 8 hr 45 min 4 sec) 
Heartbeat CPU 2 instructions: 2540000000 cycles: 1808147591 heartbeat IPC: 1.33307 cumulative IPC: 1.29002 (Simulation time: 8 hr 46 min 11 sec) 
Heartbeat CPU 3 instructions: 970000002 cycles: 1810324925 heartbeat IPC: 0.331137 cumulative IPC: 0.314687 (Simulation time: 8 hr 46 min 47 sec) 
Heartbeat CPU 1 instructions: 630000002 cycles: 1815645104 heartbeat IPC: 0.251062 cumulative IPC: 0.223485 (Simulation time: 8 hr 48 min 20 sec) 
Heartbeat CPU 2 instructions: 2550000001 cycles: 1815681080 heartbeat IPC: 1.32741 cumulative IPC: 1.29019 (Simulation time: 8 hr 48 min 21 sec) 
Heartbeat CPU 2 instructions: 2560000000 cycles: 1823168319 heartbeat IPC: 1.33561 cumulative IPC: 1.29039 (Simulation time: 8 hr 50 min 20 sec) 
Heartbeat CPU 0 instructions: 830000003 cycles: 1827479545 heartbeat IPC: 0.435888 cumulative IPC: 0.379597 (Simulation time: 8 hr 51 min 28 sec) 
Heartbeat CPU 2 instructions: 2570000003 cycles: 1830676758 heartbeat IPC: 1.33184 cumulative IPC: 1.29058 (Simulation time: 8 hr 52 min 19 sec) 
Heartbeat CPU 2 instructions: 2580000000 cycles: 1838164430 heartbeat IPC: 1.33553 cumulative IPC: 1.29078 (Simulation time: 8 hr 54 min 18 sec) 
Heartbeat CPU 3 instructions: 980000000 cycles: 1840139861 heartbeat IPC: 0.335402 cumulative IPC: 0.315056 (Simulation time: 8 hr 54 min 50 sec) 
Heartbeat CPU 2 instructions: 2590000003 cycles: 1845690444 heartbeat IPC: 1.32872 cumulative IPC: 1.29095 (Simulation time: 8 hr 56 min 23 sec) 
Heartbeat CPU 0 instructions: 840000000 cycles: 1850177725 heartbeat IPC: 0.440564 cumulative IPC: 0.380419 (Simulation time: 8 hr 57 min 38 sec) 
Heartbeat CPU 2 instructions: 2600000000 cycles: 1853256731 heartbeat IPC: 1.32165 cumulative IPC: 1.29109 (Simulation time: 8 hr 58 min 28 sec) 
Heartbeat CPU 1 instructions: 640000000 cycles: 1855168784 heartbeat IPC: 0.253013 cumulative IPC: 0.224177 (Simulation time: 8 hr 58 min 58 sec) 
Heartbeat CPU 2 instructions: 2610000001 cycles: 1860853010 heartbeat IPC: 1.31643 cumulative IPC: 1.29121 (Simulation time: 9 hr 0 min 29 sec) 
Heartbeat CPU 2 instructions: 2620000000 cycles: 1869255045 heartbeat IPC: 1.19019 cumulative IPC: 1.29071 (Simulation time: 9 hr 2 min 43 sec) 
Heartbeat CPU 3 instructions: 990000003 cycles: 1870162430 heartbeat IPC: 0.333083 cumulative IPC: 0.315374 (Simulation time: 9 hr 2 min 58 sec) 
Heartbeat CPU 0 instructions: 850000003 cycles: 1872895449 heartbeat IPC: 0.440185 cumulative IPC: 0.381216 (Simulation time: 9 hr 3 min 41 sec) 
Heartbeat CPU 2 instructions: 2630000000 cycles: 1877002684 heartbeat IPC: 1.29072 cumulative IPC: 1.29071 (Simulation time: 9 hr 4 min 47 sec) 
Heartbeat CPU 2 instructions: 2640000000 cycles: 1884781716 heartbeat IPC: 1.28551 cumulative IPC: 1.29068 (Simulation time: 9 hr 6 min 53 sec) 
Heartbeat CPU 2 instructions: 2650000001 cycles: 1892546151 heartbeat IPC: 1.28792 cumulative IPC: 1.29067 (Simulation time: 9 hr 8 min 56 sec) 
Heartbeat CPU 1 instructions: 650000000 cycles: 1894438690 heartbeat IPC: 0.254648 cumulative IPC: 0.22487 (Simulation time: 9 hr 9 min 27 sec) 
Heartbeat CPU 0 instructions: 860000000 cycles: 1895903088 heartbeat IPC: 0.434638 cumulative IPC: 0.381927 (Simulation time: 9 hr 9 min 50 sec) 
Heartbeat CPU 3 instructions: 1000000000 cycles: 1900022902 heartbeat IPC: 0.334891 cumulative IPC: 0.315711 (Simulation time: 9 hr 10 min 57 sec) 
Heartbeat CPU 2 instructions: 2660000000 cycles: 1900314004 heartbeat IPC: 1.28736 cumulative IPC: 1.29066 (Simulation time: 9 hr 11 min 2 sec) 
Heartbeat CPU 2 instructions: 2670000000 cycles: 1908180608 heartbeat IPC: 1.2712 cumulative IPC: 1.29057 (Simulation time: 9 hr 13 min 27 sec) 
Heartbeat CPU 2 instructions: 2680000000 cycles: 1916053552 heartbeat IPC: 1.27017 cumulative IPC: 1.29048 (Simulation time: 9 hr 15 min 36 sec) 
Heartbeat CPU 0 instructions: 870000003 cycles: 1918896013 heartbeat IPC: 0.434917 cumulative IPC: 0.382623 (Simulation time: 9 hr 16 min 26 sec) 
Heartbeat CPU 2 instructions: 2690000001 cycles: 1923891148 heartbeat IPC: 1.2759 cumulative IPC: 1.29041 (Simulation time: 9 hr 17 min 53 sec) 
Heartbeat CPU 3 instructions: 1010000000 cycles: 1930006063 heartbeat IPC: 0.333521 cumulative IPC: 0.316014 (Simulation time: 9 hr 19 min 32 sec) 
Heartbeat CPU 2 instructions: 2700000000 cycles: 1931747577 heartbeat IPC: 1.27284 cumulative IPC: 1.29033 (Simulation time: 9 hr 19 min 59 sec) 
Heartbeat CPU 1 instructions: 660000000 cycles: 1933858307 heartbeat IPC: 0.253681 cumulative IPC: 0.225513 (Simulation time: 9 hr 20 min 37 sec) 
Heartbeat CPU 2 instructions: 2710000000 cycles: 1939620235 heartbeat IPC: 1.27022 cumulative IPC: 1.29024 (Simulation time: 9 hr 22 min 29 sec) 
Heartbeat CPU 0 instructions: 880000000 cycles: 1941944807 heartbeat IPC: 0.433862 cumulative IPC: 0.383288 (Simulation time: 9 hr 23 min 13 sec) 
Heartbeat CPU 2 instructions: 2720000000 cycles: 1947506418 heartbeat IPC: 1.26804 cumulative IPC: 1.29014 (Simulation time: 9 hr 24 min 38 sec) 
Heartbeat CPU 2 instructions: 2730000002 cycles: 1955320576 heartbeat IPC: 1.27973 cumulative IPC: 1.2901 (Simulation time: 9 hr 26 min 39 sec) 
Heartbeat CPU 3 instructions: 1020000000 cycles: 1959253767 heartbeat IPC: 0.341907 cumulative IPC: 0.316437 (Simulation time: 9 hr 27 min 39 sec) 
Heartbeat CPU 2 instructions: 2740000000 cycles: 1963053046 heartbeat IPC: 1.29325 cumulative IPC: 1.29011 (Simulation time: 9 hr 28 min 34 sec) 
Heartbeat CPU 0 instructions: 890000000 cycles: 1964966108 heartbeat IPC: 0.43438 cumulative IPC: 0.383943 (Simulation time: 9 hr 29 min 4 sec) 
Heartbeat CPU 2 instructions: 2750000001 cycles: 1970779128 heartbeat IPC: 1.29432 cumulative IPC: 1.29013 (Simulation time: 9 hr 30 min 35 sec) 
Heartbeat CPU 1 instructions: 670000000 cycles: 1973327962 heartbeat IPC: 0.253359 cumulative IPC: 0.226122 (Simulation time: 9 hr 31 min 15 sec) 
Heartbeat CPU 2 instructions: 2760000000 cycles: 1978505274 heartbeat IPC: 1.29431 cumulative IPC: 1.29015 (Simulation time: 9 hr 32 min 34 sec) 
Heartbeat CPU 2 instructions: 2770000002 cycles: 1986237901 heartbeat IPC: 1.29322 cumulative IPC: 1.29016 (Simulation time: 9 hr 34 min 29 sec) 
Heartbeat CPU 0 instructions: 900000000 cycles: 1987809526 heartbeat IPC: 0.437763 cumulative IPC: 0.384618 (Simulation time: 9 hr 34 min 52 sec) 
Heartbeat CPU 3 instructions: 1030000000 cycles: 1988454912 heartbeat IPC: 0.342452 cumulative IPC: 0.316854 (Simulation time: 9 hr 35 min 1 sec) 
Heartbeat CPU 2 instructions: 2780000000 cycles: 1993969996 heartbeat IPC: 1.29331 cumulative IPC: 1.29017 (Simulation time: 9 hr 36 min 23 sec) 
Heartbeat CPU 2 instructions: 2790000002 cycles: 2001721343 heartbeat IPC: 1.2901 cumulative IPC: 1.29017 (Simulation time: 9 hr 38 min 22 sec) 
Heartbeat CPU 2 instructions: 2800000000 cycles: 2009458211 heartbeat IPC: 1.29251 cumulative IPC: 1.29018 (Simulation time: 9 hr 40 min 18 sec) 
Heartbeat CPU 0 instructions: 910000000 cycles: 2010809013 heartbeat IPC: 0.434792 cumulative IPC: 0.385245 (Simulation time: 9 hr 40 min 40 sec) 
Heartbeat CPU 1 instructions: 680000000 cycles: 2013249347 heartbeat IPC: 0.250492 cumulative IPC: 0.226649 (Simulation time: 9 hr 41 min 18 sec) 
Heartbeat CPU 2 instructions: 2810000000 cycles: 2017180374 heartbeat IPC: 1.29497 cumulative IPC: 1.2902 (Simulation time: 9 hr 42 min 19 sec) 
[...]
Heartbeat CPU 2 instructions: 5840000000 cycles: 4343304421 heartbeat IPC: 1.31778 cumulative IPC: 1.29711 (Simulation time: 17 hr 13 min 23 sec) 
Heartbeat CPU 0 instructions: 1950000002 cycles: 4350243050 heartbeat IPC: 0.500793 cumulative IPC: 0.418418 (Simulation time: 17 hr 14 min 33 sec) 
Heartbeat CPU 2 instructions: 5850000000 cycles: 4350685125 heartbeat IPC: 1.35488 cumulative IPC: 1.29721 (Simulation time: 17 hr 14 min 37 sec) 
Heartbeat CPU 3 instructions: 1860000000 cycles: 4355713261 heartbeat IPC: 0.373487 cumulative IPC: 0.335939 (Simulation time: 17 hr 15 min 28 sec) 
Heartbeat CPU 2 instructions: 5860000000 cycles: 4358025105 heartbeat IPC: 1.3624 cumulative IPC: 1.29732 (Simulation time: 17 hr 15 min 51 sec) 
Heartbeat CPU 2 instructions: 5870000000 cycles: 4365530871 heartbeat IPC: 1.33231 cumulative IPC: 1.29739 (Simulation time: 17 hr 17 min 4 sec) 
Heartbeat CPU 1 instructions: 1230000001 cycles: 4365936118 heartbeat IPC: 0.247035 cumulative IPC: 0.230643 (Simulation time: 17 hr 17 min 8 sec) 
Heartbeat CPU 0 instructions: 1960000000 cycles: 4370144244 heartbeat IPC: 0.502482 cumulative IPC: 0.418816 (Simulation time: 17 hr 17 min 47 sec) 
Heartbeat CPU 2 instructions: 5880000000 cycles: 4372967332 heartbeat IPC: 1.34473 cumulative IPC: 1.29747 (Simulation time: 17 hr 18 min 13 sec) 
Heartbeat CPU 2 instructions: 5890000000 cycles: 4380366634 heartbeat IPC: 1.35148 cumulative IPC: 1.29756 (Simulation time: 17 hr 19 min 20 sec) 
Heartbeat CPU 3 instructions: 1870000001 cycles: 4382827878 heartbeat IPC: 0.368805 cumulative IPC: 0.33615 (Simulation time: 17 hr 19 min 43 sec) 
Heartbeat CPU 2 instructions: 5900000000 cycles: 4387908776 heartbeat IPC: 1.32588 cumulative IPC: 1.29762 (Simulation time: 17 hr 20 min 30 sec) 
Heartbeat CPU 0 instructions: 1970000000 cycles: 4390058849 heartbeat IPC: 0.502144 cumulative IPC: 0.419209 (Simulation time: 17 hr 20 min 49 sec) 
Heartbeat CPU 2 instructions: 5910000003 cycles: 4395514164 heartbeat IPC: 1.31486 cumulative IPC: 1.29765 (Simulation time: 17 hr 21 min 40 sec) 
Heartbeat CPU 2 instructions: 5920000000 cycles: 4403012664 heartbeat IPC: 1.3336 cumulative IPC: 1.29771 (Simulation time: 17 hr 22 min 50 sec) 
Heartbeat CPU 1 instructions: 1240000000 cycles: 4406374961 heartbeat IPC: 0.247287 cumulative IPC: 0.230801 (Simulation time: 17 hr 23 min 21 sec) 
Heartbeat CPU 3 instructions: 1880000000 cycles: 4409252124 heartbeat IPC: 0.37844 cumulative IPC: 0.336414 (Simulation time: 17 hr 23 min 48 sec) 
Heartbeat CPU 0 instructions: 1980000000 cycles: 4409476176 heartbeat IPC: 0.515004 cumulative IPC: 0.419648 (Simulation time: 17 hr 23 min 50 sec) 
Heartbeat CPU 2 instructions: 5930000001 cycles: 4410514419 heartbeat IPC: 1.33302 cumulative IPC: 1.29777 (Simulation time: 17 hr 24 min 0 sec) 
Heartbeat CPU 2 instructions: 5940000000 cycles: 4418015863 heartbeat IPC: 1.33308 cumulative IPC: 1.29783 (Simulation time: 17 hr 25 min 10 sec) 
Heartbeat CPU 2 instructions: 5950000003 cycles: 4425632194 heartbeat IPC: 1.31297 cumulative IPC: 1.29786 (Simulation time: 17 hr 26 min 17 sec) 
Heartbeat CPU 0 instructions: 1990000002 cycles: 4429144454 heartbeat IPC: 0.508433 cumulative IPC: 0.420058 (Simulation time: 17 hr 26 min 50 sec) 
Heartbeat CPU 2 instructions: 5960000000 cycles: 4432971862 heartbeat IPC: 1.36246 cumulative IPC: 1.29797 (Simulation time: 17 hr 27 min 25 sec) 
Heartbeat CPU 3 instructions: 1890000002 cycles: 4436096241 heartbeat IPC: 0.372521 cumulative IPC: 0.336641 (Simulation time: 17 hr 27 min 55 sec) 
Heartbeat CPU 2 instructions: 5970000003 cycles: 4440197607 heartbeat IPC: 1.38394 cumulative IPC: 1.29812 (Simulation time: 17 hr 28 min 33 sec) 
Heartbeat CPU 1 instructions: 1250000000 cycles: 4446606735 heartbeat IPC: 0.24856 cumulative IPC: 0.230968 (Simulation time: 17 hr 29 min 33 sec) 
Heartbeat CPU 2 instructions: 5980000000 cycles: 4447547515 heartbeat IPC: 1.36056 cumulative IPC: 1.29823 (Simulation time: 17 hr 29 min 41 sec) 
*** Reached end of trace for Core: 0 Repeating trace: /scratch/user/djimenez/champsim-traces/speccpu2017/xz/649.fotonik3d_s/649.fotonik3d_s-10881B.champsimtrace.xz
Heartbeat CPU 0 instructions: 2000000000 cycles: 4448456206 heartbeat IPC: 0.517819 cumulative IPC: 0.420499 (Simulation time: 17 hr 29 min 49 sec) 
Heartbeat CPU 2 instructions: 5990000000 cycles: 4454928992 heartbeat IPC: 1.35474 cumulative IPC: 1.29832 (Simulation time: 17 hr 30 min 47 sec) 
*** Reached end of trace for Core: 2 Repeating trace: /scratch/user/djimenez/champsim-traces/speccpu2017/xz/625.x264_s/625.x264_s-20B.champsimtrace.xz
Heartbeat CPU 2 instructions: 6000000000 cycles: 4462201887 heartbeat IPC: 1.37497 cumulative IPC: 1.29845 (Simulation time: 17 hr 31 min 53 sec) 
Heartbeat CPU 3 instructions: 1900000000 cycles: 4462898955 heartbeat IPC: 0.373096 cumulative IPC: 0.336868 (Simulation time: 17 hr 32 min 0 sec) 
Heartbeat CPU 2 instructions: 6010000001 cycles: 4471255021 heartbeat IPC: 1.10459 cumulative IPC: 1.29805 (Simulation time: 17 hr 33 min 8 sec) 
Heartbeat CPU 0 instructions: 2010000001 cycles: 4474064667 heartbeat IPC: 0.390496 cumulative IPC: 0.42032 (Simulation time: 17 hr 33 min 33 sec) 
Heartbeat CPU 2 instructions: 6020000000 cycles: 4479156915 heartbeat IPC: 1.26552 cumulative IPC: 1.29799 (Simulation time: 17 hr 34 min 19 sec) 
Heartbeat CPU 2 instructions: 6030000002 cycles: 4487025612 heartbeat IPC: 1.27086 cumulative IPC: 1.29794 (Simulation time: 17 hr 35 min 30 sec) 
Heartbeat CPU 1 instructions: 1260000000 cycles: 4488109718 heartbeat IPC: 0.240947 cumulative IPC: 0.231064 (Simulation time: 17 hr 35 min 39 sec) 
Heartbeat CPU 3 instructions: 1910000003 cycles: 4489584320 heartbeat IPC: 0.374737 cumulative IPC: 0.337102 (Simulation time: 17 hr 35 min 53 sec) 
Heartbeat CPU 2 instructions: 6040000000 cycles: 4494897541 heartbeat IPC: 1.27034 cumulative IPC: 1.29789 (Simulation time: 17 hr 36 min 40 sec) 
Finished CPU 1 instructions: 1000000000 cycles: 4327211660 cumulative IPC: 0.231096 (Simulation time: 17 hr 36 min 42 sec) 

CPU 0 Branch Prediction Accuracy: 99.5934% MPKI: 0.0394909

CPU 1 Branch Prediction Accuracy: 92.7107% MPKI: 14.9956

CPU 2 Branch Prediction Accuracy: 97.9633% MPKI: 0.609627

CPU 3 Branch Prediction Accuracy: 98.3101% MPKI: 2.59135

ChampSim completed all CPUs

Total Simulation Statistics (not including warmup)

CPU 0 cumulative IPC: 0.420177 instructions: 1818192769 cycles: 4327211659
L1D TOTAL     ACCESS:  830581901  HIT:  794698346  MISS:   35883555
L1D LOAD      ACCESS:  724601649  HIT:  688718429  MISS:   35883220
L1D RFO       ACCESS:  105980252  HIT:  105979917  MISS:        335
L1D PREFETCH  ACCESS:          0  HIT:          0  MISS:          0
L1D WRITEBACK ACCESS:          0  HIT:          0  MISS:          0
L1I TOTAL     ACCESS:  498037870  HIT:  498037336  MISS:        534
L1I LOAD      ACCESS:  498037870  HIT:  498037336  MISS:        534
L1I RFO       ACCESS:          0  HIT:          0  MISS:          0
L1I PREFETCH  ACCESS:          0  HIT:          0  MISS:          0
L1I WRITEBACK ACCESS:          0  HIT:          0  MISS:          0
L2C TOTAL     ACCESS:   49489175  HIT:   17687261  MISS:   31801914
L2C LOAD      ACCESS:   35883746  HIT:    4084157  MISS:   31799589
L2C RFO       ACCESS:        329  HIT:        294  MISS:         35
L2C PREFETCH  ACCESS:          0  HIT:          0  MISS:          0
L2C WRITEBACK ACCESS:   13605100  HIT:   13602810  MISS:       2290
LLC TOTAL     ACCESS:   45386192  HIT:   15512232  MISS:   29873960
LLC LOAD      ACCESS:   31799588  HIT:    1926877  MISS:   29872711
LLC RFO       ACCESS:         35  HIT:         14  MISS:         21
LLC PREFETCH  ACCESS:          0  HIT:          0  MISS:          0
LLC WRITEBACK ACCESS:   13586569  HIT:   13585341  MISS:       1228

CPU 1 cumulative IPC: 0.231096 instructions: 1000000000 cycles: 4327211660
L1D TOTAL     ACCESS:  343756378  HIT:  272349197  MISS:   71407181
L1D LOAD      ACCESS:  260329899  HIT:  192093339  MISS:   68236560
L1D RFO       ACCESS:   83426479  HIT:   80255858  MISS:    3170621
L1D PREFETCH  ACCESS:          0  HIT:          0  MISS:          0
L1D WRITEBACK ACCESS:          0  HIT:          0  MISS:          0
L1I TOTAL     ACCESS:  234339867  HIT:  234339867  MISS:          0
L1I LOAD      ACCESS:  234339867  HIT:  234339867  MISS:          0
L1I RFO       ACCESS:          0  HIT:          0  MISS:          0
L1I PREFETCH  ACCESS:          0  HIT:          0  MISS:          0
L1I WRITEBACK ACCESS:          0  HIT:          0  MISS:          0
L2C TOTAL     ACCESS:   76534414  HIT:   14609489  MISS:   61924925
L2C LOAD      ACCESS:   68236258  HIT:    8903672  MISS:   59332586
L2C RFO       ACCESS:    3170609  HIT:     584438  MISS:    2586171
L2C PREFETCH  ACCESS:          0  HIT:          0  MISS:          0
L2C WRITEBACK ACCESS:    5127547  HIT:    5121379  MISS:       6168
LLC TOTAL     ACCESS:   66204518  HIT:   40623159  MISS:   25581359
LLC LOAD      ACCESS:   59332558  HIT:   33775005  MISS:   25557553
LLC RFO       ACCESS:    2586165  HIT:    2563134  MISS:      23031
LLC PREFETCH  ACCESS:          0  HIT:          0  MISS:          0
LLC WRITEBACK ACCESS:    4285795  HIT:    4285020  MISS:        775

CPU 2 cumulative IPC: 1.29789 instructions: 5616228370 cycles: 4327211660
L1D TOTAL     ACCESS:  876830895  HIT:  865813959  MISS:   11016936
L1D LOAD      ACCESS:  473209185  HIT:  465152910  MISS:    8056275
L1D RFO       ACCESS:  403621710  HIT:  400661049  MISS:    2960661
L1D PREFETCH  ACCESS:          0  HIT:          0  MISS:          0
L1D WRITEBACK ACCESS:          0  HIT:          0  MISS:          0
L1I TOTAL     ACCESS: 1346250309  HIT: 1342476782  MISS:    3773527
L1I LOAD      ACCESS: 1346250309  HIT: 1342476782  MISS:    3773527
L1I RFO       ACCESS:          0  HIT:          0  MISS:          0
L1I PREFETCH  ACCESS:          0  HIT:          0  MISS:          0
L1I WRITEBACK ACCESS:          0  HIT:          0  MISS:          0
L2C TOTAL     ACCESS:   18157741  HIT:   12304252  MISS:    5853489
L2C LOAD      ACCESS:   11829686  HIT:    7531342  MISS:    4298344
L2C RFO       ACCESS:    2952354  HIT:    1417252  MISS:    1535102
L2C PREFETCH  ACCESS:          0  HIT:          0  MISS:          0
L2C WRITEBACK ACCESS:    3375701  HIT:    3355658  MISS:      20043
LLC TOTAL     ACCESS:    7659095  HIT:    2822297  MISS:    4836798
LLC LOAD      ACCESS:    4298338  HIT:    1040726  MISS:    3257612
LLC RFO       ACCESS:    1535077  HIT:      37704  MISS:    1497373
LLC PREFETCH  ACCESS:          0  HIT:          0  MISS:          0
LLC WRITEBACK ACCESS:    1825680  HIT:    1743867  MISS:      81813

CPU 3 cumulative IPC: 0.337154 instructions: 1458935044 cycles: 4327211660
L1D TOTAL     ACCESS:  486067232  HIT:  265440590  MISS:  220626642
L1D LOAD      ACCESS:  401898455  HIT:  187895864  MISS:  214002591
L1D RFO       ACCESS:   84168777  HIT:   77544726  MISS:    6624051
L1D PREFETCH  ACCESS:          0  HIT:          0  MISS:          0
L1D WRITEBACK ACCESS:          0  HIT:          0  MISS:          0
L1I TOTAL     ACCESS:  526002213  HIT:  526002065  MISS:        148
L1I LOAD      ACCESS:  526002213  HIT:  526002065  MISS:        148
L1I RFO       ACCESS:          0  HIT:          0  MISS:          0
L1I PREFETCH  ACCESS:          0  HIT:          0  MISS:          0
L1I WRITEBACK ACCESS:          0  HIT:          0  MISS:          0
L2C TOTAL     ACCESS:  228934954  HIT:   11306828  MISS:  217628126
L2C LOAD      ACCESS:  214002705  HIT:    2894499  MISS:  211108206
L2C RFO       ACCESS:    6624042  HIT:     118091  MISS:    6505951
L2C PREFETCH  ACCESS:          0  HIT:          0  MISS:          0
L2C WRITEBACK ACCESS:    8308207  HIT:    8294238  MISS:      13969
LLC TOTAL     ACCESS:  225769709  HIT:  206019264  MISS:   19750445
LLC LOAD      ACCESS:  211108204  HIT:  197646667  MISS:   13461537
LLC RFO       ACCESS:    6505933  HIT:     219022  MISS:    6286911
LLC PREFETCH  ACCESS:          0  HIT:          0  MISS:          0
LLC WRITEBACK ACCESS:    8155572  HIT:    8153575  MISS:       1997

Region of Interest Statistics

CPU 0 cumulative IPC: 0.394129 instructions: 1000000000 cycles: 2537243734
L1D TOTAL     ACCESS:  563591810  HIT:  542866393  MISS:   20725417
L1D LOAD      ACCESS:  499247429  HIT:  478522335  MISS:   20725094
L1D RFO       ACCESS:   64344381  HIT:   64344058  MISS:        323
L1D PREFETCH  ACCESS:          0  HIT:          0  MISS:          0
L1D WRITEBACK ACCESS:          0  HIT:          0  MISS:          0
L1D PREFETCH  REQUESTED:          0  ISSUED:          0  USEFUL:          0  USELESS:          0
L1I TOTAL     ACCESS:  306704977  HIT:  306704643  MISS:        334
L1I LOAD      ACCESS:  306704977  HIT:  306704643  MISS:        334
L1I RFO       ACCESS:          0  HIT:          0  MISS:          0
L1I PREFETCH  ACCESS:          0  HIT:          0  MISS:          0
L1I WRITEBACK ACCESS:          0  HIT:          0  MISS:          0
L1I PREFETCH  REQUESTED:          0  ISSUED:          0  USEFUL:          0  USELESS:          0
L2C TOTAL     ACCESS:   29523186  HIT:   12023999  MISS:   17499187
L2C LOAD      ACCESS:   20725424  HIT:    3226277  MISS:   17499147
L2C RFO       ACCESS:        317  HIT:        293  MISS:         24
L2C PREFETCH  ACCESS:          0  HIT:          0  MISS:          0
L2C WRITEBACK ACCESS:    8797445  HIT:    8797429  MISS:         16
L2C PREFETCH  REQUESTED:          0  ISSUED:          0  USEFUL:          0  USELESS:          0
LLC TOTAL     ACCESS:   26292745  HIT:   10496922  MISS:   15795823
LLC LOAD      ACCESS:   17499147  HIT:    1703542  MISS:   15795605
LLC RFO       ACCESS:         24  HIT:         14  MISS:         10
LLC PREFETCH  ACCESS:          0  HIT:          0  MISS:          0
LLC WRITEBACK ACCESS:    8793574  HIT:    8793366  MISS:        208
LLC PREFETCH  REQUESTED:          0  ISSUED:          0  USEFUL:          0  USELESS:          0
Major fault: 0 Minor fault: 941584

CPU 1 cumulative IPC: 0.231096 instructions: 1000000000 cycles: 4327211660
L1D TOTAL     ACCESS:  343756378  HIT:  272349197  MISS:   71407181
L1D LOAD      ACCESS:  260329899  HIT:  192093339  MISS:   68236560
L1D RFO       ACCESS:   83426479  HIT:   80255858  MISS:    3170621
L1D PREFETCH  ACCESS:          0  HIT:          0  MISS:          0
L1D WRITEBACK ACCESS:          0  HIT:          0  MISS:          0
L1D PREFETCH  REQUESTED:          0  ISSUED:          0  USEFUL:          0  USELESS:          0
L1I TOTAL     ACCESS:  234339867  HIT:  234339867  MISS:          0
L1I LOAD      ACCESS:  234339867  HIT:  234339867  MISS:          0
L1I RFO       ACCESS:          0  HIT:          0  MISS:          0
L1I PREFETCH  ACCESS:          0  HIT:          0  MISS:          0
L1I WRITEBACK ACCESS:          0  HIT:          0  MISS:          0
L1I PREFETCH  REQUESTED:          0  ISSUED:          0  USEFUL:          0  USELESS:          0
L2C TOTAL     ACCESS:   76534414  HIT:   14609489  MISS:   61924925
L2C LOAD      ACCESS:   68236258  HIT:    8903672  MISS:   59332586
L2C RFO       ACCESS:    3170609  HIT:     584438  MISS:    2586171
L2C PREFETCH  ACCESS:          0  HIT:          0  MISS:          0
L2C WRITEBACK ACCESS:    5127547  HIT:    5121379  MISS:       6168
L2C PREFETCH  REQUESTED:          0  ISSUED:          0  USEFUL:          0  USELESS:          0
LLC TOTAL     ACCESS:   66204518  HIT:   40623159  MISS:   25581359
LLC LOAD      ACCESS:   59332558  HIT:   33775005  MISS:   25557553
LLC RFO       ACCESS:    2586165  HIT:    2563134  MISS:      23031
LLC PREFETCH  ACCESS:          0  HIT:          0  MISS:          0
LLC WRITEBACK ACCESS:    4285795  HIT:    4285020  MISS:        775
LLC PREFETCH  REQUESTED:          0  ISSUED:          0  USEFUL:          0  USELESS:          0
Major fault: 0 Minor fault: 410408

CPU 2 cumulative IPC: 1.26442 instructions: 1000000002 cycles: 790874708
L1D TOTAL     ACCESS:  160864784  HIT:  158019089  MISS:    2845695
L1D LOAD      ACCESS:   89341542  HIT:   87325563  MISS:    2015979
L1D RFO       ACCESS:   71523242  HIT:   70693526  MISS:     829716
L1D PREFETCH  ACCESS:          0  HIT:          0  MISS:          0
L1D WRITEBACK ACCESS:          0  HIT:          0  MISS:          0
L1D PREFETCH  REQUESTED:          0  ISSUED:          0  USEFUL:          0  USELESS:          0
L1I TOTAL     ACCESS:  239033107  HIT:  237907424  MISS:    1125683
L1I LOAD      ACCESS:  239033107  HIT:  237907424  MISS:    1125683
L1I RFO       ACCESS:          0  HIT:          0  MISS:          0
L1I PREFETCH  ACCESS:          0  HIT:          0  MISS:          0
L1I WRITEBACK ACCESS:          0  HIT:          0  MISS:          0
L1I PREFETCH  REQUESTED:          0  ISSUED:          0  USEFUL:          0  USELESS:          0
L2C TOTAL     ACCESS:    4920748  HIT:    3421696  MISS:    1499052
L2C LOAD      ACCESS:    3141632  HIT:    2086324  MISS:    1055308
L2C RFO       ACCESS:     827480  HIT:     389282  MISS:     438198
L2C PREFETCH  ACCESS:          0  HIT:          0  MISS:          0
L2C WRITEBACK ACCESS:     951636  HIT:     946090  MISS:       5546
L2C PREFETCH  REQUESTED:          0  ISSUED:          0  USEFUL:          0  USELESS:          0
LLC TOTAL     ACCESS:    2016528  HIT:     801299  MISS:    1215229
LLC LOAD      ACCESS:    1055308  HIT:     300072  MISS:     755236
LLC RFO       ACCESS:     438189  HIT:      11270  MISS:     426919
LLC PREFETCH  ACCESS:          0  HIT:          0  MISS:          0
LLC WRITEBACK ACCESS:     523031  HIT:     489957  MISS:      33074
LLC PREFETCH  REQUESTED:          0  ISSUED:          0  USEFUL:          0  USELESS:          0
Major fault: 0 Minor fault: 12491

CPU 3 cumulative IPC: 0.328828 instructions: 1000000000 cycles: 3041108063
L1D TOTAL     ACCESS:  318753834  HIT:  166891297  MISS:  151862537
L1D LOAD      ACCESS:  267734910  HIT:  121415618  MISS:  146319292
L1D RFO       ACCESS:   51018924  HIT:   45475679  MISS:    5543245
L1D PREFETCH  ACCESS:          0  HIT:          0  MISS:          0
L1D WRITEBACK ACCESS:          0  HIT:          0  MISS:          0
L1D PREFETCH  REQUESTED:          0  ISSUED:          0  USEFUL:          0  USELESS:          0
L1I TOTAL     ACCESS:  356257364  HIT:  356257216  MISS:        148
L1I LOAD      ACCESS:  356257364  HIT:  356257216  MISS:        148
L1I RFO       ACCESS:          0  HIT:          0  MISS:          0
L1I PREFETCH  ACCESS:          0  HIT:          0  MISS:          0
L1I WRITEBACK ACCESS:          0  HIT:          0  MISS:          0
L1I PREFETCH  REQUESTED:          0  ISSUED:          0  USEFUL:          0  USELESS:          0
L2C TOTAL     ACCESS:  158547401  HIT:    9674484  MISS:  148872917
L2C LOAD      ACCESS:  146319410  HIT:    2884470  MISS:  143434940
L2C RFO       ACCESS:    5543243  HIT:     117027  MISS:    5426216
L2C PREFETCH  ACCESS:          0  HIT:          0  MISS:          0
L2C WRITEBACK ACCESS:    6684748  HIT:    6672987  MISS:      11761
L2C PREFETCH  REQUESTED:          0  ISSUED:          0  USEFUL:          0  USELESS:          0
LLC TOTAL     ACCESS:  155398421  HIT:  137591511  MISS:   17806910
LLC LOAD      ACCESS:  143434938  HIT:  130845249  MISS:   12589689
LLC RFO       ACCESS:    5426198  HIT:     210754  MISS:    5215444
LLC PREFETCH  ACCESS:          0  HIT:          0  MISS:          0
LLC WRITEBACK ACCESS:    6537285  HIT:    6535508  MISS:       1777
LLC PREFETCH  REQUESTED:          0  ISSUED:          0  USEFUL:          0  USELESS:          0
Major fault: 0 Minor fault: 289467

DRAM Statistics
 CHANNEL 0
 RQ ROW_BUFFER_HIT:   20326565  ROW_BUFFER_MISS:   19661535
 DBUS_CONGESTED:   47468157
 WQ ROW_BUFFER_HIT:    1368169  ROW_BUFFER_MISS:   10346962  FULL:          0

 CHANNEL 1
 RQ ROW_BUFFER_HIT:   20304466  ROW_BUFFER_MISS:   19662535
 DBUS_CONGESTED:   47468157
 WQ ROW_BUFFER_HIT:    1369277  ROW_BUFFER_MISS:   10342582  FULL:          0

 AVG_CONGESTED_CYCLE: 12
