
*** ChampSim Multicore Out-of-Order Simulator ***

Warmup Instructions: 200000000
Simulation Instructions: 1000000000
Number of CPUs: 4
LLC sets: 8192
LLC ways: 16
Off-chip DRAM Size: 8192 MB Channels: 2 Width: 64-bit Data Rate: 1600 MT/s

CPU 0 runs /scratch/user/djimenez/champsim-traces/speccpu2017/xz/620.omnetpp_s/620.omnetpp_s-141B.champsimtrace.xz
CPU 1 runs /scratch/user/djimenez/champsim-traces/speccpu2017/xz/648.exchange2_s/648.exchange2_s-387B.champsimtrace.xz
CPU 2 runs /scratch/user/djimenez/champsim-traces/speccpu2017/xz/649.fotonik3d_s/649.fotonik3d_s-1176B.champsimtrace.xz
CPU 3 runs /scratch/user/djimenez/champsim-traces/speccpu2017/xz/623.xalancbmk_s/623.xalancbmk_s-325B.champsimtrace.xz
Heartbeat CPU 1 instructions: 10000000 cycles: 4364043 heartbeat IPC: 2.29145 cumulative IPC: 2.29145 (Simulation time: 0 hr 2 min 14 sec) 
Heartbeat CPU 2 instructions: 10000000 cycles: 4453001 heartbeat IPC: 2.24568 cumulative IPC: 2.24568 (Simulation time: 0 hr 2 min 17 sec) 
Heartbeat CPU 3 instructions: 10000000 cycles: 6117602 heartbeat IPC: 1.63463 cumulative IPC: 1.63463 (Simulation time: 0 hr 3 min 7 sec) 
Heartbeat CPU 0 instructions: 10000000 cycles: 7399941 heartbeat IPC: 1.35136 cumulative IPC: 1.35136 (Simulation time: 0 hr 3 min 47 sec) 
Heartbeat CPU 1 instructions: 20000000 cycles: 8782903 heartbeat IPC: 2.26303 cumulative IPC: 2.27715 (Simulation time: 0 hr 4 min 29 sec) 
Heartbeat CPU 2 instructions: 20000000 cycles: 8905886 heartbeat IPC: 2.24574 cumulative IPC: 2.24571 (Simulation time: 0 hr 4 min 32 sec) 
Heartbeat CPU 3 instructions: 20000000 cycles: 12321314 heartbeat IPC: 1.61194 cumulative IPC: 1.6232 (Simulation time: 0 hr 6 min 16 sec) 
Heartbeat CPU 1 instructions: 30000000 cycles: 13182937 heartbeat IPC: 2.27271 cumulative IPC: 2.27567 (Simulation time: 0 hr 6 min 42 sec) 
Heartbeat CPU 2 instructions: 30000002 cycles: 13359160 heartbeat IPC: 2.24554 cumulative IPC: 2.24565 (Simulation time: 0 hr 6 min 48 sec) 
Heartbeat CPU 0 instructions: 20000000 cycles: 14822538 heartbeat IPC: 1.34724 cumulative IPC: 1.3493 (Simulation time: 0 hr 7 min 32 sec) 
Heartbeat CPU 1 instructions: 40000000 cycles: 17589332 heartbeat IPC: 2.26943 cumulative IPC: 2.27411 (Simulation time: 0 hr 8 min 56 sec) 
Heartbeat CPU 2 instructions: 40000000 cycles: 17811905 heartbeat IPC: 2.24581 cumulative IPC: 2.24569 (Simulation time: 0 hr 9 min 3 sec) 
Heartbeat CPU 3 instructions: 30000001 cycles: 18671101 heartbeat IPC: 1.57486 cumulative IPC: 1.60676 (Simulation time: 0 hr 9 min 28 sec) 
Heartbeat CPU 1 instructions: 50000001 cycles: 21994415 heartbeat IPC: 2.27011 cumulative IPC: 2.2733 (Simulation time: 0 hr 11 min 9 sec) 
Heartbeat CPU 2 instructions: 50000002 cycles: 22264834 heartbeat IPC: 2.24571 cumulative IPC: 2.24569 (Simulation time: 0 hr 11 min 17 sec) 
Heartbeat CPU 0 instructions: 30000003 cycles: 22268697 heartbeat IPC: 1.34297 cumulative IPC: 1.34718 (Simulation time: 0 hr 11 min 17 sec) 
Heartbeat CPU 3 instructions: 40000000 cycles: 24897537 heartbeat IPC: 1.60606 cumulative IPC: 1.60658 (Simulation time: 0 hr 12 min 36 sec) 
Heartbeat CPU 1 instructions: 60000000 cycles: 26449587 heartbeat IPC: 2.24458 cumulative IPC: 2.26847 (Simulation time: 0 hr 13 min 23 sec) 
Heartbeat CPU 2 instructions: 60000000 cycles: 26717405 heartbeat IPC: 2.24589 cumulative IPC: 2.24573 (Simulation time: 0 hr 13 min 31 sec) 
Heartbeat CPU 0 instructions: 40000000 cycles: 29672355 heartbeat IPC: 1.35068 cumulative IPC: 1.34806 (Simulation time: 0 hr 15 min 1 sec) 
Heartbeat CPU 3 instructions: 50000001 cycles: 30063515 heartbeat IPC: 1.93574 cumulative IPC: 1.66315 (Simulation time: 0 hr 15 min 13 sec) 
Heartbeat CPU 1 instructions: 70000003 cycles: 30847611 heartbeat IPC: 2.27375 cumulative IPC: 2.26922 (Simulation time: 0 hr 15 min 55 sec) 
Heartbeat CPU 2 instructions: 70000002 cycles: 31169829 heartbeat IPC: 2.24597 cumulative IPC: 2.24576 (Simulation time: 0 hr 16 min 16 sec) 
Heartbeat CPU 3 instructions: 60000000 cycles: 34939879 heartbeat IPC: 2.05071 cumulative IPC: 1.71724 (Simulation time: 0 hr 18 min 40 sec) 
Heartbeat CPU 1 instructions: 80000000 cycles: 35284022 heartbeat IPC: 2.25407 cumulative IPC: 2.26732 (Simulation time: 0 hr 18 min 51 sec) 
Heartbeat CPU 2 instructions: 80000000 cycles: 35622009 heartbeat IPC: 2.24609 cumulative IPC: 2.2458 (Simulation time: 0 hr 19 min 2 sec) 
Heartbeat CPU 0 instructions: 50000001 cycles: 37123689 heartbeat IPC: 1.34204 cumulative IPC: 1.34685 (Simulation time: 0 hr 20 min 3 sec) 
Heartbeat CPU 1 instructions: 90000002 cycles: 39670696 heartbeat IPC: 2.27963 cumulative IPC: 2.26868 (Simulation time: 0 hr 21 min 24 sec) 
Heartbeat CPU 2 instructions: 90000002 cycles: 40074904 heartbeat IPC: 2.24573 cumulative IPC: 2.24579 (Simulation time: 0 hr 21 min 37 sec) 
Heartbeat CPU 3 instructions: 70000001 cycles: 40969242 heartbeat IPC: 1.65855 cumulative IPC: 1.7086 (Simulation time: 0 hr 22 min 4 sec) 
Heartbeat CPU 1 instructions: 100000000 cycles: 44083268 heartbeat IPC: 2.26625 cumulative IPC: 2.26843 (Simulation time: 0 hr 23 min 39 sec) 
Heartbeat CPU 0 instructions: 60000000 cycles: 44505380 heartbeat IPC: 1.3547 cumulative IPC: 1.34815 (Simulation time: 0 hr 23 min 52 sec) 
Heartbeat CPU 2 instructions: 100000000 cycles: 44527793 heartbeat IPC: 2.24573 cumulative IPC: 2.24579 (Simulation time: 0 hr 23 min 53 sec) 
Heartbeat CPU 3 instructions: 80000000 cycles: 47365257 heartbeat IPC: 1.56347 cumulative IPC: 1.689 (Simulation time: 0 hr 25 min 19 sec) 
Heartbeat CPU 1 instructions: 110000001 cycles: 48504798 heartbeat IPC: 2.26166 cumulative IPC: 2.26782 (Simulation time: 0 hr 25 min 53 sec) 
Heartbeat CPU 2 instructions: 110000000 cycles: 48980951 heartbeat IPC: 2.2456 cumulative IPC: 2.24577 (Simulation time: 0 hr 26 min 8 sec) 
Heartbeat CPU 0 instructions: 70000000 cycles: 51943543 heartbeat IPC: 1.34442 cumulative IPC: 1.34762 (Simulation time: 0 hr 27 min 38 sec) 
Heartbeat CPU 1 instructions: 120000000 cycles: 52890772 heartbeat IPC: 2.27999 cumulative IPC: 2.26883 (Simulation time: 0 hr 28 min 7 sec) 
Heartbeat CPU 2 instructions: 120000000 cycles: 53432908 heartbeat IPC: 2.2462 cumulative IPC: 2.24581 (Simulation time: 0 hr 28 min 23 sec) 
Heartbeat CPU 3 instructions: 90000002 cycles: 53970326 heartbeat IPC: 1.51399 cumulative IPC: 1.66758 (Simulation time: 0 hr 28 min 39 sec) 
Heartbeat CPU 1 instructions: 130000002 cycles: 57287587 heartbeat IPC: 2.27437 cumulative IPC: 2.26925 (Simulation time: 0 hr 30 min 20 sec) 
Heartbeat CPU 2 instructions: 130000001 cycles: 57884642 heartbeat IPC: 2.24632 cumulative IPC: 2.24585 (Simulation time: 0 hr 30 min 38 sec) 
Heartbeat CPU 0 instructions: 80000000 cycles: 59359983 heartbeat IPC: 1.34836 cumulative IPC: 1.34771 (Simulation time: 0 hr 31 min 22 sec) 
Heartbeat CPU 3 instructions: 100000000 cycles: 60274634 heartbeat IPC: 1.58622 cumulative IPC: 1.65907 (Simulation time: 0 hr 31 min 50 sec) 
Heartbeat CPU 1 instructions: 140000000 cycles: 61704654 heartbeat IPC: 2.26395 cumulative IPC: 2.26887 (Simulation time: 0 hr 32 min 33 sec) 
Heartbeat CPU 2 instructions: 140000000 cycles: 62336711 heartbeat IPC: 2.24615 cumulative IPC: 2.24587 (Simulation time: 0 hr 32 min 57 sec) 
Heartbeat CPU 1 instructions: 150000000 cycles: 66108276 heartbeat IPC: 2.27086 cumulative IPC: 2.269 (Simulation time: 0 hr 34 min 57 sec) 
Heartbeat CPU 3 instructions: 110000000 cycles: 66349616 heartbeat IPC: 1.6461 cumulative IPC: 1.65788 (Simulation time: 0 hr 35 min 5 sec) 
Heartbeat CPU 2 instructions: 150000001 cycles: 66789646 heartbeat IPC: 2.24571 cumulative IPC: 2.24586 (Simulation time: 0 hr 35 min 18 sec) 
Heartbeat CPU 0 instructions: 90000002 cycles: 66802857 heartbeat IPC: 1.34357 cumulative IPC: 1.34725 (Simulation time: 0 hr 35 min 19 sec) 
Heartbeat CPU 1 instructions: 160000000 cycles: 70466962 heartbeat IPC: 2.29427 cumulative IPC: 2.27057 (Simulation time: 0 hr 37 min 20 sec) 
Heartbeat CPU 2 instructions: 160000000 cycles: 71242387 heartbeat IPC: 2.24581 cumulative IPC: 2.24585 (Simulation time: 0 hr 37 min 44 sec) 
Heartbeat CPU 3 instructions: 120000000 cycles: 71247923 heartbeat IPC: 2.04152 cumulative IPC: 1.68426 (Simulation time: 0 hr 37 min 44 sec) 
Heartbeat CPU 0 instructions: 100000000 cycles: 74227211 heartbeat IPC: 1.34692 cumulative IPC: 1.34721 (Simulation time: 0 hr 39 min 31 sec) 
Heartbeat CPU 1 instructions: 170000000 cycles: 74862893 heartbeat IPC: 2.27483 cumulative IPC: 2.27082 (Simulation time: 0 hr 39 min 51 sec) 
Heartbeat CPU 2 instructions: 170000001 cycles: 75695170 heartbeat IPC: 2.24579 cumulative IPC: 2.24585 (Simulation time: 0 hr 40 min 21 sec) 
Heartbeat CPU 3 instructions: 130000003 cycles: 76336929 heartbeat IPC: 1.96502 cumulative IPC: 1.70298 (Simulation time: 0 hr 40 min 40 sec) 
Heartbeat CPU 1 instructions: 180000000 cycles: 79274236 heartbeat IPC: 2.26688 cumulative IPC: 2.2706 (Simulation time: 0 hr 42 min 9 sec) 
Heartbeat CPU 2 instructions: 180000000 cycles: 80147268 heartbeat IPC: 2.24613 cumulative IPC: 2.24587 (Simulation time: 0 hr 42 min 36 sec) 
Heartbeat CPU 0 instructions: 110000002 cycles: 81652497 heartbeat IPC: 1.34675 cumulative IPC: 1.34717 (Simulation time: 0 hr 43 min 21 sec) 
Heartbeat CPU 3 instructions: 140000000 cycles: 82908880 heartbeat IPC: 1.52162 cumulative IPC: 1.6886 (Simulation time: 0 hr 43 min 59 sec) 
Heartbeat CPU 1 instructions: 190000002 cycles: 83689678 heartbeat IPC: 2.26478 cumulative IPC: 2.27029 (Simulation time: 0 hr 44 min 23 sec) 
Heartbeat CPU 2 instructions: 190000003 cycles: 84598937 heartbeat IPC: 2.24635 cumulative IPC: 2.24589 (Simulation time: 0 hr 44 min 50 sec) 
Heartbeat CPU 1 instructions: 200000000 cycles: 88081115 heartbeat IPC: 2.27716 cumulative IPC: 2.27063 (Simulation time: 0 hr 46 min 36 sec) 
Heartbeat CPU 2 instructions: 200000000 cycles: 89051334 heartbeat IPC: 2.24598 cumulative IPC: 2.2459 (Simulation time: 0 hr 47 min 6 sec) 
Heartbeat CPU 0 instructions: 120000000 cycles: 89075485 heartbeat IPC: 1.34717 cumulative IPC: 1.34717 (Simulation time: 0 hr 47 min 6 sec) 
Heartbeat CPU 3 instructions: 150000000 cycles: 89190904 heartbeat IPC: 1.59184 cumulative IPC: 1.68179 (Simulation time: 0 hr 47 min 10 sec) 
Heartbeat CPU 1 instructions: 210000000 cycles: 92446023 heartbeat IPC: 2.291 cumulative IPC: 0.108171 (Simulation time: 0 hr 48 min 50 sec) 
Heartbeat CPU 2 instructions: 210000001 cycles: 93503811 heartbeat IPC: 2.24594 cumulative IPC: 0.106948 (Simulation time: 0 hr 49 min 23 sec) 
Heartbeat CPU 3 instructions: 160000000 cycles: 94423756 heartbeat IPC: 1.911 cumulative IPC: 1.69449 (Simulation time: 0 hr 49 min 52 sec) 
Heartbeat CPU 0 instructions: 130000000 cycles: 96465451 heartbeat IPC: 1.35319 cumulative IPC: 1.34763 (Simulation time: 0 hr 50 min 58 sec) 
Heartbeat CPU 1 instructions: 220000000 cycles: 96784139 heartbeat IPC: 2.30515 cumulative IPC: 0.206645 (Simulation time: 0 hr 51 min 8 sec) 
Heartbeat CPU 2 instructions: 220000000 cycles: 97956205 heartbeat IPC: 2.24598 cumulative IPC: 0.204173 (Simulation time: 0 hr 51 min 43 sec) 
Heartbeat CPU 3 instructions: 170000000 cycles: 99886802 heartbeat IPC: 1.83048 cumulative IPC: 1.70193 (Simulation time: 0 hr 52 min 42 sec) 
Heartbeat CPU 1 instructions: 230000002 cycles: 101143623 heartbeat IPC: 2.29385 cumulative IPC: 0.296608 (Simulation time: 0 hr 53 min 20 sec) 
Heartbeat CPU 2 instructions: 230000003 cycles: 102408625 heartbeat IPC: 2.24597 cumulative IPC: 0.292944 (Simulation time: 0 hr 53 min 58 sec) 
Heartbeat CPU 0 instructions: 140000000 cycles: 103886415 heartbeat IPC: 1.34753 cumulative IPC: 1.34763 (Simulation time: 0 hr 54 min 43 sec) 
Heartbeat CPU 1 instructions: 240000000 cycles: 105401186 heartbeat IPC: 2.34876 cumulative IPC: 0.379502 (Simulation time: 0 hr 55 min 30 sec) 
Heartbeat CPU 3 instructions: 180000000 cycles: 106353182 heartbeat IPC: 1.54646 cumulative IPC: 1.69247 (Simulation time: 0 hr 55 min 58 sec) 
Heartbeat CPU 2 instructions: 240000000 cycles: 106860649 heartbeat IPC: 2.24617 cumulative IPC: 0.374319 (Simulation time: 0 hr 56 min 13 sec) 
Heartbeat CPU 1 instructions: 250000003 cycles: 109810673 heartbeat IPC: 2.26784 cumulative IPC: 0.455329 (Simulation time: 0 hr 57 min 45 sec) 
Heartbeat CPU 2 instructions: 250000002 cycles: 111312515 heartbeat IPC: 2.24625 cumulative IPC: 0.449186 (Simulation time: 0 hr 58 min 30 sec) 
Heartbeat CPU 0 instructions: 150000001 cycles: 111321658 heartbeat IPC: 1.34495 cumulative IPC: 1.34745 (Simulation time: 0 hr 58 min 30 sec) 
Heartbeat CPU 3 instructions: 190000001 cycles: 111697572 heartbeat IPC: 1.87112 cumulative IPC: 1.70102 (Simulation time: 0 hr 58 min 42 sec) 
Heartbeat CPU 1 instructions: 260000000 cycles: 114255236 heartbeat IPC: 2.24994 cumulative IPC: 0.52514 (Simulation time: 0 hr 59 min 58 sec) 
Heartbeat CPU 2 instructions: 260000000 cycles: 115764578 heartbeat IPC: 2.24615 cumulative IPC: 0.518293 (Simulation time: 1 hr 0 min 43 sec) 
Heartbeat CPU 3 instructions: 200000000 cycles: 118233584 heartbeat IPC: 1.52998 cumulative IPC: 1.69157 (Simulation time: 1 hr 1 min 57 sec) 
Heartbeat CPU 1 instructions: 270000000 cycles: 118664371 heartbeat IPC: 2.26802 cumulative IPC: 0.589899 (Simulation time: 1 hr 2 min 10 sec) 
Heartbeat CPU 0 instructions: 160000000 cycles: 118751664 heartbeat IPC: 1.34589 cumulative IPC: 1.34735 (Simulation time: 1 hr 2 min 13 sec) 
Heartbeat CPU 2 instructions: 270000001 cycles: 120337964 heartbeat IPC: 2.18656 cumulative IPC: 0.581695 (Simulation time: 1 hr 2 min 58 sec) 
Heartbeat CPU 1 instructions: 280000000 cycles: 123035153 heartbeat IPC: 2.28792 cumulative IPC: 0.650221 (Simulation time: 1 hr 4 min 16 sec) 
Heartbeat CPU 3 instructions: 210000003 cycles: 124524032 heartbeat IPC: 1.58971 cumulative IPC: 0.0803058 (Simulation time: 1 hr 5 min 0 sec) 
Heartbeat CPU 2 instructions: 280000000 cycles: 124937001 heartbeat IPC: 2.17437 cumulative IPC: 0.640323 (Simulation time: 1 hr 5 min 12 sec) 
Heartbeat CPU 0 instructions: 170000003 cycles: 126153556 heartbeat IPC: 1.35101 cumulative IPC: 1.34756 (Simulation time: 1 hr 5 min 49 sec) 
Heartbeat CPU 1 instructions: 290000002 cycles: 127443446 heartbeat IPC: 2.26845 cumulative IPC: 0.706196 (Simulation time: 1 hr 6 min 27 sec) 
Heartbeat CPU 2 instructions: 290000003 cycles: 129389313 heartbeat IPC: 2.24602 cumulative IPC: 0.695575 (Simulation time: 1 hr 7 min 33 sec) 
Heartbeat CPU 3 instructions: 220000000 cycles: 130728441 heartbeat IPC: 1.61176 cumulative IPC: 0.152989 (Simulation time: 1 hr 8 min 18 sec) 
Heartbeat CPU 1 instructions: 300000000 cycles: 131853052 heartbeat IPC: 2.26778 cumulative IPC: 0.75842 (Simulation time: 1 hr 8 min 52 sec) 
Heartbeat CPU 0 instructions: 180000000 cycles: 133574715 heartbeat IPC: 1.3475 cumulative IPC: 1.34756 (Simulation time: 1 hr 9 min 43 sec) 
Heartbeat CPU 2 instructions: 300000000 cycles: 133841866 heartbeat IPC: 2.2459 cumulative IPC: 0.74715 (Simulation time: 1 hr 9 min 51 sec) 
Heartbeat CPU 3 instructions: 230000001 cycles: 136128860 heartbeat IPC: 1.85171 cumulative IPC: 0.220379 (Simulation time: 1 hr 11 min 0 sec) 
Heartbeat CPU 1 instructions: 310000002 cycles: 136283379 heartbeat IPC: 2.25717 cumulative IPC: 0.807142 (Simulation time: 1 hr 11 min 5 sec) 
Heartbeat CPU 2 instructions: 310000001 cycles: 138294415 heartbeat IPC: 2.2459 cumulative IPC: 0.795404 (Simulation time: 1 hr 12 min 6 sec) 
Heartbeat CPU 1 instructions: 320000000 cycles: 140550148 heartbeat IPC: 2.34369 cumulative IPC: 0.853788 (Simulation time: 1 hr 13 min 18 sec) 
Heartbeat CPU 0 instructions: 190000003 cycles: 140992287 heartbeat IPC: 1.34815 cumulative IPC: 1.34759 (Simulation time: 1 hr 13 min 32 sec) 
Heartbeat CPU 3 instructions: 240000000 cycles: 141062629 heartbeat IPC: 2.02685 cumulative IPC: 0.283562 (Simulation time: 1 hr 13 min 34 sec) 
Heartbeat CPU 2 instructions: 320000000 cycles: 142746909 heartbeat IPC: 2.24593 cumulative IPC: 0.840649 (Simulation time: 1 hr 14 min 26 sec) 
Heartbeat CPU 1 instructions: 330000001 cycles: 144886936 heartbeat IPC: 2.30585 cumulative IPC: 0.897251 (Simulation time: 1 hr 15 min 39 sec) 
Heartbeat CPU 3 instructions: 250000001 cycles: 146091362 heartbeat IPC: 1.98857 cumulative IPC: 0.342252 (Simulation time: 1 hr 16 min 16 sec) 
Heartbeat CPU 2 instructions: 330000003 cycles: 147198998 heartbeat IPC: 2.24614 cumulative IPC: 0.883158 (Simulation time: 1 hr 16 min 49 sec) 
Heartbeat CPU 0 instructions: 200000000 cycles: 148426652 heartbeat IPC: 1.3451 cumulative IPC: 1.34747 (Simulation time: 1 hr 17 min 26 sec) 

Warmup complete CPU 0 instructions: 200000003 cycles: 148426653 (Simulation time: 1 hr 17 min 26 sec) 
Warmup complete CPU 1 instructions: 337982930 cycles: 148426652 (Simulation time: 1 hr 17 min 26 sec) 
Warmup complete CPU 2 instructions: 332757851 cycles: 148426652 (Simulation time: 1 hr 17 min 26 sec) 
Warmup complete CPU 3 instructions: 253464677 cycles: 148426652 (Simulation time: 1 hr 17 min 26 sec) 

Heartbeat CPU 1 instructions: 340000000 cycles: 150467968 heartbeat IPC: 1.79178 cumulative IPC: 0.988122 (Simulation time: 1 hr 17 min 51 sec) 
Heartbeat CPU 1 instructions: 350000003 cycles: 158622241 heartbeat IPC: 1.22635 cumulative IPC: 1.17865 (Simulation time: 1 hr 19 min 29 sec) 
Heartbeat CPU 2 instructions: 340000000 cycles: 164745648 heartbeat IPC: 0.569909 cumulative IPC: 0.443786 (Simulation time: 1 hr 20 min 44 sec) 
Heartbeat CPU 3 instructions: 260000000 cycles: 166595466 heartbeat IPC: 0.487707 cumulative IPC: 0.3597 (Simulation time: 1 hr 21 min 5 sec) 
Heartbeat CPU 1 instructions: 360000000 cycles: 166769586 heartbeat IPC: 1.22739 cumulative IPC: 1.2003 (Simulation time: 1 hr 21 min 7 sec) 
Heartbeat CPU 1 instructions: 370000003 cycles: 175432691 heartbeat IPC: 1.15432 cumulative IPC: 1.18555 (Simulation time: 1 hr 22 min 49 sec) 
Heartbeat CPU 1 instructions: 380000000 cycles: 184400439 heartbeat IPC: 1.11511 cumulative IPC: 1.16799 (Simulation time: 1 hr 24 min 37 sec) 
Heartbeat CPU 2 instructions: 350000003 cycles: 187791009 heartbeat IPC: 0.433927 cumulative IPC: 0.438014 (Simulation time: 1 hr 25 min 14 sec) 
Heartbeat CPU 3 instructions: 270000001 cycles: 191299208 heartbeat IPC: 0.404797 cumulative IPC: 0.385686 (Simulation time: 1 hr 25 min 54 sec) 
Heartbeat CPU 0 instructions: 210000003 cycles: 192986712 heartbeat IPC: 0.224416 cumulative IPC: 0.224416 (Simulation time: 1 hr 26 min 14 sec) 
Heartbeat CPU 1 instructions: 390000002 cycles: 194236114 heartbeat IPC: 1.01671 cumulative IPC: 1.13551 (Simulation time: 1 hr 26 min 30 sec) 
Heartbeat CPU 1 instructions: 400000000 cycles: 203263143 heartbeat IPC: 1.10778 cumulative IPC: 1.13095 (Simulation time: 1 hr 28 min 15 sec) 
Heartbeat CPU 2 instructions: 360000000 cycles: 210530842 heartbeat IPC: 0.439757 cumulative IPC: 0.438652 (Simulation time: 1 hr 29 min 41 sec) 
Heartbeat CPU 1 instructions: 410000000 cycles: 211578791 heartbeat IPC: 1.20255 cumulative IPC: 1.14037 (Simulation time: 1 hr 29 min 55 sec) 
Heartbeat CPU 3 instructions: 280000000 cycles: 218283432 heartbeat IPC: 0.370587 cumulative IPC: 0.379853 (Simulation time: 1 hr 31 min 13 sec) 
Heartbeat CPU 1 instructions: 420000000 cycles: 220061666 heartbeat IPC: 1.17885 cumulative IPC: 1.14493 (Simulation time: 1 hr 31 min 37 sec) 
Heartbeat CPU 1 instructions: 430000002 cycles: 226396871 heartbeat IPC: 1.57848 cumulative IPC: 1.18016 (Simulation time: 1 hr 33 min 6 sec) 
Heartbeat CPU 1 instructions: 440000000 cycles: 232778665 heartbeat IPC: 1.56696 cumulative IPC: 1.20942 (Simulation time: 1 hr 34 min 37 sec) 
Heartbeat CPU 2 instructions: 370000001 cycles: 233600378 heartbeat IPC: 0.433472 cumulative IPC: 0.437249 (Simulation time: 1 hr 34 min 47 sec) 
Heartbeat CPU 0 instructions: 220000000 cycles: 237576834 heartbeat IPC: 0.224265 cumulative IPC: 0.224341 (Simulation time: 1 hr 35 min 39 sec) 
Heartbeat CPU 1 instructions: 450000000 cycles: 239167409 heartbeat IPC: 1.56525 cumulative IPC: 1.23447 (Simulation time: 1 hr 36 min 2 sec) 
Heartbeat CPU 3 instructions: 290000000 cycles: 239995265 heartbeat IPC: 0.460578 cumulative IPC: 0.398994 (Simulation time: 1 hr 36 min 13 sec) 
Heartbeat CPU 1 instructions: 460000000 cycles: 245819760 heartbeat IPC: 1.50323 cumulative IPC: 1.25283 (Simulation time: 1 hr 37 min 35 sec) 
Heartbeat CPU 1 instructions: 470000001 cycles: 255496521 heartbeat IPC: 1.0334 cumulative IPC: 1.233 (Simulation time: 1 hr 39 min 21 sec) 
Heartbeat CPU 2 instructions: 380000000 cycles: 256900720 heartbeat IPC: 0.429178 cumulative IPC: 0.435516 (Simulation time: 1 hr 39 min 36 sec) 
Heartbeat CPU 1 instructions: 480000000 cycles: 263106823 heartbeat IPC: 1.31401 cumulative IPC: 1.23838 (Simulation time: 1 hr 40 min 46 sec) 
Heartbeat CPU 3 instructions: 300000000 cycles: 266882263 heartbeat IPC: 0.371927 cumulative IPC: 0.39285 (Simulation time: 1 hr 41 min 27 sec) 
Heartbeat CPU 1 instructions: 490000001 cycles: 272160958 heartbeat IPC: 1.10447 cumulative IPC: 1.22858 (Simulation time: 1 hr 42 min 26 sec) 
Heartbeat CPU 2 instructions: 390000003 cycles: 280482339 heartbeat IPC: 0.424059 cumulative IPC: 0.43347 (Simulation time: 1 hr 43 min 55 sec) 
Heartbeat CPU 1 instructions: 500000000 cycles: 281623164 heartbeat IPC: 1.05684 cumulative IPC: 1.21638 (Simulation time: 1 hr 44 min 8 sec) 
Heartbeat CPU 0 instructions: 230000001 cycles: 282459030 heartbeat IPC: 0.222806 cumulative IPC: 0.223826 (Simulation time: 1 hr 44 min 17 sec) 
Heartbeat CPU 1 instructions: 510000002 cycles: 288888985 heartbeat IPC: 1.37631 cumulative IPC: 1.22465 (Simulation time: 1 hr 45 min 32 sec) 
Heartbeat CPU 3 instructions: 310000002 cycles: 291262210 heartbeat IPC: 0.410173 cumulative IPC: 0.395807 (Simulation time: 1 hr 45 min 58 sec) 
Heartbeat CPU 1 instructions: 520000000 cycles: 297957461 heartbeat IPC: 1.10272 cumulative IPC: 1.21725 (Simulation time: 1 hr 47 min 11 sec) 
Heartbeat CPU 2 instructions: 400000000 cycles: 303852813 heartbeat IPC: 0.42789 cumulative IPC: 0.432631 (Simulation time: 1 hr 48 min 16 sec) 
Heartbeat CPU 1 instructions: 530000000 cycles: 307359757 heartbeat IPC: 1.06357 cumulative IPC: 1.20816 (Simulation time: 1 hr 48 min 55 sec) 
Heartbeat CPU 3 instructions: 320000000 cycles: 313233492 heartbeat IPC: 0.455139 cumulative IPC: 0.403717 (Simulation time: 1 hr 50 min 6 sec) 
Heartbeat CPU 1 instructions: 540000000 cycles: 316557436 heartbeat IPC: 1.08723 cumulative IPC: 1.20155 (Simulation time: 1 hr 50 min 49 sec) 
Heartbeat CPU 1 instructions: 550000000 cycles: 325570370 heartbeat IPC: 1.10952 cumulative IPC: 1.19686 (Simulation time: 1 hr 52 min 47 sec) 
Heartbeat CPU 2 instructions: 410000001 cycles: 326769178 heartbeat IPC: 0.436369 cumulative IPC: 0.433111 (Simulation time: 1 hr 53 min 3 sec) 
Heartbeat CPU 0 instructions: 240000000 cycles: 327078894 heartbeat IPC: 0.224115 cumulative IPC: 0.223899 (Simulation time: 1 hr 53 min 7 sec) 
Heartbeat CPU 3 instructions: 330000000 cycles: 327097879 heartbeat IPC: 0.721272 cumulative IPC: 0.428358 (Simulation time: 1 hr 53 min 7 sec) 
Heartbeat CPU 1 instructions: 560000000 cycles: 334245188 heartbeat IPC: 1.15276 cumulative IPC: 1.19481 (Simulation time: 1 hr 54 min 36 sec) 
Heartbeat CPU 1 instructions: 570000000 cycles: 342482190 heartbeat IPC: 1.21403 cumulative IPC: 1.19562 (Simulation time: 1 hr 56 min 20 sec) 
Heartbeat CPU 3 instructions: 340000000 cycles: 344878567 heartbeat IPC: 0.562408 cumulative IPC: 0.440491 (Simulation time: 1 hr 56 min 48 sec) 
Heartbeat CPU 2 instructions: 420000000 cycles: 349569938 heartbeat IPC: 0.438582 cumulative IPC: 0.433731 (Simulation time: 1 hr 57 min 43 sec) 
Heartbeat CPU 1 instructions: 580000000 cycles: 350915371 heartbeat IPC: 1.18579 cumulative IPC: 1.19521 (Simulation time: 1 hr 57 min 58 sec) 
Heartbeat CPU 1 instructions: 590000001 cycles: 358623404 heartbeat IPC: 1.29735 cumulative IPC: 1.19896 (Simulation time: 1 hr 59 min 32 sec) 
Heartbeat CPU 1 instructions: 600000000 cycles: 365296556 heartbeat IPC: 1.49854 cumulative IPC: 1.20818 (Simulation time: 2 hr 0 min 58 sec) 
Heartbeat CPU 0 instructions: 250000001 cycles: 370745313 heartbeat IPC: 0.229009 cumulative IPC: 0.224902 (Simulation time: 2 hr 2 min 0 sec) 
Heartbeat CPU 3 instructions: 350000000 cycles: 371914833 heartbeat IPC: 0.369874 cumulative IPC: 0.431948 (Simulation time: 2 hr 2 min 14 sec) 
Heartbeat CPU 2 instructions: 430000002 cycles: 372303961 heartbeat IPC: 0.439869 cumulative IPC: 0.434355 (Simulation time: 2 hr 2 min 18 sec) 
Heartbeat CPU 1 instructions: 610000000 cycles: 374630952 heartbeat IPC: 1.07131 cumulative IPC: 1.20253 (Simulation time: 2 hr 2 min 45 sec) 
Heartbeat CPU 1 instructions: 620000000 cycles: 381550783 heartbeat IPC: 1.44512 cumulative IPC: 1.20973 (Simulation time: 2 hr 4 min 13 sec) 
Heartbeat CPU 1 instructions: 630000001 cycles: 389109523 heartbeat IPC: 1.32297 cumulative IPC: 1.21329 (Simulation time: 2 hr 6 min 6 sec) 
Heartbeat CPU 2 instructions: 440000000 cycles: 395297728 heartbeat IPC: 0.4349 cumulative IPC: 0.434405 (Simulation time: 2 hr 7 min 38 sec) 
Heartbeat CPU 1 instructions: 640000000 cycles: 396695681 heartbeat IPC: 1.31819 cumulative IPC: 1.21649 (Simulation time: 2 hr 7 min 57 sec) 
Heartbeat CPU 3 instructions: 360000000 cycles: 398795025 heartbeat IPC: 0.372021 cumulative IPC: 0.425514 (Simulation time: 2 hr 8 min 28 sec) 
Heartbeat CPU 1 instructions: 650000001 cycles: 403109060 heartbeat IPC: 1.55924 cumulative IPC: 1.22512 (Simulation time: 2 hr 9 min 31 sec) 
Heartbeat CPU 1 instructions: 660000000 cycles: 412729639 heartbeat IPC: 1.03944 cumulative IPC: 1.21836 (Simulation time: 2 hr 11 min 44 sec) 
Heartbeat CPU 0 instructions: 260000000 cycles: 414841212 heartbeat IPC: 0.226778 cumulative IPC: 0.225213 (Simulation time: 2 hr 12 min 14 sec) 
Heartbeat CPU 2 instructions: 450000003 cycles: 418634562 heartbeat IPC: 0.428507 cumulative IPC: 0.433896 (Simulation time: 2 hr 13 min 1 sec) 
Heartbeat CPU 1 instructions: 670000002 cycles: 421792339 heartbeat IPC: 1.10342 cumulative IPC: 1.21455 (Simulation time: 2 hr 13 min 38 sec) 
Heartbeat CPU 3 instructions: 370000001 cycles: 423239107 heartbeat IPC: 0.409097 cumulative IPC: 0.424054 (Simulation time: 2 hr 13 min 56 sec) 
Heartbeat CPU 1 instructions: 680000000 cycles: 431741966 heartbeat IPC: 1.00506 cumulative IPC: 1.2072 (Simulation time: 2 hr 15 min 50 sec) 
Heartbeat CPU 3 instructions: 380000000 cycles: 438926202 heartbeat IPC: 0.637467 cumulative IPC: 0.435578 (Simulation time: 2 hr 17 min 25 sec) 
Heartbeat CPU 2 instructions: 460000000 cycles: 441584043 heartbeat IPC: 0.43574 cumulative IPC: 0.43404 (Simulation time: 2 hr 18 min 1 sec) 
Heartbeat CPU 1 instructions: 690000003 cycles: 441790676 heartbeat IPC: 0.995153 cumulative IPC: 1.19993 (Simulation time: 2 hr 18 min 5 sec) 
Heartbeat CPU 1 instructions: 700000000 cycles: 451775831 heartbeat IPC: 1.00149 cumulative IPC: 1.1934 (Simulation time: 2 hr 20 min 14 sec) 
Heartbeat CPU 0 instructions: 270000002 cycles: 459507907 heartbeat IPC: 0.22388 cumulative IPC: 0.225022 (Simulation time: 2 hr 21 min 53 sec) 
Heartbeat CPU 1 instructions: 710000000 cycles: 461599843 heartbeat IPC: 1.01791 cumulative IPC: 1.1879 (Simulation time: 2 hr 22 min 20 sec) 
Heartbeat CPU 3 instructions: 390000001 cycles: 463334655 heartbeat IPC: 0.409694 cumulative IPC: 0.433572 (Simulation time: 2 hr 22 min 45 sec) 
Heartbeat CPU 2 instructions: 470000000 cycles: 464562537 heartbeat IPC: 0.43519 cumulative IPC: 0.434124 (Simulation time: 2 hr 22 min 59 sec) 
Heartbeat CPU 1 instructions: 720000000 cycles: 469157805 heartbeat IPC: 1.32311 cumulative IPC: 1.19108 (Simulation time: 2 hr 24 min 6 sec) 
Heartbeat CPU 1 instructions: 730000002 cycles: 475498033 heartbeat IPC: 1.57723 cumulative IPC: 1.19857 (Simulation time: 2 hr 25 min 35 sec) 
Heartbeat CPU 1 instructions: 740000000 cycles: 481696282 heartbeat IPC: 1.61336 cumulative IPC: 1.20628 (Simulation time: 2 hr 27 min 5 sec) 
Heartbeat CPU 2 instructions: 480000000 cycles: 487470975 heartbeat IPC: 0.43652 cumulative IPC: 0.434286 (Simulation time: 2 hr 28 min 30 sec) 
Heartbeat CPU 3 instructions: 400000000 cycles: 490066949 heartbeat IPC: 0.374079 cumulative IPC: 0.428917 (Simulation time: 2 hr 29 min 6 sec) 
Heartbeat CPU 1 instructions: 750000000 cycles: 490153690 heartbeat IPC: 1.1824 cumulative IPC: 1.20569 (Simulation time: 2 hr 29 min 7 sec) 
Heartbeat CPU 1 instructions: 760000000 cycles: 499605385 heartbeat IPC: 1.05801 cumulative IPC: 1.20172 (Simulation time: 2 hr 31 min 18 sec) 
Heartbeat CPU 0 instructions: 280000000 cycles: 504821510 heartbeat IPC: 0.220684 cumulative IPC: 0.22447 (Simulation time: 2 hr 32 min 20 sec) 
Heartbeat CPU 1 instructions: 770000000 cycles: 508964949 heartbeat IPC: 1.06843 cumulative IPC: 1.19826 (Simulation time: 2 hr 33 min 8 sec) 
Heartbeat CPU 2 instructions: 490000002 cycles: 510994142 heartbeat IPC: 0.425113 cumulative IPC: 0.433691 (Simulation time: 2 hr 33 min 31 sec) 
Heartbeat CPU 3 instructions: 410000001 cycles: 515894483 heartbeat IPC: 0.387184 cumulative IPC: 0.425984 (Simulation time: 2 hr 34 min 28 sec) 
Heartbeat CPU 1 instructions: 780000000 cycles: 518895355 heartbeat IPC: 1.00701 cumulative IPC: 1.19313 (Simulation time: 2 hr 35 min 4 sec) 
Heartbeat CPU 1 instructions: 790000000 cycles: 528899206 heartbeat IPC: 0.999615 cumulative IPC: 1.18804 (Simulation time: 2 hr 37 min 1 sec) 
Heartbeat CPU 2 instructions: 500000000 cycles: 534529897 heartbeat IPC: 0.424885 cumulative IPC: 0.433154 (Simulation time: 2 hr 38 min 7 sec) 
Heartbeat CPU 1 instructions: 800000000 cycles: 538651815 heartbeat IPC: 1.02537 cumulative IPC: 1.18398 (Simulation time: 2 hr 38 min 56 sec) 
Heartbeat CPU 3 instructions: 420000000 cycles: 539742222 heartbeat IPC: 0.419327 cumulative IPC: 0.425578 (Simulation time: 2 hr 39 min 8 sec) 
Heartbeat CPU 1 instructions: 810000000 cycles: 548653442 heartbeat IPC: 0.999837 cumulative IPC: 1.17937 (Simulation time: 2 hr 40 min 53 sec) 
Heartbeat CPU 0 instructions: 290000001 cycles: 549780927 heartbeat IPC: 0.222423 cumulative IPC: 0.224241 (Simulation time: 2 hr 41 min 6 sec) 
Heartbeat CPU 2 instructions: 510000000 cycles: 557886858 heartbeat IPC: 0.428138 cumulative IPC: 0.432868 (Simulation time: 2 hr 42 min 47 sec) 
Heartbeat CPU 1 instructions: 820000000 cycles: 558596532 heartbeat IPC: 1.00572 cumulative IPC: 1.17516 (Simulation time: 2 hr 42 min 56 sec) 
Heartbeat CPU 3 instructions: 430000003 cycles: 559579965 heartbeat IPC: 0.50409 cumulative IPC: 0.429366 (Simulation time: 2 hr 43 min 10 sec) 
Heartbeat CPU 1 instructions: 830000003 cycles: 568655362 heartbeat IPC: 0.994152 cumulative IPC: 1.17083 (Simulation time: 2 hr 45 min 16 sec) 
Heartbeat CPU 3 instructions: 440000000 cycles: 573621237 heartbeat IPC: 0.712186 cumulative IPC: 0.438706 (Simulation time: 2 hr 46 min 18 sec) 
Heartbeat CPU 1 instructions: 840000000 cycles: 578529696 heartbeat IPC: 1.01273 cumulative IPC: 1.1672 (Simulation time: 2 hr 47 min 19 sec) 
Heartbeat CPU 2 instructions: 520000000 cycles: 580749004 heartbeat IPC: 0.437404 cumulative IPC: 0.433108 (Simulation time: 2 hr 47 min 47 sec) 
Heartbeat CPU 1 instructions: 850000003 cycles: 588221059 heartbeat IPC: 1.03185 cumulative IPC: 1.16422 (Simulation time: 2 hr 49 min 16 sec) 
Heartbeat CPU 3 instructions: 450000000 cycles: 591624127 heartbeat IPC: 0.555466 cumulative IPC: 0.443449 (Simulation time: 2 hr 49 min 56 sec) 
Heartbeat CPU 0 instructions: 300000000 cycles: 593486887 heartbeat IPC: 0.228802 cumulative IPC: 0.224689 (Simulation time: 2 hr 50 min 17 sec) 
Heartbeat CPU 1 instructions: 860000000 cycles: 597975876 heartbeat IPC: 1.02513 cumulative IPC: 1.1612 (Simulation time: 2 hr 51 min 7 sec) 
Heartbeat CPU 2 instructions: 530000002 cycles: 603495939 heartbeat IPC: 0.43962 cumulative IPC: 0.433433 (Simulation time: 2 hr 52 min 16 sec) 
Heartbeat CPU 1 instructions: 870000001 cycles: 608013177 heartbeat IPC: 0.996284 cumulative IPC: 1.1576 (Simulation time: 2 hr 53 min 7 sec) 
Heartbeat CPU 1 instructions: 880000000 cycles: 617820962 heartbeat IPC: 1.0196 cumulative IPC: 1.15472 (Simulation time: 2 hr 54 min 59 sec) 
Heartbeat CPU 3 instructions: 460000000 cycles: 619537794 heartbeat IPC: 0.358247 cumulative IPC: 0.4384 (Simulation time: 2 hr 55 min 18 sec) 
Heartbeat CPU 2 instructions: 540000000 cycles: 626089629 heartbeat IPC: 0.442601 cumulative IPC: 0.433867 (Simulation time: 2 hr 56 min 33 sec) 
Heartbeat CPU 1 instructions: 890000003 cycles: 627734446 heartbeat IPC: 1.00873 cumulative IPC: 1.1517 (Simulation time: 2 hr 56 min 51 sec) 
Heartbeat CPU 1 instructions: 900000000 cycles: 636336983 heartbeat IPC: 1.16245 cumulative IPC: 1.15189 (Simulation time: 2 hr 58 min 33 sec) 
Heartbeat CPU 0 instructions: 310000000 cycles: 638248412 heartbeat IPC: 0.223406 cumulative IPC: 0.224571 (Simulation time: 2 hr 58 min 58 sec) 
Heartbeat CPU 1 instructions: 910000000 cycles: 643159464 heartbeat IPC: 1.46574 cumulative IPC: 1.15621 (Simulation time: 3 hr 0 min 1 sec) 
Heartbeat CPU 3 instructions: 470000002 cycles: 646739325 heartbeat IPC: 0.367626 cumulative IPC: 0.434537 (Simulation time: 3 hr 0 min 42 sec) 
Heartbeat CPU 2 instructions: 550000000 cycles: 649226757 heartbeat IPC: 0.432206 cumulative IPC: 0.43379 (Simulation time: 3 hr 1 min 9 sec) 
Heartbeat CPU 1 instructions: 920000000 cycles: 652857995 heartbeat IPC: 1.03108 cumulative IPC: 1.15381 (Simulation time: 3 hr 1 min 50 sec) 
Heartbeat CPU 1 instructions: 930000002 cycles: 662186099 heartbeat IPC: 1.07203 cumulative IPC: 1.15232 (Simulation time: 3 hr 3 min 36 sec) 
Heartbeat CPU 3 instructions: 480000000 cycles: 668309187 heartbeat IPC: 0.46361 cumulative IPC: 0.435743 (Simulation time: 3 hr 4 min 40 sec) 
Heartbeat CPU 2 instructions: 560000000 cycles: 672218211 heartbeat IPC: 0.434944 cumulative IPC: 0.433841 (Simulation time: 3 hr 5 min 24 sec) 
Heartbeat CPU 1 instructions: 940000000 cycles: 672224395 heartbeat IPC: 0.996185 cumulative IPC: 1.14933 (Simulation time: 3 hr 5 min 24 sec) 
Heartbeat CPU 1 instructions: 950000001 cycles: 682335864 heartbeat IPC: 0.988976 cumulative IPC: 1.14629 (Simulation time: 3 hr 7 min 19 sec) 
Heartbeat CPU 0 instructions: 320000000 cycles: 682746933 heartbeat IPC: 0.224727 cumulative IPC: 0.224584 (Simulation time: 3 hr 7 min 23 sec) 
Heartbeat CPU 1 instructions: 960000000 cycles: 691838674 heartbeat IPC: 1.05232 cumulative IPC: 1.14465 (Simulation time: 3 hr 9 min 9 sec) 
Heartbeat CPU 3 instructions: 490000000 cycles: 693686219 heartbeat IPC: 0.394057 cumulative IPC: 0.433803 (Simulation time: 3 hr 9 min 32 sec) 
Heartbeat CPU 2 instructions: 570000003 cycles: 695011215 heartbeat IPC: 0.438731 cumulative IPC: 0.434045 (Simulation time: 3 hr 9 min 48 sec) 
Heartbeat CPU 1 instructions: 970000003 cycles: 701921981 heartbeat IPC: 0.991738 cumulative IPC: 1.14187 (Simulation time: 3 hr 11 min 23 sec) 
Heartbeat CPU 1 instructions: 980000000 cycles: 711366226 heartbeat IPC: 1.05885 cumulative IPC: 1.14047 (Simulation time: 3 hr 13 min 25 sec) 
Heartbeat CPU 2 instructions: 580000000 cycles: 718078774 heartbeat IPC: 0.433509 cumulative IPC: 0.434023 (Simulation time: 3 hr 14 min 48 sec) 
Heartbeat CPU 3 instructions: 500000000 cycles: 719939732 heartbeat IPC: 0.380901 cumulative IPC: 0.431373 (Simulation time: 3 hr 15 min 9 sec) 
Heartbeat CPU 1 instructions: 990000000 cycles: 720559426 heartbeat IPC: 1.08776 cumulative IPC: 1.13963 (Simulation time: 3 hr 15 min 17 sec) 
Heartbeat CPU 0 instructions: 330000000 cycles: 727175739 heartbeat IPC: 0.225079 cumulative IPC: 0.224622 (Simulation time: 3 hr 16 min 50 sec) 
Heartbeat CPU 1 instructions: 1000000000 cycles: 729998582 heartbeat IPC: 1.05942 cumulative IPC: 1.13832 (Simulation time: 3 hr 17 min 26 sec) 
Heartbeat CPU 1 instructions: 1010000002 cycles: 738085819 heartbeat IPC: 1.23652 cumulative IPC: 1.13967 (Simulation time: 3 hr 19 min 9 sec) 
Heartbeat CPU 2 instructions: 590000001 cycles: 740874899 heartbeat IPC: 0.438671 cumulative IPC: 0.434202 (Simulation time: 3 hr 19 min 44 sec) 
Heartbeat CPU 3 instructions: 510000002 cycles: 741654674 heartbeat IPC: 0.460512 cumulative IPC: 0.43244 (Simulation time: 3 hr 19 min 54 sec) 
Heartbeat CPU 1 instructions: 1020000000 cycles: 746484531 heartbeat IPC: 1.19066 cumulative IPC: 1.14039 (Simulation time: 3 hr 20 min 54 sec) 
Heartbeat CPU 1 instructions: 1030000000 cycles: 754196753 heartbeat IPC: 1.29664 cumulative IPC: 1.14238 (Simulation time: 3 hr 22 min 41 sec) 
Heartbeat CPU 1 instructions: 1040000000 cycles: 761919730 heartbeat IPC: 1.29484 cumulative IPC: 1.14429 (Simulation time: 3 hr 24 min 26 sec) 
Heartbeat CPU 2 instructions: 600000000 cycles: 763800983 heartbeat IPC: 0.436184 cumulative IPC: 0.434276 (Simulation time: 3 hr 24 min 48 sec) 
Heartbeat CPU 3 instructions: 520000000 cycles: 768880288 heartbeat IPC: 0.367301 cumulative IPC: 0.429581 (Simulation time: 3 hr 25 min 50 sec) 
Heartbeat CPU 1 instructions: 1050000000 cycles: 769866619 heartbeat IPC: 1.25835 cumulative IPC: 1.14575 (Simulation time: 3 hr 26 min 3 sec) 
Heartbeat CPU 0 instructions: 340000000 cycles: 770215530 heartbeat IPC: 0.232343 cumulative IPC: 0.225157 (Simulation time: 3 hr 26 min 7 sec) 
Heartbeat CPU 1 instructions: 1060000000 cycles: 778335931 heartbeat IPC: 1.18073 cumulative IPC: 1.14622 (Simulation time: 3 hr 27 min 44 sec) 
Heartbeat CPU 2 instructions: 610000003 cycles: 786920228 heartbeat IPC: 0.43254 cumulative IPC: 0.434213 (Simulation time: 3 hr 29 min 23 sec) 
Heartbeat CPU 1 instructions: 1070000001 cycles: 787839868 heartbeat IPC: 1.0522 cumulative IPC: 1.14483 (Simulation time: 3 hr 29 min 35 sec) 
Heartbeat CPU 3 instructions: 530000000 cycles: 793128484 heartbeat IPC: 0.412402 cumulative IPC: 0.428935 (Simulation time: 3 hr 30 min 38 sec) 
Heartbeat CPU 1 instructions: 1080000000 cycles: 797113999 heartbeat IPC: 1.07827 cumulative IPC: 1.14387 (Simulation time: 3 hr 31 min 30 sec) 
Heartbeat CPU 1 instructions: 1090000003 cycles: 806471226 heartbeat IPC: 1.06869 cumulative IPC: 1.14281 (Simulation time: 3 hr 33 min 25 sec) 
Heartbeat CPU 2 instructions: 620000000 cycles: 809721447 heartbeat IPC: 0.438573 cumulative IPC: 0.434363 (Simulation time: 3 hr 34 min 3 sec) 
Heartbeat CPU 3 instructions: 540000000 cycles: 811675767 heartbeat IPC: 0.539163 cumulative IPC: 0.432018 (Simulation time: 3 hr 34 min 24 sec) 
Heartbeat CPU 0 instructions: 350000000 cycles: 815004771 heartbeat IPC: 0.223268 cumulative IPC: 0.22503 (Simulation time: 3 hr 35 min 4 sec) 
Heartbeat CPU 1 instructions: 1100000000 cycles: 815242226 heartbeat IPC: 1.14012 cumulative IPC: 1.14277 (Simulation time: 3 hr 35 min 6 sec) 
Heartbeat CPU 1 instructions: 1110000000 cycles: 825066571 heartbeat IPC: 1.01788 cumulative IPC: 1.14096 (Simulation time: 3 hr 37 min 0 sec) 
Heartbeat CPU 2 instructions: 630000001 cycles: 833010163 heartbeat IPC: 0.429393 cumulative IPC: 0.434194 (Simulation time: 3 hr 38 min 31 sec) 
Heartbeat CPU 1 instructions: 1120000000 cycles: 834889776 heartbeat IPC: 1.018 cumulative IPC: 1.1392 (Simulation time: 3 hr 38 min 53 sec) 
Heartbeat CPU 3 instructions: 550000001 cycles: 839270571 heartbeat IPC: 0.362387 cumulative IPC: 0.429236 (Simulation time: 3 hr 39 min 43 sec) 
Heartbeat CPU 1 instructions: 1130000003 cycles: 844092884 heartbeat IPC: 1.08659 cumulative IPC: 1.1385 (Simulation time: 3 hr 40 min 42 sec) 
Heartbeat CPU 1 instructions: 1140000000 cycles: 853615929 heartbeat IPC: 1.05008 cumulative IPC: 1.13731 (Simulation time: 3 hr 42 min 48 sec) 
Heartbeat CPU 2 instructions: 640000000 cycles: 856571534 heartbeat IPC: 0.424423 cumulative IPC: 0.433869 (Simulation time: 3 hr 43 min 22 sec) 
Heartbeat CPU 0 instructions: 360000000 cycles: 859509150 heartbeat IPC: 0.224697 cumulative IPC: 0.225009 (Simulation time: 3 hr 44 min 0 sec) 
Heartbeat CPU 1 instructions: 1150000002 cycles: 862657215 heartbeat IPC: 1.10604 cumulative IPC: 1.13691 (Simulation time: 3 hr 44 min 39 sec) 
Heartbeat CPU 3 instructions: 560000000 cycles: 863993566 heartbeat IPC: 0.404482 cumulative IPC: 0.428381 (Simulation time: 3 hr 44 min 57 sec) 
Heartbeat CPU 1 instructions: 1160000000 cycles: 871578877 heartbeat IPC: 1.12087 cumulative IPC: 1.13671 (Simulation time: 3 hr 46 min 42 sec) 
Heartbeat CPU 1 instructions: 1170000001 cycles: 878226436 heartbeat IPC: 1.50431 cumulative IPC: 1.14006 (Simulation time: 3 hr 48 min 14 sec) 
Heartbeat CPU 2 instructions: 650000003 cycles: 879972462 heartbeat IPC: 0.427334 cumulative IPC: 0.43366 (Simulation time: 3 hr 48 min 37 sec) 
Heartbeat CPU 3 instructions: 570000002 cycles: 887142587 heartbeat IPC: 0.431984 cumulative IPC: 0.428494 (Simulation time: 3 hr 50 min 7 sec) 
Heartbeat CPU 1 instructions: 1180000000 cycles: 887961714 heartbeat IPC: 1.02719 cumulative IPC: 1.13858 (Simulation time: 3 hr 50 min 17 sec) 
Heartbeat CPU 1 instructions: 1190000001 cycles: 896582087 heartbeat IPC: 1.16004 cumulative IPC: 1.13882 (Simulation time: 3 hr 52 min 3 sec) 
Heartbeat CPU 2 instructions: 660000000 cycles: 903165363 heartbeat IPC: 0.431166 cumulative IPC: 0.433583 (Simulation time: 3 hr 53 min 27 sec) 
Heartbeat CPU 0 instructions: 370000000 cycles: 904127685 heartbeat IPC: 0.224122 cumulative IPC: 0.224957 (Simulation time: 3 hr 53 min 40 sec) 
Heartbeat CPU 3 instructions: 580000000 cycles: 905561328 heartbeat IPC: 0.542925 cumulative IPC: 0.431278 (Simulation time: 3 hr 53 min 59 sec) 
Heartbeat CPU 1 instructions: 1200000000 cycles: 905652392 heartbeat IPC: 1.1025 cumulative IPC: 1.13839 (Simulation time: 3 hr 54 min 0 sec) 
Heartbeat CPU 1 instructions: 1210000002 cycles: 913822470 heartbeat IPC: 1.22398 cumulative IPC: 1.1393 (Simulation time: 3 hr 56 min 3 sec) 
Heartbeat CPU 3 instructions: 590000000 cycles: 919391601 heartbeat IPC: 0.723052 cumulative IPC: 0.436512 (Simulation time: 3 hr 57 min 29 sec) 
Heartbeat CPU 1 instructions: 1220000000 cycles: 921284911 heartbeat IPC: 1.34004 cumulative IPC: 1.14124 (Simulation time: 3 hr 57 min 55 sec) 
Heartbeat CPU 2 instructions: 670000002 cycles: 925885714 heartbeat IPC: 0.440134 cumulative IPC: 0.433775 (Simulation time: 3 hr 58 min 57 sec) 
Heartbeat CPU 1 instructions: 1230000000 cycles: 930030801 heartbeat IPC: 1.14339 cumulative IPC: 1.14126 (Simulation time: 3 hr 59 min 58 sec) 
Heartbeat CPU 3 instructions: 600000000 cycles: 936037031 heartbeat IPC: 0.600765 cumulative IPC: 0.439983 (Simulation time: 4 hr 1 min 27 sec) 
Heartbeat CPU 1 instructions: 1240000000 cycles: 936310760 heartbeat IPC: 1.59237 cumulative IPC: 1.14486 (Simulation time: 4 hr 1 min 31 sec) 
Heartbeat CPU 1 instructions: 1250000003 cycles: 945679458 heartbeat IPC: 1.06738 cumulative IPC: 1.14395 (Simulation time: 4 hr 3 min 24 sec) 
Heartbeat CPU 0 instructions: 380000000 cycles: 948358421 heartbeat IPC: 0.226087 cumulative IPC: 0.225019 (Simulation time: 4 hr 3 min 53 sec) 
Heartbeat CPU 2 instructions: 680000000 cycles: 948705605 heartbeat IPC: 0.438214 cumulative IPC: 0.433901 (Simulation time: 4 hr 3 min 57 sec) 
Heartbeat CPU 1 instructions: 1260000000 cycles: 953076749 heartbeat IPC: 1.35185 cumulative IPC: 1.14586 (Simulation time: 4 hr 4 min 54 sec) 
Heartbeat CPU 1 instructions: 1270000003 cycles: 959339900 heartbeat IPC: 1.59664 cumulative IPC: 1.14934 (Simulation time: 4 hr 6 min 21 sec) 
Heartbeat CPU 3 instructions: 610000001 cycles: 962396547 heartbeat IPC: 0.37937 cumulative IPC: 0.43802 (Simulation time: 4 hr 7 min 3 sec) 
Heartbeat CPU 1 instructions: 1280000000 cycles: 966759384 heartbeat IPC: 1.3478 cumulative IPC: 1.15114 (Simulation time: 4 hr 8 min 4 sec) 
Heartbeat CPU 2 instructions: 690000000 cycles: 971424423 heartbeat IPC: 0.440164 cumulative IPC: 0.434074 (Simulation time: 4 hr 9 min 0 sec) 
Heartbeat CPU 1 instructions: 1290000000 cycles: 976733523 heartbeat IPC: 1.00259 cumulative IPC: 1.14935 (Simulation time: 4 hr 10 min 1 sec) 
Heartbeat CPU 3 instructions: 620000000 cycles: 985045587 heartbeat IPC: 0.44152 cumulative IPC: 0.438115 (Simulation time: 4 hr 11 min 41 sec) 
Heartbeat CPU 1 instructions: 1300000000 cycles: 986715726 heartbeat IPC: 1.00178 cumulative IPC: 1.1476 (Simulation time: 4 hr 11 min 59 sec) 
Heartbeat CPU 0 instructions: 390000000 cycles: 992661203 heartbeat IPC: 0.225719 cumulative IPC: 0.225056 (Simulation time: 4 hr 13 min 9 sec) 
Heartbeat CPU 2 instructions: 700000000 cycles: 994393750 heartbeat IPC: 0.435363 cumulative IPC: 0.434109 (Simulation time: 4 hr 13 min 30 sec) 
Heartbeat CPU 1 instructions: 1310000000 cycles: 996282799 heartbeat IPC: 1.04525 cumulative IPC: 1.14644 (Simulation time: 4 hr 14 min 0 sec) 
Heartbeat CPU 1 instructions: 1320000000 cycles: 1005137435 heartbeat IPC: 1.12935 cumulative IPC: 1.14626 (Simulation time: 4 hr 15 min 56 sec) 
Heartbeat CPU 1 instructions: 1330000003 cycles: 1012390487 heartbeat IPC: 1.37873 cumulative IPC: 1.14822 (Simulation time: 4 hr 17 min 29 sec) 
Heartbeat CPU 3 instructions: 630000002 cycles: 1012791961 heartbeat IPC: 0.360408 cumulative IPC: 0.435621 (Simulation time: 4 hr 17 min 35 sec) 
Heartbeat CPU 2 instructions: 710000002 cycles: 1017359355 heartbeat IPC: 0.435434 cumulative IPC: 0.434144 (Simulation time: 4 hr 18 min 33 sec) 
Finished CPU 1 instructions: 1000000002 cycles: 869584743 cumulative IPC: 1.14997 (Simulation time: 4 hr 18 min 41 sec) 
Heartbeat CPU 1 instructions: 1340000000 cycles: 1019365543 heartbeat IPC: 1.43368 cumulative IPC: 1.1505 (Simulation time: 4 hr 18 min 58 sec) 
Heartbeat CPU 1 instructions: 1350000000 cycles: 1025910352 heartbeat IPC: 1.52793 cumulative IPC: 1.15332 (Simulation time: 4 hr 20 min 24 sec) 
Heartbeat CPU 1 instructions: 1360000000 cycles: 1033388102 heartbeat IPC: 1.3373 cumulative IPC: 1.15487 (Simulation time: 4 hr 22 min 14 sec) 
Heartbeat CPU 3 instructions: 640000000 cycles: 1035246593 heartbeat IPC: 0.445342 cumulative IPC: 0.435867 (Simulation time: 4 hr 22 min 43 sec) 
Heartbeat CPU 0 instructions: 400000000 cycles: 1037083768 heartbeat IPC: 0.225111 cumulative IPC: 0.225059 (Simulation time: 4 hr 23 min 9 sec) 
Heartbeat CPU 2 instructions: 720000000 cycles: 1040338931 heartbeat IPC: 0.435169 cumulative IPC: 0.434171 (Simulation time: 4 hr 23 min 55 sec) 
Heartbeat CPU 1 instructions: 1370000002 cycles: 1042308261 heartbeat IPC: 1.12106 cumulative IPC: 1.15453 (Simulation time: 4 hr 24 min 19 sec) 
Heartbeat CPU 1 instructions: 1380000000 cycles: 1049872682 heartbeat IPC: 1.32198 cumulative IPC: 1.15594 (Simulation time: 4 hr 25 min 51 sec) 
Heartbeat CPU 1 instructions: 1390000001 cycles: 1056172880 heartbeat IPC: 1.58725 cumulative IPC: 1.15893 (Simulation time: 4 hr 27 min 11 sec) 
Heartbeat CPU 3 instructions: 650000001 cycles: 1056997605 heartbeat IPC: 0.459749 cumulative IPC: 0.436438 (Simulation time: 4 hr 27 min 22 sec) 
Heartbeat CPU 2 instructions: 730000000 cycles: 1063249723 heartbeat IPC: 0.436476 cumulative IPC: 0.434228 (Simulation time: 4 hr 28 min 38 sec) 
Heartbeat CPU 1 instructions: 1400000000 cycles: 1063438565 heartbeat IPC: 1.37633 cumulative IPC: 1.16066 (Simulation time: 4 hr 28 min 40 sec) 
Heartbeat CPU 1 instructions: 1410000000 cycles: 1073096077 heartbeat IPC: 1.03546 cumulative IPC: 1.15935 (Simulation time: 4 hr 30 min 31 sec) 
Heartbeat CPU 1 instructions: 1420000000 cycles: 1079286321 heartbeat IPC: 1.61545 cumulative IPC: 1.16238 (Simulation time: 4 hr 32 min 7 sec) 
Heartbeat CPU 0 instructions: 410000000 cycles: 1081082566 heartbeat IPC: 0.227279 cumulative IPC: 0.225163 (Simulation time: 4 hr 32 min 35 sec) 
Heartbeat CPU 3 instructions: 660000000 cycles: 1081161303 heartbeat IPC: 0.413844 cumulative IPC: 0.435853 (Simulation time: 4 hr 32 min 36 sec) 
Heartbeat CPU 2 instructions: 740000000 cycles: 1085990847 heartbeat IPC: 0.439732 cumulative IPC: 0.434362 (Simulation time: 4 hr 33 min 36 sec) 
Heartbeat CPU 1 instructions: 1430000001 cycles: 1088385908 heartbeat IPC: 1.09895 cumulative IPC: 1.16177 (Simulation time: 4 hr 34 min 6 sec) 
Heartbeat CPU 1 instructions: 1440000000 cycles: 1097586323 heartbeat IPC: 1.08691 cumulative IPC: 1.16104 (Simulation time: 4 hr 36 min 15 sec) 
Heartbeat CPU 1 instructions: 1450000003 cycles: 1105995170 heartbeat IPC: 1.18922 cumulative IPC: 1.16129 (Simulation time: 4 hr 37 min 58 sec) 
Heartbeat CPU 2 instructions: 750000002 cycles: 1109130373 heartbeat IPC: 0.432161 cumulative IPC: 0.434309 (Simulation time: 4 hr 38 min 34 sec) 
Heartbeat CPU 3 instructions: 670000000 cycles: 1109619241 heartbeat IPC: 0.351396 cumulative IPC: 0.433353 (Simulation time: 4 hr 38 min 40 sec) 
Heartbeat CPU 1 instructions: 1460000000 cycles: 1114444005 heartbeat IPC: 1.18359 cumulative IPC: 1.16149 (Simulation time: 4 hr 39 min 38 sec) 
Heartbeat CPU 1 instructions: 1470000000 cycles: 1121131820 heartbeat IPC: 1.49526 cumulative IPC: 1.16378 (Simulation time: 4 hr 41 min 2 sec) 
Heartbeat CPU 0 instructions: 420000000 cycles: 1125479563 heartbeat IPC: 0.22524 cumulative IPC: 0.225167 (Simulation time: 4 hr 41 min 55 sec) 
Heartbeat CPU 1 instructions: 1480000000 cycles: 1129559934 heartbeat IPC: 1.18651 cumulative IPC: 1.16398 (Simulation time: 4 hr 42 min 41 sec) 
Heartbeat CPU 2 instructions: 760000000 cycles: 1132595494 heartbeat IPC: 0.426164 cumulative IPC: 0.434115 (Simulation time: 4 hr 43 min 15 sec) 
Heartbeat CPU 3 instructions: 680000000 cycles: 1135026618 heartbeat IPC: 0.393586 cumulative IPC: 0.432329 (Simulation time: 4 hr 43 min 42 sec) 
Heartbeat CPU 1 instructions: 1490000003 cycles: 1138043931 heartbeat IPC: 1.17869 cumulative IPC: 1.1641 (Simulation time: 4 hr 44 min 16 sec) 
Heartbeat CPU 1 instructions: 1500000000 cycles: 1145668453 heartbeat IPC: 1.31156 cumulative IPC: 1.16523 (Simulation time: 4 hr 45 min 44 sec) 
Heartbeat CPU 1 instructions: 1510000001 cycles: 1153714677 heartbeat IPC: 1.24282 cumulative IPC: 1.16585 (Simulation time: 4 hr 47 min 15 sec) 
Heartbeat CPU 2 instructions: 770000000 cycles: 1156043457 heartbeat IPC: 0.426476 cumulative IPC: 0.433937 (Simulation time: 4 hr 47 min 42 sec) 
Heartbeat CPU 3 instructions: 690000003 cycles: 1158632707 heartbeat IPC: 0.42362 cumulative IPC: 0.432125 (Simulation time: 4 hr 48 min 13 sec) 
Heartbeat CPU 1 instructions: 1520000000 cycles: 1160404604 heartbeat IPC: 1.49478 cumulative IPC: 1.16803 (Simulation time: 4 hr 48 min 36 sec) 
Heartbeat CPU 1 instructions: 1530000001 cycles: 1169390841 heartbeat IPC: 1.11281 cumulative IPC: 1.16754 (Simulation time: 4 hr 50 min 15 sec) 
Heartbeat CPU 0 instructions: 430000000 cycles: 1170221785 heartbeat IPC: 0.223503 cumulative IPC: 0.225094 (Simulation time: 4 hr 50 min 24 sec) 
Heartbeat CPU 3 instructions: 700000000 cycles: 1177808542 heartbeat IPC: 0.52149 cumulative IPC: 0.43379 (Simulation time: 4 hr 51 min 54 sec) 
Heartbeat CPU 1 instructions: 1540000000 cycles: 1179077617 heartbeat IPC: 1.03234 cumulative IPC: 1.16627 (Simulation time: 4 hr 52 min 10 sec) 
Heartbeat CPU 2 instructions: 780000000 cycles: 1179095367 heartbeat IPC: 0.433804 cumulative IPC: 0.433934 (Simulation time: 4 hr 52 min 10 sec) 
Heartbeat CPU 1 instructions: 1550000001 cycles: 1188719194 heartbeat IPC: 1.03717 cumulative IPC: 1.16507 (Simulation time: 4 hr 54 min 5 sec) 
Heartbeat CPU 3 instructions: 710000002 cycles: 1191853667 heartbeat IPC: 0.711991 cumulative IPC: 0.437535 (Simulation time: 4 hr 54 min 44 sec) 
Heartbeat CPU 1 instructions: 1560000000 cycles: 1195478980 heartbeat IPC: 1.47934 cumulative IPC: 1.1671 (Simulation time: 4 hr 55 min 32 sec) 
Heartbeat CPU 2 instructions: 790000003 cycles: 1201805096 heartbeat IPC: 0.44034 cumulative IPC: 0.434072 (Simulation time: 4 hr 56 min 49 sec) 
Heartbeat CPU 1 instructions: 1570000000 cycles: 1202862744 heartbeat IPC: 1.35432 cumulative IPC: 1.16841 (Simulation time: 4 hr 57 min 2 sec) 
Heartbeat CPU 3 instructions: 720000000 cycles: 1209790213 heartbeat IPC: 0.557521 cumulative IPC: 0.439562 (Simulation time: 4 hr 58 min 23 sec) 
Heartbeat CPU 1 instructions: 1580000000 cycles: 1210285825 heartbeat IPC: 1.34715 cumulative IPC: 1.16966 (Simulation time: 4 hr 58 min 29 sec) 
Heartbeat CPU 0 instructions: 440000000 cycles: 1214856602 heartbeat IPC: 0.22404 cumulative IPC: 0.22505 (Simulation time: 4 hr 59 min 26 sec) 
Heartbeat CPU 1 instructions: 1590000002 cycles: 1216669210 heartbeat IPC: 1.56657 cumulative IPC: 1.17203 (Simulation time: 4 hr 59 min 49 sec) 
Heartbeat CPU 1 instructions: 1600000000 cycles: 1223645684 heartbeat IPC: 1.43339 cumulative IPC: 1.17373 (Simulation time: 5 hr 1 min 16 sec) 
Heartbeat CPU 2 instructions: 800000000 cycles: 1224707206 heartbeat IPC: 0.436641 cumulative IPC: 0.434127 (Simulation time: 5 hr 1 min 28 sec) 
Heartbeat CPU 1 instructions: 1610000001 cycles: 1231601276 heartbeat IPC: 1.25698 cumulative IPC: 1.17434 (Simulation time: 5 hr 2 min 51 sec) 
Heartbeat CPU 3 instructions: 730000000 cycles: 1237562791 heartbeat IPC: 0.360067 cumulative IPC: 0.437535 (Simulation time: 5 hr 4 min 45 sec) 
Heartbeat CPU 1 instructions: 1620000000 cycles: 1240210886 heartbeat IPC: 1.16149 cumulative IPC: 1.17424 (Simulation time: 5 hr 5 min 53 sec) 
Heartbeat CPU 2 instructions: 810000001 cycles: 1247269912 heartbeat IPC: 0.443209 cumulative IPC: 0.434313 (Simulation time: 5 hr 8 min 49 sec) 
Heartbeat CPU 1 instructions: 1630000002 cycles: 1247597784 heartbeat IPC: 1.35375 cumulative IPC: 1.17545 (Simulation time: 5 hr 8 min 57 sec) 
Heartbeat CPU 1 instructions: 1640000000 cycles: 1253768354 heartbeat IPC: 1.6206 cumulative IPC: 1.17793 (Simulation time: 5 hr 11 min 44 sec) 
Heartbeat CPU 0 instructions: 450000000 cycles: 1259235953 heartbeat IPC: 0.22533 cumulative IPC: 0.225061 (Simulation time: 5 hr 12 min 58 sec) 
Heartbeat CPU 1 instructions: 1650000000 cycles: 1260018668 heartbeat IPC: 1.59992 cumulative IPC: 1.1803 (Simulation time: 5 hr 13 min 9 sec) 
Heartbeat CPU 3 instructions: 740000000 cycles: 1265144234 heartbeat IPC: 0.362563 cumulative IPC: 0.435683 (Simulation time: 5 hr 15 min 27 sec) 
Heartbeat CPU 1 instructions: 1660000000 cycles: 1266232541 heartbeat IPC: 1.6093 cumulative IPC: 1.18269 (Simulation time: 5 hr 15 min 47 sec) 
Heartbeat CPU 2 instructions: 820000000 cycles: 1270170511 heartbeat IPC: 0.43667 cumulative IPC: 0.434361 (Simulation time: 5 hr 16 min 38 sec) 
Heartbeat CPU 1 instructions: 1670000001 cycles: 1273871551 heartbeat IPC: 1.30907 cumulative IPC: 1.18355 (Simulation time: 5 hr 17 min 21 sec) 
Heartbeat CPU 1 instructions: 1680000000 cycles: 1282398987 heartbeat IPC: 1.17269 cumulative IPC: 1.18347 (Simulation time: 5 hr 19 min 4 sec) 
Heartbeat CPU 3 instructions: 750000003 cycles: 1286239588 heartbeat IPC: 0.474038 cumulative IPC: 0.436395 (Simulation time: 5 hr 19 min 45 sec) 
Heartbeat CPU 1 instructions: 1690000001 cycles: 1290678139 heartbeat IPC: 1.20785 cumulative IPC: 1.18364 (Simulation time: 5 hr 20 min 36 sec) 
Heartbeat CPU 2 instructions: 830000003 cycles: 1293111795 heartbeat IPC: 0.435896 cumulative IPC: 0.434392 (Simulation time: 5 hr 21 min 5 sec) 
Heartbeat CPU 1 instructions: 1700000000 cycles: 1298215366 heartbeat IPC: 1.32675 cumulative IPC: 1.18458 (Simulation time: 5 hr 22 min 8 sec) 
Heartbeat CPU 0 instructions: 460000000 cycles: 1303638622 heartbeat IPC: 0.225212 cumulative IPC: 0.225067 (Simulation time: 5 hr 23 min 18 sec) 
Heartbeat CPU 1 instructions: 1710000000 cycles: 1304554985 heartbeat IPC: 1.57738 cumulative IPC: 1.18673 (Simulation time: 5 hr 23 min 30 sec) 
Heartbeat CPU 1 instructions: 1720000000 cycles: 1311894759 heartbeat IPC: 1.36244 cumulative IPC: 1.18784 (Simulation time: 5 hr 25 min 1 sec) 
Heartbeat CPU 3 instructions: 760000000 cycles: 1314082367 heartbeat IPC: 0.359159 cumulative IPC: 0.43455 (Simulation time: 5 hr 25 min 30 sec) 
Heartbeat CPU 2 instructions: 840000000 cycles: 1316200338 heartbeat IPC: 0.433115 cumulative IPC: 0.434367 (Simulation time: 5 hr 25 min 59 sec) 
Heartbeat CPU 1 instructions: 1730000000 cycles: 1318008037 heartbeat IPC: 1.63578 cumulative IPC: 1.19018 (Simulation time: 5 hr 26 min 23 sec) 
Heartbeat CPU 1 instructions: 1740000000 cycles: 1324075015 heartbeat IPC: 1.64827 cumulative IPC: 1.19255 (Simulation time: 5 hr 27 min 45 sec) 
Heartbeat CPU 1 instructions: 1750000001 cycles: 1332500686 heartbeat IPC: 1.18685 cumulative IPC: 1.19251 (Simulation time: 5 hr 29 min 27 sec) 
Heartbeat CPU 3 instructions: 770000000 cycles: 1337380141 heartbeat IPC: 0.429226 cumulative IPC: 0.434445 (Simulation time: 5 hr 30 min 32 sec) 
Heartbeat CPU 2 instructions: 850000001 cycles: 1339329397 heartbeat IPC: 0.432357 cumulative IPC: 0.434328 (Simulation time: 5 hr 30 min 59 sec) 
Heartbeat CPU 1 instructions: 1760000000 cycles: 1340089627 heartbeat IPC: 1.31771 cumulative IPC: 1.1933 (Simulation time: 5 hr 31 min 9 sec) 
Heartbeat CPU 1 instructions: 1770000001 cycles: 1347575990 heartbeat IPC: 1.33576 cumulative IPC: 1.19419 (Simulation time: 5 hr 32 min 47 sec) 
Heartbeat CPU 0 instructions: 470000000 cycles: 1348095909 heartbeat IPC: 0.224935 cumulative IPC: 0.225062 (Simulation time: 5 hr 32 min 54 sec) 
Heartbeat CPU 1 instructions: 1780000000 cycles: 1356104312 heartbeat IPC: 1.17256 cumulative IPC: 1.19404 (Simulation time: 5 hr 34 min 23 sec) 
Heartbeat CPU 3 instructions: 780000000 cycles: 1357066741 heartbeat IPC: 0.50796 cumulative IPC: 0.435643 (Simulation time: 5 hr 34 min 34 sec) 
Heartbeat CPU 2 instructions: 860000000 cycles: 1362467960 heartbeat IPC: 0.432179 cumulative IPC: 0.434287 (Simulation time: 5 hr 35 min 35 sec) 
Heartbeat CPU 1 instructions: 1790000001 cycles: 1364978338 heartbeat IPC: 1.12688 cumulative IPC: 1.19355 (Simulation time: 5 hr 36 min 4 sec) 
Heartbeat CPU 1 instructions: 1800000000 cycles: 1372312369 heartbeat IPC: 1.36351 cumulative IPC: 1.19457 (Simulation time: 5 hr 37 min 35 sec) 
Heartbeat CPU 1 instructions: 1810000001 cycles: 1380958011 heartbeat IPC: 1.15665 cumulative IPC: 1.1943 (Simulation time: 5 hr 39 min 18 sec) 
Heartbeat CPU 3 instructions: 790000000 cycles: 1384196180 heartbeat IPC: 0.368603 cumulative IPC: 0.434171 (Simulation time: 5 hr 39 min 55 sec) 
Heartbeat CPU 2 instructions: 870000003 cycles: 1385681434 heartbeat IPC: 0.430784 cumulative IPC: 0.434221 (Simulation time: 5 hr 40 min 12 sec) 
Heartbeat CPU 1 instructions: 1820000000 cycles: 1390703305 heartbeat IPC: 1.02614 cumulative IPC: 1.19298 (Simulation time: 5 hr 41 min 10 sec) 
Heartbeat CPU 0 instructions: 480000000 cycles: 1392633059 heartbeat IPC: 0.224532 cumulative IPC: 0.225043 (Simulation time: 5 hr 41 min 34 sec) 
Heartbeat CPU 1 instructions: 1830000000 cycles: 1398086688 heartbeat IPC: 1.35439 cumulative IPC: 1.19394 (Simulation time: 5 hr 42 min 41 sec) 
Heartbeat CPU 1 instructions: 1840000000 cycles: 1404620783 heartbeat IPC: 1.53043 cumulative IPC: 1.19569 (Simulation time: 5 hr 44 min 1 sec) 
Heartbeat CPU 3 instructions: 800000000 cycles: 1408712896 heartbeat IPC: 0.407885 cumulative IPC: 0.43366 (Simulation time: 5 hr 44 min 51 sec) 
Heartbeat CPU 2 instructions: 880000000 cycles: 1409103681 heartbeat IPC: 0.426944 cumulative IPC: 0.434086 (Simulation time: 5 hr 44 min 56 sec) 
Heartbeat CPU 1 instructions: 1850000002 cycles: 1411274808 heartbeat IPC: 1.50285 cumulative IPC: 1.19731 (Simulation time: 5 hr 45 min 25 sec) 
Heartbeat CPU 1 instructions: 1860000000 cycles: 1418984100 heartbeat IPC: 1.29714 cumulative IPC: 1.19791 (Simulation time: 5 hr 47 min 1 sec) 
Heartbeat CPU 1 instructions: 1870000002 cycles: 1425237290 heartbeat IPC: 1.59918 cumulative IPC: 1.19988 (Simulation time: 5 hr 48 min 31 sec) 
Heartbeat CPU 3 instructions: 810000000 cycles: 1427531284 heartbeat IPC: 0.531395 cumulative IPC: 0.435098 (Simulation time: 5 hr 49 min 5 sec) 
Heartbeat CPU 2 instructions: 890000000 cycles: 1432129491 heartbeat IPC: 0.434295 cumulative IPC: 0.43409 (Simulation time: 5 hr 50 min 11 sec) 
Heartbeat CPU 1 instructions: 1880000000 cycles: 1433217208 heartbeat IPC: 1.25315 cumulative IPC: 1.20021 (Simulation time: 5 hr 50 min 31 sec) 
Heartbeat CPU 0 instructions: 490000000 cycles: 1438154606 heartbeat IPC: 0.219676 cumulative IPC: 0.224854 (Simulation time: 5 hr 51 min 41 sec) 
Heartbeat CPU 1 instructions: 1890000003 cycles: 1440052642 heartbeat IPC: 1.46297 cumulative IPC: 1.2016 (Simulation time: 5 hr 52 min 8 sec) 
Heartbeat CPU 3 instructions: 820000000 cycles: 1443536587 heartbeat IPC: 0.624793 cumulative IPC: 0.437442 (Simulation time: 5 hr 53 min 0 sec) 
Heartbeat CPU 1 instructions: 1900000000 cycles: 1446742115 heartbeat IPC: 1.49489 cumulative IPC: 1.20311 (Simulation time: 5 hr 53 min 44 sec) 
Heartbeat CPU 1 instructions: 1910000002 cycles: 1454436153 heartbeat IPC: 1.29971 cumulative IPC: 1.20368 (Simulation time: 5 hr 55 min 28 sec) 
Heartbeat CPU 2 instructions: 900000000 cycles: 1455232685 heartbeat IPC: 0.432841 cumulative IPC: 0.434068 (Simulation time: 5 hr 55 min 38 sec) 
Heartbeat CPU 1 instructions: 1920000000 cycles: 1462137261 heartbeat IPC: 1.29851 cumulative IPC: 1.20424 (Simulation time: 5 hr 57 min 12 sec) 
Heartbeat CPU 1 instructions: 1930000003 cycles: 1468702155 heartbeat IPC: 1.52325 cumulative IPC: 1.20582 (Simulation time: 5 hr 58 min 45 sec) 
Heartbeat CPU 3 instructions: 830000000 cycles: 1469832766 heartbeat IPC: 0.380283 cumulative IPC: 0.436304 (Simulation time: 5 hr 59 min 3 sec) 
Heartbeat CPU 1 instructions: 1940000000 cycles: 1475294129 heartbeat IPC: 1.517 cumulative IPC: 1.20737 (Simulation time: 6 hr 0 min 19 sec) 
Heartbeat CPU 2 instructions: 910000002 cycles: 1478056519 heartbeat IPC: 0.438139 cumulative IPC: 0.434137 (Simulation time: 6 hr 0 min 57 sec) 
Heartbeat CPU 0 instructions: 500000000 cycles: 1482348158 heartbeat IPC: 0.226277 cumulative IPC: 0.224901 (Simulation time: 6 hr 1 min 55 sec) 
Heartbeat CPU 1 instructions: 1950000001 cycles: 1482560370 heartbeat IPC: 1.37623 cumulative IPC: 1.20829 (Simulation time: 6 hr 1 min 58 sec) 
Heartbeat CPU 1 instructions: 1960000000 cycles: 1489490200 heartbeat IPC: 1.44304 cumulative IPC: 1.2095 (Simulation time: 6 hr 3 min 36 sec) 
Heartbeat CPU 3 instructions: 840000000 cycles: 1494644703 heartbeat IPC: 0.403032 cumulative IPC: 0.435691 (Simulation time: 6 hr 4 min 57 sec) 
Heartbeat CPU 1 instructions: 1970000000 cycles: 1496396576 heartbeat IPC: 1.44794 cumulative IPC: 1.21072 (Simulation time: 6 hr 5 min 26 sec) 
Heartbeat CPU 2 instructions: 920000000 cycles: 1501096635 heartbeat IPC: 0.434025 cumulative IPC: 0.434136 (Simulation time: 6 hr 6 min 33 sec) 
Heartbeat CPU 1 instructions: 1980000000 cycles: 1502764850 heartbeat IPC: 1.57028 cumulative IPC: 1.21241 (Simulation time: 6 hr 6 min 54 sec) 
Heartbeat CPU 1 instructions: 1990000000 cycles: 1509179549 heartbeat IPC: 1.55892 cumulative IPC: 1.21405 (Simulation time: 6 hr 8 min 17 sec) 
*** Reached end of trace for Core: 1 Repeating trace: /scratch/user/djimenez/champsim-traces/speccpu2017/xz/648.exchange2_s/648.exchange2_s-387B.champsimtrace.xz
Heartbeat CPU 1 instructions: 2000000000 cycles: 1515530626 heartbeat IPC: 1.57454 cumulative IPC: 1.21572 (Simulation time: 6 hr 9 min 40 sec) 
Heartbeat CPU 3 instructions: 850000000 cycles: 1520517241 heartbeat IPC: 0.38651 cumulative IPC: 0.434764 (Simulation time: 6 hr 10 min 49 sec) 
Heartbeat CPU 1 instructions: 2010000001 cycles: 1521903477 heartbeat IPC: 1.56916 cumulative IPC: 1.21736 (Simulation time: 6 hr 11 min 7 sec) 
Heartbeat CPU 2 instructions: 930000001 cycles: 1524105793 heartbeat IPC: 0.43461 cumulative IPC: 0.434143 (Simulation time: 6 hr 11 min 33 sec) 
Heartbeat CPU 0 instructions: 510000000 cycles: 1527214395 heartbeat IPC: 0.222885 cumulative IPC: 0.224835 (Simulation time: 6 hr 12 min 8 sec) 
Heartbeat CPU 1 instructions: 2020000000 cycles: 1531590961 heartbeat IPC: 1.03226 cumulative IPC: 1.21606 (Simulation time: 6 hr 12 min 59 sec) 
Heartbeat CPU 1 instructions: 2030000000 cycles: 1541598798 heartbeat IPC: 0.999217 cumulative IPC: 1.21451 (Simulation time: 6 hr 14 min 58 sec) 
Heartbeat CPU 3 instructions: 860000000 cycles: 1542736952 heartbeat IPC: 0.450051 cumulative IPC: 0.435007 (Simulation time: 6 hr 15 min 12 sec) 
Heartbeat CPU 2 instructions: 940000000 cycles: 1547122251 heartbeat IPC: 0.434472 cumulative IPC: 0.434149 (Simulation time: 6 hr 16 min 16 sec) 
Heartbeat CPU 1 instructions: 2040000000 cycles: 1551123915 heartbeat IPC: 1.04986 cumulative IPC: 1.21339 (Simulation time: 6 hr 17 min 10 sec) 
Heartbeat CPU 1 instructions: 2050000001 cycles: 1560821889 heartbeat IPC: 1.03114 cumulative IPC: 1.21214 (Simulation time: 6 hr 19 min 21 sec) 
Heartbeat CPU 3 instructions: 870000001 cycles: 1569572192 heartbeat IPC: 0.372644 cumulative IPC: 0.43383 (Simulation time: 6 hr 21 min 19 sec) 
Heartbeat CPU 2 instructions: 950000000 cycles: 1570147144 heartbeat IPC: 0.434313 cumulative IPC: 0.434152 (Simulation time: 6 hr 21 min 26 sec) 
Heartbeat CPU 1 instructions: 2060000000 cycles: 1570947473 heartbeat IPC: 0.987597 cumulative IPC: 1.21054 (Simulation time: 6 hr 21 min 35 sec) 
Heartbeat CPU 0 instructions: 520000000 cycles: 1571979168 heartbeat IPC: 0.22339 cumulative IPC: 0.22479 (Simulation time: 6 hr 21 min 47 sec) 
Heartbeat CPU 1 instructions: 2070000003 cycles: 1580935542 heartbeat IPC: 1.00119 cumulative IPC: 1.20908 (Simulation time: 6 hr 23 min 26 sec) 
Heartbeat CPU 1 instructions: 2080000000 cycles: 1591051776 heartbeat IPC: 0.98851 cumulative IPC: 1.20753 (Simulation time: 6 hr 25 min 23 sec) 
Heartbeat CPU 2 instructions: 960000000 cycles: 1593313062 heartbeat IPC: 0.431669 cumulative IPC: 0.434112 (Simulation time: 6 hr 25 min 50 sec) 
Heartbeat CPU 3 instructions: 880000000 cycles: 1595382879 heartbeat IPC: 0.387436 cumulative IPC: 0.433002 (Simulation time: 6 hr 26 min 14 sec) 
Heartbeat CPU 1 instructions: 2090000001 cycles: 1600779813 heartbeat IPC: 1.02796 cumulative IPC: 1.20633 (Simulation time: 6 hr 27 min 16 sec) 
Heartbeat CPU 1 instructions: 2100000000 cycles: 1610661512 heartbeat IPC: 1.01197 cumulative IPC: 1.20502 (Simulation time: 6 hr 29 min 19 sec) 
Heartbeat CPU 3 instructions: 890000000 cycles: 1613503536 heartbeat IPC: 0.551856 cumulative IPC: 0.434472 (Simulation time: 6 hr 29 min 53 sec) 
Heartbeat CPU 0 instructions: 530000001 cycles: 1616260092 heartbeat IPC: 0.225831 cumulative IPC: 0.224821 (Simulation time: 6 hr 30 min 27 sec) 
Heartbeat CPU 2 instructions: 970000002 cycles: 1616421480 heartbeat IPC: 0.432743 cumulative IPC: 0.43409 (Simulation time: 6 hr 30 min 28 sec) 
Heartbeat CPU 1 instructions: 2110000003 cycles: 1620216739 heartbeat IPC: 1.04655 cumulative IPC: 1.20399 (Simulation time: 6 hr 31 min 12 sec) 
Heartbeat CPU 1 instructions: 2120000000 cycles: 1630154463 heartbeat IPC: 1.00627 cumulative IPC: 1.20266 (Simulation time: 6 hr 33 min 3 sec) 
Heartbeat CPU 2 instructions: 980000000 cycles: 1639602718 heartbeat IPC: 0.431383 cumulative IPC: 0.434048 (Simulation time: 6 hr 34 min 51 sec) 
Heartbeat CPU 3 instructions: 900000000 cycles: 1639790731 heartbeat IPC: 0.380413 cumulative IPC: 0.433519 (Simulation time: 6 hr 34 min 53 sec) 
Heartbeat CPU 1 instructions: 2130000002 cycles: 1640053201 heartbeat IPC: 1.01023 cumulative IPC: 1.20138 (Simulation time: 6 hr 34 min 56 sec) 
Heartbeat CPU 1 instructions: 2140000000 cycles: 1650073188 heartbeat IPC: 0.998005 cumulative IPC: 1.20003 (Simulation time: 6 hr 36 min 54 sec) 
Heartbeat CPU 1 instructions: 2150000000 cycles: 1659620835 heartbeat IPC: 1.04738 cumulative IPC: 1.19906 (Simulation time: 6 hr 39 min 1 sec) 
Heartbeat CPU 0 instructions: 540000000 cycles: 1661544247 heartbeat IPC: 0.220828 cumulative IPC: 0.224702 (Simulation time: 6 hr 39 min 30 sec) 
Heartbeat CPU 2 instructions: 990000000 cycles: 1663043779 heartbeat IPC: 0.426602 cumulative IPC: 0.433933 (Simulation time: 6 hr 39 min 56 sec) 
Heartbeat CPU 3 instructions: 910000003 cycles: 1665193359 heartbeat IPC: 0.39366 cumulative IPC: 0.432852 (Simulation time: 6 hr 40 min 25 sec) 
Heartbeat CPU 1 instructions: 2160000000 cycles: 1667030260 heartbeat IPC: 1.34963 cumulative IPC: 1.1998 (Simulation time: 6 hr 40 min 47 sec) 
Heartbeat CPU 1 instructions: 2170000002 cycles: 1676750989 heartbeat IPC: 1.02873 cumulative IPC: 1.19871 (Simulation time: 6 hr 42 min 58 sec) 
Heartbeat CPU 3 instructions: 920000000 cycles: 1685377296 heartbeat IPC: 0.495443 cumulative IPC: 0.433674 (Simulation time: 6 hr 45 min 1 sec) 
Heartbeat CPU 2 instructions: 1000000000 cycles: 1686153681 heartbeat IPC: 0.432715 cumulative IPC: 0.433915 (Simulation time: 6 hr 45 min 11 sec) 
Heartbeat CPU 1 instructions: 2180000000 cycles: 1686200214 heartbeat IPC: 1.05829 cumulative IPC: 1.19785 (Simulation time: 6 hr 45 min 11 sec) 
Heartbeat CPU 1 instructions: 2190000002 cycles: 1695805144 heartbeat IPC: 1.04113 cumulative IPC: 1.19687 (Simulation time: 6 hr 47 min 11 sec) 
Heartbeat CPU 3 instructions: 930000000 cycles: 1702720368 heartbeat IPC: 0.576599 cumulative IPC: 0.435269 (Simulation time: 6 hr 48 min 32 sec) 
Heartbeat CPU 1 instructions: 2200000000 cycles: 1705064589 heartbeat IPC: 1.07998 cumulative IPC: 1.19618 (Simulation time: 6 hr 49 min 0 sec) 
Heartbeat CPU 0 instructions: 550000000 cycles: 1706489857 heartbeat IPC: 0.222491 cumulative IPC: 0.224638 (Simulation time: 6 hr 49 min 17 sec) 
Heartbeat CPU 2 instructions: 1010000001 cycles: 1709273990 heartbeat IPC: 0.43252 cumulative IPC: 0.433894 (Simulation time: 6 hr 49 min 49 sec) 
Heartbeat CPU 1 instructions: 2210000000 cycles: 1712827456 heartbeat IPC: 1.28818 cumulative IPC: 1.19664 (Simulation time: 6 hr 50 min 33 sec) 
Heartbeat CPU 1 instructions: 2220000000 cycles: 1720396182 heartbeat IPC: 1.32123 cumulative IPC: 1.19724 (Simulation time: 6 hr 52 min 20 sec) 
Heartbeat CPU 1 instructions: 2230000000 cycles: 1727838696 heartbeat IPC: 1.34363 cumulative IPC: 1.19792 (Simulation time: 6 hr 53 min 56 sec) 
Heartbeat CPU 3 instructions: 940000000 cycles: 1730798112 heartbeat IPC: 0.356154 cumulative IPC: 0.433865 (Simulation time: 6 hr 54 min 34 sec) 
Heartbeat CPU 2 instructions: 1020000000 cycles: 1732838658 heartbeat IPC: 0.424364 cumulative IPC: 0.433752 (Simulation time: 6 hr 55 min 1 sec) 
Heartbeat CPU 1 instructions: 2240000000 cycles: 1734156924 heartbeat IPC: 1.58272 cumulative IPC: 1.19946 (Simulation time: 6 hr 55 min 18 sec) 
Heartbeat CPU 1 instructions: 2250000003 cycles: 1743088084 heartbeat IPC: 1.11968 cumulative IPC: 1.19901 (Simulation time: 6 hr 57 min 3 sec) 
Heartbeat CPU 0 instructions: 560000000 cycles: 1751556038 heartbeat IPC: 0.221896 cumulative IPC: 0.224561 (Simulation time: 6 hr 58 min 50 sec) 
Heartbeat CPU 1 instructions: 2260000000 cycles: 1752924066 heartbeat IPC: 1.01667 cumulative IPC: 1.19789 (Simulation time: 6 hr 59 min 8 sec) 
Heartbeat CPU 3 instructions: 950000001 cycles: 1756300427 heartbeat IPC: 0.392121 cumulative IPC: 0.433203 (Simulation time: 6 hr 59 min 49 sec) 
Heartbeat CPU 2 instructions: 1030000003 cycles: 1756762344 heartbeat IPC: 0.417996 cumulative IPC: 0.433518 (Simulation time: 6 hr 59 min 55 sec) 
Heartbeat CPU 1 instructions: 2270000000 cycles: 1762832463 heartbeat IPC: 1.00925 cumulative IPC: 1.19674 (Simulation time: 7 hr 1 min 14 sec) 
Heartbeat CPU 1 instructions: 2280000000 cycles: 1771772648 heartbeat IPC: 1.11855 cumulative IPC: 1.19631 (Simulation time: 7 hr 3 min 7 sec) 
Heartbeat CPU 3 instructions: 960000000 cycles: 1779874242 heartbeat IPC: 0.424199 cumulative IPC: 0.433073 (Simulation time: 7 hr 6 min 0 sec) 
Heartbeat CPU 2 instructions: 1040000000 cycles: 1780397959 heartbeat IPC: 0.42309 cumulative IPC: 0.433367 (Simulation time: 7 hr 6 min 6 sec) 
Heartbeat CPU 1 instructions: 2290000001 cycles: 1780767947 heartbeat IPC: 1.11169 cumulative IPC: 1.19584 (Simulation time: 7 hr 6 min 11 sec) 
Heartbeat CPU 1 instructions: 2300000000 cycles: 1789550347 heartbeat IPC: 1.13864 cumulative IPC: 1.19553 (Simulation time: 7 hr 7 min 57 sec) 
Heartbeat CPU 0 instructions: 570000000 cycles: 1797035632 heartbeat IPC: 0.219879 cumulative IPC: 0.224432 (Simulation time: 7 hr 9 min 44 sec) 
Heartbeat CPU 1 instructions: 2310000002 cycles: 1797723920 heartbeat IPC: 1.22346 cumulative IPC: 1.19567 (Simulation time: 7 hr 10 min 0 sec) 
Heartbeat CPU 3 instructions: 970000001 cycles: 1802160299 heartbeat IPC: 0.448711 cumulative IPC: 0.433283 (Simulation time: 7 hr 11 min 18 sec) 
Heartbeat CPU 2 instructions: 1050000001 cycles: 1803794377 heartbeat IPC: 0.427416 cumulative IPC: 0.433283 (Simulation time: 7 hr 11 min 40 sec) 
Heartbeat CPU 1 instructions: 2320000000 cycles: 1804299867 heartbeat IPC: 1.52069 cumulative IPC: 1.19696 (Simulation time: 7 hr 11 min 47 sec) 
Heartbeat CPU 1 instructions: 2330000001 cycles: 1811826556 heartbeat IPC: 1.32861 cumulative IPC: 1.19756 (Simulation time: 7 hr 13 min 24 sec) 
Heartbeat CPU 1 instructions: 2340000000 cycles: 1820160597 heartbeat IPC: 1.1999 cumulative IPC: 1.19757 (Simulation time: 7 hr 15 min 9 sec) 
Heartbeat CPU 3 instructions: 980000000 cycles: 1823530823 heartbeat IPC: 0.467934 cumulative IPC: 0.433725 (Simulation time: 7 hr 16 min 25 sec) 
Heartbeat CPU 2 instructions: 1060000000 cycles: 1827124917 heartbeat IPC: 0.428623 cumulative IPC: 0.433218 (Simulation time: 7 hr 17 min 9 sec) 
Heartbeat CPU 1 instructions: 2350000003 cycles: 1828315023 heartbeat IPC: 1.22633 cumulative IPC: 1.19771 (Simulation time: 7 hr 17 min 24 sec) 
Heartbeat CPU 1 instructions: 2360000000 cycles: 1836460630 heartbeat IPC: 1.22766 cumulative IPC: 1.19785 (Simulation time: 7 hr 19 min 5 sec) 
Heartbeat CPU 0 instructions: 580000000 cycles: 1842031476 heartbeat IPC: 0.222243 cumulative IPC: 0.224373 (Simulation time: 7 hr 20 min 16 sec) 
Heartbeat CPU 3 instructions: 990000002 cycles: 1842871752 heartbeat IPC: 0.517038 cumulative IPC: 0.434676 (Simulation time: 7 hr 20 min 28 sec) 
Heartbeat CPU 1 instructions: 2370000003 cycles: 1845122600 heartbeat IPC: 1.15447 cumulative IPC: 1.19763 (Simulation time: 7 hr 20 min 58 sec) 
Heartbeat CPU 2 instructions: 1070000003 cycles: 1850168818 heartbeat IPC: 0.433954 cumulative IPC: 0.433228 (Simulation time: 7 hr 22 min 7 sec) 
Heartbeat CPU 1 instructions: 2380000000 cycles: 1854093006 heartbeat IPC: 1.11478 cumulative IPC: 1.1972 (Simulation time: 7 hr 22 min 59 sec) 
Heartbeat CPU 3 instructions: 1000000000 cycles: 1855283275 heartbeat IPC: 0.805703 cumulative IPC: 0.437374 (Simulation time: 7 hr 23 min 15 sec) 
Heartbeat CPU 1 instructions: 2390000002 cycles: 1863928291 heartbeat IPC: 1.01675 cumulative IPC: 1.19616 (Simulation time: 7 hr 25 min 8 sec) 
Heartbeat CPU 3 instructions: 1010000000 cycles: 1868631871 heartbeat IPC: 0.749142 cumulative IPC: 0.439794 (Simulation time: 7 hr 26 min 9 sec) 
Heartbeat CPU 1 instructions: 2400000000 cycles: 1872955621 heartbeat IPC: 1.10775 cumulative IPC: 1.1957 (Simulation time: 7 hr 27 min 6 sec) 
Heartbeat CPU 2 instructions: 1080000000 cycles: 1872996795 heartbeat IPC: 0.438059 cumulative IPC: 0.433292 (Simulation time: 7 hr 27 min 6 sec) 
Heartbeat CPU 1 instructions: 2410000000 cycles: 1881271476 heartbeat IPC: 1.20252 cumulative IPC: 1.19573 (Simulation time: 7 hr 28 min 56 sec) 
Heartbeat CPU 3 instructions: 1020000000 cycles: 1883009800 heartbeat IPC: 0.69551 cumulative IPC: 0.441913 (Simulation time: 7 hr 29 min 19 sec) 
Heartbeat CPU 0 instructions: 590000002 cycles: 1886917843 heartbeat IPC: 0.222785 cumulative IPC: 0.224332 (Simulation time: 7 hr 30 min 7 sec) 
Heartbeat CPU 1 instructions: 2420000000 cycles: 1889754442 heartbeat IPC: 1.17883 cumulative IPC: 1.19565 (Simulation time: 7 hr 30 min 46 sec) 
Heartbeat CPU 2 instructions: 1090000001 cycles: 1895662593 heartbeat IPC: 0.441193 cumulative IPC: 0.433394 (Simulation time: 7 hr 32 min 8 sec) 
Heartbeat CPU 1 instructions: 2430000002 cycles: 1896089274 heartbeat IPC: 1.57857 cumulative IPC: 1.19704 (Simulation time: 7 hr 32 min 14 sec) 
Heartbeat CPU 3 instructions: 1030000003 cycles: 1899225925 heartbeat IPC: 0.61667 cumulative IPC: 0.443532 (Simulation time: 7 hr 32 min 57 sec) 
Heartbeat CPU 1 instructions: 2440000000 cycles: 1902471998 heartbeat IPC: 1.56673 cumulative IPC: 1.19838 (Simulation time: 7 hr 33 min 41 sec) 
Heartbeat CPU 1 instructions: 2450000000 cycles: 1908859110 heartbeat IPC: 1.56565 cumulative IPC: 1.19971 (Simulation time: 7 hr 35 min 6 sec) 
Heartbeat CPU 1 instructions: 2460000000 cycles: 1915512551 heartbeat IPC: 1.50298 cumulative IPC: 1.20086 (Simulation time: 7 hr 36 min 30 sec) 
Heartbeat CPU 2 instructions: 1100000000 cycles: 1918398023 heartbeat IPC: 0.439842 cumulative IPC: 0.433477 (Simulation time: 7 hr 37 min 1 sec) 
Heartbeat CPU 3 instructions: 1040000000 cycles: 1920055276 heartbeat IPC: 0.480092 cumulative IPC: 0.443962 (Simulation time: 7 hr 37 min 18 sec) 
Heartbeat CPU 1 instructions: 2470000001 cycles: 1925188826 heartbeat IPC: 1.03346 cumulative IPC: 1.19995 (Simulation time: 7 hr 38 min 10 sec) 
Heartbeat CPU 0 instructions: 600000000 cycles: 1931325494 heartbeat IPC: 0.225186 cumulative IPC: 0.224354 (Simulation time: 7 hr 39 min 20 sec) 
Heartbeat CPU 1 instructions: 2480000000 cycles: 1932794428 heartbeat IPC: 1.31482 cumulative IPC: 1.20043 (Simulation time: 7 hr 39 min 35 sec) 
Heartbeat CPU 2 instructions: 1110000000 cycles: 1941300100 heartbeat IPC: 0.436642 cumulative IPC: 0.433518 (Simulation time: 7 hr 41 min 8 sec) 
Heartbeat CPU 1 instructions: 2490000001 cycles: 1941850476 heartbeat IPC: 1.10423 cumulative IPC: 1.19995 (Simulation time: 7 hr 41 min 14 sec) 
Heartbeat CPU 3 instructions: 1050000000 cycles: 1947754126 heartbeat IPC: 0.361026 cumulative IPC: 0.442685 (Simulation time: 7 hr 42 min 16 sec) 
Heartbeat CPU 1 instructions: 2500000000 cycles: 1951312179 heartbeat IPC: 1.05689 cumulative IPC: 1.1992 (Simulation time: 7 hr 42 min 57 sec) 
Heartbeat CPU 1 instructions: 2510000002 cycles: 1958576526 heartbeat IPC: 1.37659 cumulative IPC: 1.19991 (Simulation time: 7 hr 44 min 22 sec) 
Heartbeat CPU 2 instructions: 1120000000 cycles: 1963878721 heartbeat IPC: 0.442897 cumulative IPC: 0.433634 (Simulation time: 7 hr 45 min 17 sec) 
Heartbeat CPU 1 instructions: 2520000000 cycles: 1967649534 heartbeat IPC: 1.10217 cumulative IPC: 1.19942 (Simulation time: 7 hr 45 min 59 sec) 
Heartbeat CPU 3 instructions: 1060000000 cycles: 1974839862 heartbeat IPC: 0.369198 cumulative IPC: 0.441595 (Simulation time: 7 hr 47 min 14 sec) 
Heartbeat CPU 0 instructions: 610000000 cycles: 1975640934 heartbeat IPC: 0.225655 cumulative IPC: 0.224385 (Simulation time: 7 hr 47 min 23 sec) 
Heartbeat CPU 1 instructions: 2530000000 cycles: 1977048787 heartbeat IPC: 1.06391 cumulative IPC: 1.19873 (Simulation time: 7 hr 47 min 37 sec) 
Heartbeat CPU 1 instructions: 2540000000 cycles: 1986246931 heartbeat IPC: 1.08718 cumulative IPC: 1.19817 (Simulation time: 7 hr 49 min 16 sec) 
Heartbeat CPU 2 instructions: 1130000002 cycles: 1987518061 heartbeat IPC: 0.423024 cumulative IPC: 0.433498 (Simulation time: 7 hr 49 min 29 sec) 
Heartbeat CPU 1 instructions: 2550000000 cycles: 1995258048 heartbeat IPC: 1.10974 cumulative IPC: 1.19774 (Simulation time: 7 hr 50 min 52 sec) 
Heartbeat CPU 3 instructions: 1070000001 cycles: 2003190994 heartbeat IPC: 0.35272 cumulative IPC: 0.440237 (Simulation time: 7 hr 52 min 18 sec) 
Heartbeat CPU 1 instructions: 2560000000 cycles: 2003931701 heartbeat IPC: 1.15292 cumulative IPC: 1.19753 (Simulation time: 7 hr 52 min 26 sec) 
Heartbeat CPU 2 instructions: 1140000000 cycles: 2011943817 heartbeat IPC: 0.409404 cumulative IPC: 0.433182 (Simulation time: 7 hr 53 min 55 sec) 
Heartbeat CPU 1 instructions: 2570000000 cycles: 2012168576 heartbeat IPC: 1.21405 cumulative IPC: 1.1976 (Simulation time: 7 hr 53 min 57 sec) 
Heartbeat CPU 1 instructions: 2580000000 cycles: 2020600553 heartbeat IPC: 1.18596 cumulative IPC: 1.19755 (Simulation time: 7 hr 55 min 29 sec) 
Heartbeat CPU 0 instructions: 620000000 cycles: 2021395757 heartbeat IPC: 0.218556 cumulative IPC: 0.224243 (Simulation time: 7 hr 55 min 38 sec) 
Heartbeat CPU 1 instructions: 2590000001 cycles: 2028307355 heartbeat IPC: 1.29756 cumulative IPC: 1.19796 (Simulation time: 7 hr 56 min 57 sec) 
[...]
Heartbeat CPU 3 instructions: 2180000000 cycles: 4441791588 heartbeat IPC: 0.375828 cumulative IPC: 0.448724 (Simulation time: 13 hr 42 min 39 sec) 
Heartbeat CPU 1 instructions: 5450000003 cycles: 4445333457 heartbeat IPC: 1.18917 cumulative IPC: 1.1897 (Simulation time: 13 hr 43 min 6 sec) 
Heartbeat CPU 2 instructions: 2200000000 cycles: 4452735425 heartbeat IPC: 0.435726 cumulative IPC: 0.433808 (Simulation time: 13 hr 44 min 4 sec) 
Heartbeat CPU 1 instructions: 5460000000 cycles: 4453782884 heartbeat IPC: 1.18351 cumulative IPC: 1.18968 (Simulation time: 13 hr 44 min 12 sec) 
Heartbeat CPU 1 instructions: 5470000000 cycles: 4460467626 heartbeat IPC: 1.49594 cumulative IPC: 1.19016 (Simulation time: 13 hr 45 min 3 sec) 
Heartbeat CPU 3 instructions: 2190000001 cycles: 4462719749 heartbeat IPC: 0.477825 cumulative IPC: 0.448865 (Simulation time: 13 hr 45 min 18 sec) 
Heartbeat CPU 0 instructions: 1170000000 cycles: 4467277699 heartbeat IPC: 0.224639 cumulative IPC: 0.224597 (Simulation time: 13 hr 45 min 52 sec) 
Heartbeat CPU 1 instructions: 5480000000 cycles: 4468894092 heartbeat IPC: 1.18674 cumulative IPC: 1.19015 (Simulation time: 13 hr 46 min 4 sec) 
Heartbeat CPU 2 instructions: 2210000003 cycles: 4475945813 heartbeat IPC: 0.430842 cumulative IPC: 0.433792 (Simulation time: 13 hr 46 min 55 sec) 
Heartbeat CPU 1 instructions: 5490000003 cycles: 4477376474 heartbeat IPC: 1.17891 cumulative IPC: 1.19013 (Simulation time: 13 hr 47 min 6 sec) 
Heartbeat CPU 1 instructions: 5500000000 cycles: 4484998648 heartbeat IPC: 1.31196 cumulative IPC: 1.19035 (Simulation time: 13 hr 48 min 4 sec) 
Heartbeat CPU 3 instructions: 2200000000 cycles: 4489819585 heartbeat IPC: 0.369006 cumulative IPC: 0.448367 (Simulation time: 13 hr 48 min 40 sec) 
Heartbeat CPU 1 instructions: 5510000001 cycles: 4493047812 heartbeat IPC: 1.24237 cumulative IPC: 1.19044 (Simulation time: 13 hr 49 min 4 sec) 
Heartbeat CPU 2 instructions: 2220000000 cycles: 4499349351 heartbeat IPC: 0.427286 cumulative IPC: 0.433757 (Simulation time: 13 hr 49 min 54 sec) 
Heartbeat CPU 1 instructions: 5520000000 cycles: 4499737555 heartbeat IPC: 1.49483 cumulative IPC: 1.19091 (Simulation time: 13 hr 49 min 57 sec) 
Heartbeat CPU 1 instructions: 5530000001 cycles: 4508724291 heartbeat IPC: 1.11275 cumulative IPC: 1.19075 (Simulation time: 13 hr 51 min 1 sec) 
Heartbeat CPU 0 instructions: 1180000000 cycles: 4511124390 heartbeat IPC: 0.228067 cumulative IPC: 0.224632 (Simulation time: 13 hr 51 min 18 sec) 
Heartbeat CPU 3 instructions: 2210000003 cycles: 4514345184 heartbeat IPC: 0.407737 cumulative IPC: 0.448138 (Simulation time: 13 hr 51 min 41 sec) 
Heartbeat CPU 1 instructions: 5540000000 cycles: 4518412719 heartbeat IPC: 1.03216 cumulative IPC: 1.1904 (Simulation time: 13 hr 52 min 11 sec) 
Heartbeat CPU 2 instructions: 2230000002 cycles: 4522877339 heartbeat IPC: 0.425026 cumulative IPC: 0.43371 (Simulation time: 13 hr 52 min 43 sec) 
Heartbeat CPU 1 instructions: 5550000001 cycles: 4528052787 heartbeat IPC: 1.03734 cumulative IPC: 1.19006 (Simulation time: 13 hr 53 min 20 sec) 
Heartbeat CPU 1 instructions: 5560000000 cycles: 4534816006 heartbeat IPC: 1.47859 cumulative IPC: 1.1905 (Simulation time: 13 hr 54 min 14 sec) 
Heartbeat CPU 3 instructions: 2220000000 cycles: 4537362088 heartbeat IPC: 0.434463 cumulative IPC: 0.448067 (Simulation time: 13 hr 54 min 35 sec) 
Heartbeat CPU 1 instructions: 5570000000 cycles: 4542197976 heartbeat IPC: 1.35465 cumulative IPC: 1.19078 (Simulation time: 13 hr 55 min 11 sec) 
Heartbeat CPU 2 instructions: 2240000000 cycles: 4546168933 heartbeat IPC: 0.429339 cumulative IPC: 0.433687 (Simulation time: 13 hr 55 min 43 sec) 
Heartbeat CPU 1 instructions: 5580000000 cycles: 4549619378 heartbeat IPC: 1.34745 cumulative IPC: 1.19104 (Simulation time: 13 hr 56 min 13 sec) 
Heartbeat CPU 3 instructions: 2230000001 cycles: 4553466286 heartbeat IPC: 0.620956 cumulative IPC: 0.448699 (Simulation time: 13 hr 56 min 47 sec) 
Heartbeat CPU 0 instructions: 1190000001 cycles: 4555762826 heartbeat IPC: 0.224022 cumulative IPC: 0.224625 (Simulation time: 13 hr 57 min 8 sec) 
Heartbeat CPU 1 instructions: 5590000002 cycles: 4556004840 heartbeat IPC: 1.56606 cumulative IPC: 1.19159 (Simulation time: 13 hr 57 min 10 sec) 
Heartbeat CPU 1 instructions: 5600000000 cycles: 4562982519 heartbeat IPC: 1.43314 cumulative IPC: 1.19197 (Simulation time: 13 hr 58 min 9 sec) 
Heartbeat CPU 3 instructions: 2240000000 cycles: 4568076668 heartbeat IPC: 0.684445 cumulative IPC: 0.449478 (Simulation time: 13 hr 58 min 48 sec) 
Heartbeat CPU 2 instructions: 2250000000 cycles: 4568862284 heartbeat IPC: 0.440658 cumulative IPC: 0.433722 (Simulation time: 13 hr 58 min 55 sec) 
Heartbeat CPU 1 instructions: 5610000001 cycles: 4570935265 heartbeat IPC: 1.25743 cumulative IPC: 1.19209 (Simulation time: 13 hr 59 min 12 sec) 
Heartbeat CPU 1 instructions: 5620000000 cycles: 4579542266 heartbeat IPC: 1.16184 cumulative IPC: 1.19203 (Simulation time: 14 hr 0 min 17 sec) 
Heartbeat CPU 1 instructions: 5630000002 cycles: 4586927624 heartbeat IPC: 1.35403 cumulative IPC: 1.1923 (Simulation time: 14 hr 1 min 12 sec) 
Heartbeat CPU 3 instructions: 2250000001 cycles: 4587653237 heartbeat IPC: 0.510815 cumulative IPC: 0.449748 (Simulation time: 14 hr 1 min 17 sec) 
Heartbeat CPU 2 instructions: 2260000000 cycles: 4591670075 heartbeat IPC: 0.438447 cumulative IPC: 0.433747 (Simulation time: 14 hr 1 min 48 sec) 
Heartbeat CPU 1 instructions: 5640000000 cycles: 4593098216 heartbeat IPC: 1.62059 cumulative IPC: 1.19289 (Simulation time: 14 hr 1 min 59 sec) 
Heartbeat CPU 1 instructions: 5650000000 cycles: 4599350009 heartbeat IPC: 1.59954 cumulative IPC: 1.19346 (Simulation time: 14 hr 2 min 48 sec) 
Heartbeat CPU 0 instructions: 1200000000 cycles: 4599820852 heartbeat IPC: 0.226973 cumulative IPC: 0.224649 (Simulation time: 14 hr 2 min 52 sec) 
Finished CPU 0 instructions: 1000000000 cycles: 4451394225 cumulative IPC: 0.224649 (Simulation time: 14 hr 2 min 52 sec) 

CPU 0 Branch Prediction Accuracy: 96.1636% MPKI: 5.73015

CPU 1 Branch Prediction Accuracy: 96.6386% MPKI: 4.99352

CPU 2 Branch Prediction Accuracy: 99.975% MPKI: 0.00410005

CPU 3 Branch Prediction Accuracy: 99.2384% MPKI: 1.88696

ChampSim completed all CPUs

Total Simulation Statistics (not including warmup)

CPU 0 cumulative IPC: 0.224649 instructions: 1000000000 cycles: 4451394225
L1D TOTAL     ACCESS:  447574644  HIT:  426976974  MISS:   20597670
L1D LOAD      ACCESS:  266486379  HIT:  248395885  MISS:   18090494
L1D RFO       ACCESS:  181088265  HIT:  178581089  MISS:    2507176
L1D PREFETCH  ACCESS:          0  HIT:          0  MISS:          0
L1D WRITEBACK ACCESS:          0  HIT:          0  MISS:          0
L1I TOTAL     ACCESS:  351139591  HIT:  350484782  MISS:     654809
L1I LOAD      ACCESS:  351139591  HIT:  350484782  MISS:     654809
L1I RFO       ACCESS:          0  HIT:          0  MISS:          0
L1I PREFETCH  ACCESS:          0  HIT:          0  MISS:          0
L1I WRITEBACK ACCESS:          0  HIT:          0  MISS:          0
L2C TOTAL     ACCESS:   31018445  HIT:   15817944  MISS:   15200501
L2C LOAD      ACCESS:   18744577  HIT:    5657507  MISS:   13087070
L2C RFO       ACCESS:    2507047  HIT:     425343  MISS:    2081704
L2C PREFETCH  ACCESS:          0  HIT:          0  MISS:          0
L2C WRITEBACK ACCESS:    9766821  HIT:    9735094  MISS:      31727
LLC TOTAL     ACCESS:   22640115  HIT:   12835971  MISS:    9804144
LLC LOAD      ACCESS:   13087050  HIT:    4277660  MISS:    8809390
LLC RFO       ACCESS:    2081697  HIT:    1093327  MISS:     988370
LLC PREFETCH  ACCESS:          0  HIT:          0  MISS:          0
LLC WRITEBACK ACCESS:    7471368  HIT:    7464984  MISS:       6384

CPU 1 cumulative IPC: 1.19351 instructions: 5312799611 cycles: 4451394226
L1D TOTAL     ACCESS: 1392537986  HIT: 1392537986  MISS:          0
L1D LOAD      ACCESS:  682801663  HIT:  682801663  MISS:          0
L1D RFO       ACCESS:  709736323  HIT:  709736323  MISS:          0
L1D PREFETCH  ACCESS:          0  HIT:          0  MISS:          0
L1D WRITEBACK ACCESS:          0  HIT:          0  MISS:          0
L1I TOTAL     ACCESS: 1255496748  HIT: 1253922540  MISS:    1574208
L1I LOAD      ACCESS: 1255496748  HIT: 1253922540  MISS:    1574208
L1I RFO       ACCESS:          0  HIT:          0  MISS:          0
L1I PREFETCH  ACCESS:          0  HIT:          0  MISS:          0
L1I WRITEBACK ACCESS:          0  HIT:          0  MISS:          0
L2C TOTAL     ACCESS:    1574208  HIT:    1574113  MISS:         95
L2C LOAD      ACCESS:    1574208  HIT:    1574113  MISS:         95
L2C RFO       ACCESS:          0  HIT:          0  MISS:          0
L2C PREFETCH  ACCESS:          0  HIT:          0  MISS:          0
L2C WRITEBACK ACCESS:          0  HIT:          0  MISS:          0
LLC TOTAL     ACCESS:         95  HIT:          0  MISS:         95
LLC LOAD      ACCESS:         95  HIT:          0  MISS:         95
LLC RFO       ACCESS:          0  HIT:          0  MISS:          0
LLC PREFETCH  ACCESS:          0  HIT:          0  MISS:          0
LLC WRITEBACK ACCESS:          0  HIT:          0  MISS:          0

CPU 2 cumulative IPC: 0.433769 instructions: 1930874789 cycles: 4451394226
L1D TOTAL     ACCESS:  398048280  HIT:  372495498  MISS:   25552782
L1D LOAD      ACCESS:  262555942  HIT:  237032777  MISS:   25523165
L1D RFO       ACCESS:  135492338  HIT:  135462721  MISS:      29617
L1D PREFETCH  ACCESS:          0  HIT:          0  MISS:          0
L1D WRITEBACK ACCESS:          0  HIT:          0  MISS:          0
L1I TOTAL     ACCESS:  385524266  HIT:  385524266  MISS:          0
L1I LOAD      ACCESS:  385524266  HIT:  385524266  MISS:          0
L1I RFO       ACCESS:          0  HIT:          0  MISS:          0
L1I PREFETCH  ACCESS:          0  HIT:          0  MISS:          0
L1I WRITEBACK ACCESS:          0  HIT:          0  MISS:          0
L2C TOTAL     ACCESS:   42515524  HIT:   17029753  MISS:   25485771
L2C LOAD      ACCESS:   25523165  HIT:      60464  MISS:   25462701
L2C RFO       ACCESS:      29617  HIT:       6547  MISS:      23070
L2C PREFETCH  ACCESS:          0  HIT:          0  MISS:          0
L2C WRITEBACK ACCESS:   16962742  HIT:   16962742  MISS:          0
LLC TOTAL     ACCESS:   42438225  HIT:   25506142  MISS:   16932083
LLC LOAD      ACCESS:   25462701  HIT:    8530618  MISS:   16932083
LLC RFO       ACCESS:      23070  HIT:      23070  MISS:          0
LLC PREFETCH  ACCESS:          0  HIT:          0  MISS:          0
LLC WRITEBACK ACCESS:   16952454  HIT:   16952454  MISS:          0

CPU 3 cumulative IPC: 0.449469 instructions: 2000763543 cycles: 4451394226
L1D TOTAL     ACCESS:  502647680  HIT:  416240891  MISS:   86406789
L1D LOAD      ACCESS:  349092080  HIT:  266515394  MISS:   82576686
L1D RFO       ACCESS:  153555600  HIT:  149725497  MISS:    3830103
L1D PREFETCH  ACCESS:          0  HIT:          0  MISS:          0
L1D WRITEBACK ACCESS:          0  HIT:          0  MISS:          0
L1I TOTAL     ACCESS:  869126722  HIT:  863680816  MISS:    5445906
L1I LOAD      ACCESS:  869126722  HIT:  863680816  MISS:    5445906
L1I RFO       ACCESS:          0  HIT:          0  MISS:          0
L1I PREFETCH  ACCESS:          0  HIT:          0  MISS:          0
L1I WRITEBACK ACCESS:          0  HIT:          0  MISS:          0
L2C TOTAL     ACCESS:   98152783  HIT:   87323820  MISS:   10828963
L2C LOAD      ACCESS:   88022071  HIT:   80132912  MISS:    7889159
L2C RFO       ACCESS:    3830017  HIT:     891078  MISS:    2938939
L2C PREFETCH  ACCESS:          0  HIT:          0  MISS:          0
L2C WRITEBACK ACCESS:    6300695  HIT:    6299830  MISS:        865
LLC TOTAL     ACCESS:   14467164  HIT:   11019627  MISS:    3447537
LLC LOAD      ACCESS:    7888740  HIT:    7188502  MISS:     700238
LLC RFO       ACCESS:    2938933  HIT:     233145  MISS:    2705788
LLC PREFETCH  ACCESS:          0  HIT:          0  MISS:          0
LLC WRITEBACK ACCESS:    3639491  HIT:    3597980  MISS:      41511

Region of Interest Statistics

CPU 0 cumulative IPC: 0.224649 instructions: 1000000000 cycles: 4451394225
L1D TOTAL     ACCESS:  447574644  HIT:  426976974  MISS:   20597670
L1D LOAD      ACCESS:  266486379  HIT:  248395885  MISS:   18090494
L1D RFO       ACCESS:  181088265  HIT:  178581089  MISS:    2507176
L1D PREFETCH  ACCESS:          0  HIT:          0  MISS:          0
L1D WRITEBACK ACCESS:          0  HIT:          0  MISS:          0
L1D PREFETCH  REQUESTED:          0  ISSUED:          0  USEFUL:          0  USELESS:          0
L1I TOTAL     ACCESS:  351139591  HIT:  350484782  MISS:     654809
L1I LOAD      ACCESS:  351139591  HIT:  350484782  MISS:     654809
L1I RFO       ACCESS:          0  HIT:          0  MISS:          0
L1I PREFETCH  ACCESS:          0  HIT:          0  MISS:          0
L1I WRITEBACK ACCESS:          0  HIT:          0  MISS:          0
L1I PREFETCH  REQUESTED:          0  ISSUED:          0  USEFUL:          0  USELESS:          0
L2C TOTAL     ACCESS:   31018445  HIT:   15817944  MISS:   15200501
L2C LOAD      ACCESS:   18744577  HIT:    5657507  MISS:   13087070
L2C RFO       ACCESS:    2507047  HIT:     425343  MISS:    2081704
L2C PREFETCH  ACCESS:          0  HIT:          0  MISS:          0
L2C WRITEBACK ACCESS:    9766821  HIT:    9735094  MISS:      31727
L2C PREFETCH  REQUESTED:          0  ISSUED:          0  USEFUL:          0  USELESS:          0
LLC TOTAL     ACCESS:   22640115  HIT:   12835971  MISS:    9804144
LLC LOAD      ACCESS:   13087050  HIT:    4277660  MISS:    8809390
LLC RFO       ACCESS:    2081697  HIT:    1093327  MISS:     988370
LLC PREFETCH  ACCESS:          0  HIT:          0  MISS:          0
LLC WRITEBACK ACCESS:    7471368  HIT:    7464984  MISS:       6384
LLC PREFETCH  REQUESTED:          0  ISSUED:          0  USEFUL:          0  USELESS:          0
Major fault: 0 Minor fault: 55545

CPU 1 cumulative IPC: 1.14997 instructions: 1000000002 cycles: 869584743
L1D TOTAL     ACCESS:  258229624  HIT:  258229624  MISS:          0
L1D LOAD      ACCESS:  129192507  HIT:  129192507  MISS:          0
L1D RFO       ACCESS:  129037117  HIT:  129037117  MISS:          0
L1D PREFETCH  ACCESS:          0  HIT:          0  MISS:          0
L1D WRITEBACK ACCESS:          0  HIT:          0  MISS:          0
L1D PREFETCH  REQUESTED:          0  ISSUED:          0  USEFUL:          0  USELESS:          0
L1I TOTAL     ACCESS:  239558068  HIT:  239213238  MISS:     344830
L1I LOAD      ACCESS:  239558068  HIT:  239213238  MISS:     344830
L1I RFO       ACCESS:          0  HIT:          0  MISS:          0
L1I PREFETCH  ACCESS:          0  HIT:          0  MISS:          0
L1I WRITEBACK ACCESS:          0  HIT:          0  MISS:          0
L1I PREFETCH  REQUESTED:          0  ISSUED:          0  USEFUL:          0  USELESS:          0
L2C TOTAL     ACCESS:     344830  HIT:     344739  MISS:         91
L2C LOAD      ACCESS:     344830  HIT:     344739  MISS:         91
L2C RFO       ACCESS:          0  HIT:          0  MISS:          0
L2C PREFETCH  ACCESS:          0  HIT:          0  MISS:          0
L2C WRITEBACK ACCESS:          0  HIT:          0  MISS:          0
L2C PREFETCH  REQUESTED:          0  ISSUED:          0  USEFUL:          0  USELESS:          0
LLC TOTAL     ACCESS:         91  HIT:          0  MISS:         91
LLC LOAD      ACCESS:         91  HIT:          0  MISS:         91
LLC RFO       ACCESS:          0  HIT:          0  MISS:          0
LLC PREFETCH  ACCESS:          0  HIT:          0  MISS:          0
LLC WRITEBACK ACCESS:          0  HIT:          0  MISS:          0
LLC PREFETCH  REQUESTED:          0  ISSUED:          0  USEFUL:          0  USELESS:          0
Major fault: 0 Minor fault: 48

CPU 2 cumulative IPC: 0.432775 instructions: 1000000003 cycles: 2310668093
L1D TOTAL     ACCESS:  206147795  HIT:  192914022  MISS:   13233773
L1D LOAD      ACCESS:  135976324  HIT:  122757888  MISS:   13218436
L1D RFO       ACCESS:   70171471  HIT:   70156134  MISS:      15337
L1D PREFETCH  ACCESS:          0  HIT:          0  MISS:          0
L1D WRITEBACK ACCESS:          0  HIT:          0  MISS:          0
L1D PREFETCH  REQUESTED:          0  ISSUED:          0  USEFUL:          0  USELESS:          0
L1I TOTAL     ACCESS:  199663645  HIT:  199663645  MISS:          0
L1I LOAD      ACCESS:  199663645  HIT:  199663645  MISS:          0
L1I RFO       ACCESS:          0  HIT:          0  MISS:          0
L1I PREFETCH  ACCESS:          0  HIT:          0  MISS:          0
L1I WRITEBACK ACCESS:          0  HIT:          0  MISS:          0
L1I PREFETCH  REQUESTED:          0  ISSUED:          0  USEFUL:          0  USELESS:          0
L2C TOTAL     ACCESS:   22018768  HIT:    8814889  MISS:   13203879
L2C LOAD      ACCESS:   13218436  HIT:      26518  MISS:   13191918
L2C RFO       ACCESS:      15337  HIT:       3376  MISS:      11961
L2C PREFETCH  ACCESS:          0  HIT:          0  MISS:          0
L2C WRITEBACK ACCESS:    8784995  HIT:    8784995  MISS:          0
L2C PREFETCH  REQUESTED:          0  ISSUED:          0  USEFUL:          0  USELESS:          0
LLC TOTAL     ACCESS:   21983717  HIT:   13214591  MISS:    8769126
LLC LOAD      ACCESS:   13191918  HIT:    4422792  MISS:    8769126
LLC RFO       ACCESS:      11961  HIT:      11961  MISS:          0
LLC PREFETCH  ACCESS:          0  HIT:          0  MISS:          0
LLC WRITEBACK ACCESS:    8779838  HIT:    8779838  MISS:          0
LLC PREFETCH  REQUESTED:          0  ISSUED:          0  USEFUL:          0  USELESS:          0
Major fault: 0 Minor fault: 274047

CPU 3 cumulative IPC: 0.458508 instructions: 1000000000 cycles: 2180986926
L1D TOTAL     ACCESS:  244879192  HIT:  202221315  MISS:   42657877
L1D LOAD      ACCESS:  169669868  HIT:  129205207  MISS:   40464661
L1D RFO       ACCESS:   75209324  HIT:   73016108  MISS:    2193216
L1D PREFETCH  ACCESS:          0  HIT:          0  MISS:          0
L1D WRITEBACK ACCESS:          0  HIT:          0  MISS:          0
L1D PREFETCH  REQUESTED:          0  ISSUED:          0  USEFUL:          0  USELESS:          0
L1I TOTAL     ACCESS:  438051990  HIT:  435361804  MISS:    2690186
L1I LOAD      ACCESS:  438051990  HIT:  435361804  MISS:    2690186
L1I RFO       ACCESS:          0  HIT:          0  MISS:          0
L1I PREFETCH  ACCESS:          0  HIT:          0  MISS:          0
L1I WRITEBACK ACCESS:          0  HIT:          0  MISS:          0
L1I PREFETCH  REQUESTED:          0  ISSUED:          0  USEFUL:          0  USELESS:          0
L2C TOTAL     ACCESS:   48780688  HIT:   42793046  MISS:    5987642
L2C LOAD      ACCESS:   43154558  HIT:   38892146  MISS:    4262412
L2C RFO       ACCESS:    2193166  HIT:     468424  MISS:    1724742
L2C PREFETCH  ACCESS:          0  HIT:          0  MISS:          0
L2C WRITEBACK ACCESS:    3432964  HIT:    3432476  MISS:        488
L2C PREFETCH  REQUESTED:          0  ISSUED:          0  USEFUL:          0  USELESS:          0
LLC TOTAL     ACCESS:    8052409  HIT:    6087843  MISS:    1964566
LLC LOAD      ACCESS:    4262039  HIT:    3933409  MISS:     328630
LLC RFO       ACCESS:    1724738  HIT:     107736  MISS:    1617002
LLC PREFETCH  ACCESS:          0  HIT:          0  MISS:          0
LLC WRITEBACK ACCESS:    2065632  HIT:    2046698  MISS:      18934
LLC PREFETCH  REQUESTED:          0  ISSUED:          0  USEFUL:          0  USELESS:          0
Major fault: 0 Minor fault: 11234

DRAM Statistics
 CHANNEL 0
 RQ ROW_BUFFER_HIT:    4935972  ROW_BUFFER_MISS:   10137366
 DBUS_CONGESTED:   25468944
 WQ ROW_BUFFER_HIT:    1308554  ROW_BUFFER_MISS:   10975253  FULL:          0

 CHANNEL 1
 RQ ROW_BUFFER_HIT:    4941840  ROW_BUFFER_MISS:   10120208
 DBUS_CONGESTED:   25468944
 WQ ROW_BUFFER_HIT:    1311302  ROW_BUFFER_MISS:   10964246  FULL:          0

 AVG_CONGESTED_CYCLE: 14
