
*** ChampSim Multicore Out-of-Order Simulator ***

Warmup Instructions: 200000000
Simulation Instructions: 1000000000
Number of CPUs: 4
LLC sets: 8192
LLC ways: 16
Off-chip DRAM Size: 8192 MB Channels: 2 Width: 64-bit Data Rate: 1600 MT/s

CPU 0 runs /scratch/user/djimenez/champsim-traces/speccpu2017/xz/648.exchange2_s/648.exchange2_s-584B.champsimtrace.xz
CPU 1 runs /scratch/user/djimenez/champsim-traces/speccpu2017/xz/648.exchange2_s/648.exchange2_s-72B.champsimtrace.xz
CPU 2 runs /scratch/user/djimenez/champsim-traces/speccpu2017/xz/621.wrf_s/621.wrf_s-8065B.champsimtrace.xz
CPU 3 runs /scratch/user/djimenez/champsim-traces/speccpu2017/xz/605.mcf_s/605.mcf_s-1644B.champsimtrace.xz
Heartbeat CPU 1 instructions: 10000000 cycles: 4333482 heartbeat IPC: 2.30761 cumulative IPC: 2.30761 (Simulation time: 0 hr 1 min 55 sec) 
Heartbeat CPU 0 instructions: 10000001 cycles: 4404232 heartbeat IPC: 2.27054 cumulative IPC: 2.27054 (Simulation time: 0 hr 1 min 57 sec) 
Heartbeat CPU 2 instructions: 10000003 cycles: 4748544 heartbeat IPC: 2.10591 cumulative IPC: 2.10591 (Simulation time: 0 hr 2 min 6 sec) 
Heartbeat CPU 1 instructions: 20000000 cycles: 8670668 heartbeat IPC: 2.30564 cumulative IPC: 2.30663 (Simulation time: 0 hr 3 min 55 sec) 
Heartbeat CPU 0 instructions: 20000000 cycles: 8824484 heartbeat IPC: 2.26231 cumulative IPC: 2.26642 (Simulation time: 0 hr 3 min 59 sec) 
Heartbeat CPU 2 instructions: 20000000 cycles: 9258358 heartbeat IPC: 2.21739 cumulative IPC: 2.16021 (Simulation time: 0 hr 4 min 12 sec) 
Heartbeat CPU 3 instructions: 10000002 cycles: 10589044 heartbeat IPC: 0.944372 cumulative IPC: 0.944372 (Simulation time: 0 hr 4 min 51 sec) 
Heartbeat CPU 1 instructions: 30000000 cycles: 13001051 heartbeat IPC: 2.30926 cumulative IPC: 2.30751 (Simulation time: 0 hr 6 min 4 sec) 
Heartbeat CPU 0 instructions: 30000001 cycles: 13237090 heartbeat IPC: 2.26623 cumulative IPC: 2.26636 (Simulation time: 0 hr 6 min 10 sec) 
Heartbeat CPU 2 instructions: 30000000 cycles: 13661034 heartbeat IPC: 2.27135 cumulative IPC: 2.19603 (Simulation time: 0 hr 6 min 23 sec) 
Heartbeat CPU 1 instructions: 40000000 cycles: 17294996 heartbeat IPC: 2.32886 cumulative IPC: 2.31281 (Simulation time: 0 hr 8 min 11 sec) 
Heartbeat CPU 0 instructions: 40000000 cycles: 17687318 heartbeat IPC: 2.24708 cumulative IPC: 2.26151 (Simulation time: 0 hr 8 min 23 sec) 
Heartbeat CPU 2 instructions: 40000000 cycles: 18311371 heartbeat IPC: 2.15038 cumulative IPC: 2.18444 (Simulation time: 0 hr 8 min 41 sec) 
Heartbeat CPU 3 instructions: 20000000 cycles: 21107826 heartbeat IPC: 0.95068 cumulative IPC: 0.947516 (Simulation time: 0 hr 10 min 3 sec) 
Heartbeat CPU 1 instructions: 50000001 cycles: 21641964 heartbeat IPC: 2.30045 cumulative IPC: 2.31033 (Simulation time: 0 hr 10 min 19 sec) 
Heartbeat CPU 0 instructions: 50000003 cycles: 22145824 heartbeat IPC: 2.2429 cumulative IPC: 2.25776 (Simulation time: 0 hr 10 min 35 sec) 
Heartbeat CPU 2 instructions: 50000003 cycles: 22777132 heartbeat IPC: 2.23926 cumulative IPC: 2.19518 (Simulation time: 0 hr 10 min 53 sec) 
Heartbeat CPU 1 instructions: 60000000 cycles: 25994034 heartbeat IPC: 2.29776 cumulative IPC: 2.30822 (Simulation time: 0 hr 12 min 26 sec) 
Heartbeat CPU 0 instructions: 60000000 cycles: 26580515 heartbeat IPC: 2.25495 cumulative IPC: 2.25729 (Simulation time: 0 hr 12 min 43 sec) 
Heartbeat CPU 2 instructions: 60000000 cycles: 27420235 heartbeat IPC: 2.15373 cumulative IPC: 2.18816 (Simulation time: 0 hr 13 min 8 sec) 
Heartbeat CPU 1 instructions: 70000003 cycles: 30285582 heartbeat IPC: 2.33016 cumulative IPC: 2.31133 (Simulation time: 0 hr 14 min 32 sec) 
Heartbeat CPU 0 instructions: 70000000 cycles: 31026864 heartbeat IPC: 2.24904 cumulative IPC: 2.25611 (Simulation time: 0 hr 14 min 55 sec) 
Heartbeat CPU 3 instructions: 30000003 cycles: 31766070 heartbeat IPC: 0.938241 cumulative IPC: 0.944404 (Simulation time: 0 hr 15 min 17 sec) 
Heartbeat CPU 2 instructions: 70000002 cycles: 31850386 heartbeat IPC: 2.25726 cumulative IPC: 2.19778 (Simulation time: 0 hr 15 min 20 sec) 
Heartbeat CPU 1 instructions: 80000000 cycles: 34633875 heartbeat IPC: 2.29975 cumulative IPC: 2.30988 (Simulation time: 0 hr 16 min 41 sec) 
Heartbeat CPU 0 instructions: 80000000 cycles: 35480312 heartbeat IPC: 2.24545 cumulative IPC: 2.25477 (Simulation time: 0 hr 17 min 5 sec) 
Heartbeat CPU 2 instructions: 80000000 cycles: 36527918 heartbeat IPC: 2.13788 cumulative IPC: 2.19011 (Simulation time: 0 hr 17 min 32 sec) 
Heartbeat CPU 1 instructions: 90000001 cycles: 38934488 heartbeat IPC: 2.32525 cumulative IPC: 2.31158 (Simulation time: 0 hr 18 min 38 sec) 
Heartbeat CPU 0 instructions: 90000002 cycles: 39834183 heartbeat IPC: 2.29681 cumulative IPC: 2.25937 (Simulation time: 0 hr 19 min 3 sec) 
Heartbeat CPU 2 instructions: 90000000 cycles: 40965052 heartbeat IPC: 2.25371 cumulative IPC: 2.19699 (Simulation time: 0 hr 19 min 34 sec) 
Heartbeat CPU 3 instructions: 40000000 cycles: 42390695 heartbeat IPC: 0.941209 cumulative IPC: 0.943603 (Simulation time: 0 hr 20 min 12 sec) 
Heartbeat CPU 1 instructions: 100000000 cycles: 43206817 heartbeat IPC: 2.34064 cumulative IPC: 2.31445 (Simulation time: 0 hr 20 min 35 sec) 
Heartbeat CPU 0 instructions: 100000000 cycles: 44165483 heartbeat IPC: 2.30878 cumulative IPC: 2.26421 (Simulation time: 0 hr 21 min 3 sec) 
Heartbeat CPU 2 instructions: 100000000 cycles: 45636198 heartbeat IPC: 2.1408 cumulative IPC: 2.19124 (Simulation time: 0 hr 21 min 46 sec) 
Heartbeat CPU 1 instructions: 110000001 cycles: 47468314 heartbeat IPC: 2.34659 cumulative IPC: 2.31734 (Simulation time: 0 hr 22 min 40 sec) 
Heartbeat CPU 0 instructions: 110000003 cycles: 48657459 heartbeat IPC: 2.22619 cumulative IPC: 2.2607 (Simulation time: 0 hr 23 min 14 sec) 
Heartbeat CPU 2 instructions: 110000003 cycles: 50079578 heartbeat IPC: 2.25054 cumulative IPC: 2.1965 (Simulation time: 0 hr 23 min 56 sec) 
Heartbeat CPU 1 instructions: 120000000 cycles: 51677128 heartbeat IPC: 2.37597 cumulative IPC: 2.32211 (Simulation time: 0 hr 24 min 44 sec) 
Heartbeat CPU 3 instructions: 50000001 cycles: 52994154 heartbeat IPC: 0.943089 cumulative IPC: 0.9435 (Simulation time: 0 hr 25 min 22 sec) 
Heartbeat CPU 0 instructions: 120000000 cycles: 53124603 heartbeat IPC: 2.23857 cumulative IPC: 2.25884 (Simulation time: 0 hr 25 min 25 sec) 
Heartbeat CPU 2 instructions: 120000000 cycles: 54812810 heartbeat IPC: 2.11272 cumulative IPC: 2.18927 (Simulation time: 0 hr 26 min 12 sec) 
Heartbeat CPU 1 instructions: 130000003 cycles: 55870471 heartbeat IPC: 2.38473 cumulative IPC: 2.32681 (Simulation time: 0 hr 26 min 42 sec) 
Heartbeat CPU 0 instructions: 130000000 cycles: 57433598 heartbeat IPC: 2.32073 cumulative IPC: 2.26348 (Simulation time: 0 hr 27 min 25 sec) 
Heartbeat CPU 2 instructions: 130000001 cycles: 59767612 heartbeat IPC: 2.01824 cumulative IPC: 2.17509 (Simulation time: 0 hr 28 min 30 sec) 
Heartbeat CPU 1 instructions: 140000000 cycles: 60102545 heartbeat IPC: 2.36291 cumulative IPC: 2.32935 (Simulation time: 0 hr 28 min 40 sec) 
Heartbeat CPU 0 instructions: 140000000 cycles: 61820953 heartbeat IPC: 2.27928 cumulative IPC: 2.2646 (Simulation time: 0 hr 29 min 28 sec) 
Heartbeat CPU 3 instructions: 60000000 cycles: 63596061 heartbeat IPC: 0.943226 cumulative IPC: 0.943455 (Simulation time: 0 hr 30 min 18 sec) 
Heartbeat CPU 1 instructions: 150000001 cycles: 64264654 heartbeat IPC: 2.40263 cumulative IPC: 2.3341 (Simulation time: 0 hr 30 min 37 sec) 
Heartbeat CPU 2 instructions: 140000000 cycles: 64723290 heartbeat IPC: 2.01789 cumulative IPC: 2.16305 (Simulation time: 0 hr 30 min 50 sec) 
Heartbeat CPU 0 instructions: 150000003 cycles: 66327815 heartbeat IPC: 2.21884 cumulative IPC: 2.26149 (Simulation time: 0 hr 31 min 36 sec) 
Heartbeat CPU 1 instructions: 160000000 cycles: 68532220 heartbeat IPC: 2.34326 cumulative IPC: 2.33467 (Simulation time: 0 hr 32 min 38 sec) 
Heartbeat CPU 2 instructions: 150000002 cycles: 69786861 heartbeat IPC: 1.97489 cumulative IPC: 2.1494 (Simulation time: 0 hr 33 min 11 sec) 
Heartbeat CPU 0 instructions: 160000000 cycles: 70798613 heartbeat IPC: 2.23674 cumulative IPC: 2.25993 (Simulation time: 0 hr 33 min 38 sec) 
Heartbeat CPU 1 instructions: 170000003 cycles: 72753706 heartbeat IPC: 2.36883 cumulative IPC: 2.33665 (Simulation time: 0 hr 34 min 29 sec) 
Heartbeat CPU 2 instructions: 160000000 cycles: 74036701 heartbeat IPC: 2.35303 cumulative IPC: 2.16109 (Simulation time: 0 hr 35 min 3 sec) 
Heartbeat CPU 3 instructions: 70000000 cycles: 74186797 heartbeat IPC: 0.944221 cumulative IPC: 0.943564 (Simulation time: 0 hr 35 min 7 sec) 
Heartbeat CPU 0 instructions: 170000002 cycles: 75092564 heartbeat IPC: 2.32886 cumulative IPC: 2.26387 (Simulation time: 0 hr 35 min 32 sec) 
Heartbeat CPU 1 instructions: 180000000 cycles: 76961300 heartbeat IPC: 2.37665 cumulative IPC: 2.33884 (Simulation time: 0 hr 36 min 23 sec) 
Heartbeat CPU 2 instructions: 170000000 cycles: 79064600 heartbeat IPC: 1.9889 cumulative IPC: 2.15014 (Simulation time: 0 hr 37 min 19 sec) 
Heartbeat CPU 0 instructions: 180000000 cycles: 79519468 heartbeat IPC: 2.25891 cumulative IPC: 2.2636 (Simulation time: 0 hr 37 min 32 sec) 
Heartbeat CPU 1 instructions: 190000003 cycles: 81168139 heartbeat IPC: 2.37708 cumulative IPC: 2.34082 (Simulation time: 0 hr 38 min 16 sec) 
Heartbeat CPU 2 instructions: 180000000 cycles: 83956728 heartbeat IPC: 2.0441 cumulative IPC: 2.14396 (Simulation time: 0 hr 39 min 30 sec) 
Heartbeat CPU 0 instructions: 190000000 cycles: 84020097 heartbeat IPC: 2.22191 cumulative IPC: 2.26136 (Simulation time: 0 hr 39 min 31 sec) 
Heartbeat CPU 3 instructions: 80000000 cycles: 84778167 heartbeat IPC: 0.944165 cumulative IPC: 0.943639 (Simulation time: 0 hr 39 min 51 sec) 
Heartbeat CPU 1 instructions: 200000000 cycles: 85467180 heartbeat IPC: 2.3261 cumulative IPC: 2.34008 (Simulation time: 0 hr 40 min 10 sec) 
Heartbeat CPU 0 instructions: 200000000 cycles: 88443495 heartbeat IPC: 2.26071 cumulative IPC: 2.26133 (Simulation time: 0 hr 41 min 36 sec) 
Heartbeat CPU 2 instructions: 190000003 cycles: 88832473 heartbeat IPC: 2.05097 cumulative IPC: 2.13886 (Simulation time: 0 hr 41 min 47 sec) 
Heartbeat CPU 1 instructions: 210000000 cycles: 89755567 heartbeat IPC: 2.33188 cumulative IPC: 0.111414 (Simulation time: 0 hr 42 min 14 sec) 
Heartbeat CPU 0 instructions: 210000001 cycles: 92738951 heartbeat IPC: 2.32804 cumulative IPC: 0.10783 (Simulation time: 0 hr 43 min 40 sec) 
Heartbeat CPU 2 instructions: 200000000 cycles: 93722371 heartbeat IPC: 2.04503 cumulative IPC: 2.13396 (Simulation time: 0 hr 44 min 8 sec) 
Heartbeat CPU 1 instructions: 220000000 cycles: 94074405 heartbeat IPC: 2.31544 cumulative IPC: 0.212598 (Simulation time: 0 hr 44 min 19 sec) 
Heartbeat CPU 3 instructions: 90000003 cycles: 95343306 heartbeat IPC: 0.946509 cumulative IPC: 0.943957 (Simulation time: 0 hr 44 min 56 sec) 
Heartbeat CPU 0 instructions: 220000000 cycles: 97201555 heartbeat IPC: 2.24084 cumulative IPC: 0.205758 (Simulation time: 0 hr 45 min 50 sec) 
Heartbeat CPU 2 instructions: 210000003 cycles: 98339434 heartbeat IPC: 2.16588 cumulative IPC: 0.101689 (Simulation time: 0 hr 46 min 23 sec) 
Heartbeat CPU 1 instructions: 230000003 cycles: 98395212 heartbeat IPC: 2.31438 cumulative IPC: 0.304893 (Simulation time: 0 hr 46 min 25 sec) 
Heartbeat CPU 0 instructions: 230000000 cycles: 101693582 heartbeat IPC: 2.22617 cumulative IPC: 0.295004 (Simulation time: 0 hr 48 min 1 sec) 
Heartbeat CPU 1 instructions: 240000000 cycles: 102659178 heartbeat IPC: 2.34523 cumulative IPC: 0.389639 (Simulation time: 0 hr 48 min 30 sec) 
Heartbeat CPU 2 instructions: 220000000 cycles: 103031124 heartbeat IPC: 2.13143 cumulative IPC: 0.194116 (Simulation time: 0 hr 48 min 41 sec) 
Heartbeat CPU 3 instructions: 100000000 cycles: 105920390 heartbeat IPC: 0.94544 cumulative IPC: 0.944105 (Simulation time: 0 hr 50 min 5 sec) 
Heartbeat CPU 0 instructions: 240000000 cycles: 106054763 heartbeat IPC: 2.29296 cumulative IPC: 0.377164 (Simulation time: 0 hr 50 min 9 sec) 
Heartbeat CPU 1 instructions: 250000001 cycles: 106911317 heartbeat IPC: 2.35176 cumulative IPC: 0.467677 (Simulation time: 0 hr 50 min 35 sec) 
Heartbeat CPU 2 instructions: 230000002 cycles: 107624989 heartbeat IPC: 2.17682 cumulative IPC: 0.278746 (Simulation time: 0 hr 50 min 56 sec) 
Heartbeat CPU 0 instructions: 250000003 cycles: 110233295 heartbeat IPC: 2.39319 cumulative IPC: 0.453583 (Simulation time: 0 hr 52 min 14 sec) 
Heartbeat CPU 1 instructions: 260000000 cycles: 111204255 heartbeat IPC: 2.32941 cumulative IPC: 0.539548 (Simulation time: 0 hr 52 min 42 sec) 
Heartbeat CPU 2 instructions: 240000000 cycles: 112343401 heartbeat IPC: 2.11936 cumulative IPC: 0.356051 (Simulation time: 0 hr 53 min 16 sec) 
Heartbeat CPU 0 instructions: 260000000 cycles: 114421855 heartbeat IPC: 2.38745 cumulative IPC: 0.524375 (Simulation time: 0 hr 54 min 16 sec) 
Heartbeat CPU 1 instructions: 270000000 cycles: 115507741 heartbeat IPC: 2.3237 cumulative IPC: 0.60602 (Simulation time: 0 hr 54 min 47 sec) 
Heartbeat CPU 3 instructions: 110000002 cycles: 116502611 heartbeat IPC: 0.944981 cumulative IPC: 0.944185 (Simulation time: 0 hr 55 min 15 sec) 
Heartbeat CPU 2 instructions: 250000000 cycles: 117637843 heartbeat IPC: 1.88877 cumulative IPC: 0.425033 (Simulation time: 0 hr 55 min 49 sec) 
Heartbeat CPU 0 instructions: 270000002 cycles: 118562266 heartbeat IPC: 2.41522 cumulative IPC: 0.590407 (Simulation time: 0 hr 56 min 16 sec) 
Heartbeat CPU 1 instructions: 280000000 cycles: 119828036 heartbeat IPC: 2.31466 cumulative IPC: 0.667623 (Simulation time: 0 hr 56 min 53 sec) 
Heartbeat CPU 2 instructions: 260000000 cycles: 121747690 heartbeat IPC: 2.43318 cumulative IPC: 0.492822 (Simulation time: 0 hr 57 min 50 sec) 
Heartbeat CPU 0 instructions: 280000000 cycles: 122784612 heartbeat IPC: 2.36835 cumulative IPC: 0.651547 (Simulation time: 0 hr 58 min 20 sec) 
Heartbeat CPU 1 instructions: 290000003 cycles: 124153749 heartbeat IPC: 2.31176 cumulative IPC: 0.724908 (Simulation time: 0 hr 58 min 58 sec) 
Heartbeat CPU 2 instructions: 270000000 cycles: 125434633 heartbeat IPC: 2.71227 cumulative IPC: 0.55806 (Simulation time: 0 hr 59 min 37 sec) 
Heartbeat CPU 0 instructions: 290000003 cycles: 126951204 heartbeat IPC: 2.40004 cumulative IPC: 0.708934 (Simulation time: 1 hr 0 min 20 sec) 
Heartbeat CPU 3 instructions: 120000000 cycles: 127096397 heartbeat IPC: 0.943949 cumulative IPC: 0.944165 (Simulation time: 1 hr 0 min 24 sec) 
Heartbeat CPU 1 instructions: 300000000 cycles: 128472123 heartbeat IPC: 2.31569 cumulative IPC: 0.778379 (Simulation time: 1 hr 1 min 6 sec) 
Heartbeat CPU 2 instructions: 280000000 cycles: 129597152 heartbeat IPC: 2.40239 cumulative IPC: 0.617298 (Simulation time: 1 hr 1 min 39 sec) 
Heartbeat CPU 0 instructions: 300000000 cycles: 131191332 heartbeat IPC: 2.35842 cumulative IPC: 0.762245 (Simulation time: 1 hr 2 min 26 sec) 
Heartbeat CPU 1 instructions: 310000000 cycles: 132755804 heartbeat IPC: 2.33444 cumulative IPC: 0.828589 (Simulation time: 1 hr 3 min 13 sec) 
Heartbeat CPU 2 instructions: 290000003 cycles: 133915987 heartbeat IPC: 2.31544 cumulative IPC: 0.672063 (Simulation time: 1 hr 3 min 47 sec) 
Heartbeat CPU 0 instructions: 310000003 cycles: 135275205 heartbeat IPC: 2.44866 cumulative IPC: 0.813157 (Simulation time: 1 hr 4 min 26 sec) 
Heartbeat CPU 1 instructions: 320000000 cycles: 137077634 heartbeat IPC: 2.31383 cumulative IPC: 0.875416 (Simulation time: 1 hr 5 min 19 sec) 
Heartbeat CPU 3 instructions: 130000000 cycles: 137709797 heartbeat IPC: 0.942205 cumulative IPC: 0.944014 (Simulation time: 1 hr 5 min 38 sec) 
Heartbeat CPU 2 instructions: 300000000 cycles: 138768292 heartbeat IPC: 2.06088 cumulative IPC: 0.720626 (Simulation time: 1 hr 6 min 7 sec) 
Heartbeat CPU 0 instructions: 320000000 cycles: 139461677 heartbeat IPC: 2.38865 cumulative IPC: 0.860451 (Simulation time: 1 hr 6 min 26 sec) 
Heartbeat CPU 1 instructions: 330000002 cycles: 141346759 heartbeat IPC: 2.3424 cumulative IPC: 0.919724 (Simulation time: 1 hr 7 min 15 sec) 
Heartbeat CPU 2 instructions: 310000000 cycles: 143368371 heartbeat IPC: 2.17388 cumulative IPC: 0.767254 (Simulation time: 1 hr 8 min 9 sec) 
Heartbeat CPU 0 instructions: 330000002 cycles: 143608985 heartbeat IPC: 2.4112 cumulative IPC: 0.905236 (Simulation time: 1 hr 8 min 16 sec) 
Heartbeat CPU 1 instructions: 340000000 cycles: 145516619 heartbeat IPC: 2.39816 cumulative IPC: 0.962089 (Simulation time: 1 hr 9 min 5 sec) 
Heartbeat CPU 0 instructions: 340000000 cycles: 147802511 heartbeat IPC: 2.38463 cumulative IPC: 0.94721 (Simulation time: 1 hr 10 min 11 sec) 
Heartbeat CPU 2 instructions: 320000000 cycles: 147983766 heartbeat IPC: 2.16666 cumulative IPC: 0.8109 (Simulation time: 1 hr 10 min 16 sec) 
Heartbeat CPU 3 instructions: 140000000 cycles: 148320565 heartbeat IPC: 0.942439 cumulative IPC: 0.943901 (Simulation time: 1 hr 10 min 26 sec) 
Heartbeat CPU 1 instructions: 350000002 cycles: 149624335 heartbeat IPC: 2.43444 cumulative IPC: 1.00251 (Simulation time: 1 hr 11 min 4 sec) 
Heartbeat CPU 0 instructions: 350000000 cycles: 151907394 heartbeat IPC: 2.43612 cumulative IPC: 0.987444 (Simulation time: 1 hr 12 min 7 sec) 
Heartbeat CPU 2 instructions: 330000002 cycles: 152774328 heartbeat IPC: 2.08744 cumulative IPC: 0.850928 (Simulation time: 1 hr 12 min 33 sec) 
Heartbeat CPU 1 instructions: 360000000 cycles: 153721583 heartbeat IPC: 2.44066 cumulative IPC: 1.04084 (Simulation time: 1 hr 13 min 1 sec) 
Heartbeat CPU 0 instructions: 360000000 cycles: 156111088 heartbeat IPC: 2.37886 cumulative IPC: 1.02491 (Simulation time: 1 hr 14 min 10 sec) 
Heartbeat CPU 2 instructions: 340000000 cycles: 157446503 heartbeat IPC: 2.14033 cumulative IPC: 0.889191 (Simulation time: 1 hr 14 min 46 sec) 
Heartbeat CPU 1 instructions: 370000000 cycles: 157912084 heartbeat IPC: 2.38635 cumulative IPC: 1.07655 (Simulation time: 1 hr 14 min 58 sec) 
Heartbeat CPU 3 instructions: 150000001 cycles: 158893834 heartbeat IPC: 0.945781 cumulative IPC: 0.944027 (Simulation time: 1 hr 15 min 24 sec) 
Heartbeat CPU 0 instructions: 370000002 cycles: 160269223 heartbeat IPC: 2.40492 cumulative IPC: 1.06072 (Simulation time: 1 hr 16 min 1 sec) 
Heartbeat CPU 2 instructions: 350000002 cycles: 161971864 heartbeat IPC: 2.20977 cumulative IPC: 0.926087 (Simulation time: 1 hr 16 min 51 sec) 
Heartbeat CPU 1 instructions: 380000000 cycles: 162082954 heartbeat IPC: 2.39758 cumulative IPC: 1.11054 (Simulation time: 1 hr 16 min 54 sec) 
Heartbeat CPU 0 instructions: 380000000 cycles: 164431934 heartbeat IPC: 2.40228 cumulative IPC: 1.09468 (Simulation time: 1 hr 18 min 4 sec) 
Heartbeat CPU 1 instructions: 390000003 cycles: 166170822 heartbeat IPC: 2.44626 cumulative IPC: 1.1434 (Simulation time: 1 hr 18 min 56 sec) 
Heartbeat CPU 2 instructions: 360000000 cycles: 166650335 heartbeat IPC: 2.13745 cumulative IPC: 0.960094 (Simulation time: 1 hr 19 min 10 sec) 
Heartbeat CPU 0 instructions: 390000000 cycles: 168613281 heartbeat IPC: 2.39157 cumulative IPC: 1.12684 (Simulation time: 1 hr 20 min 8 sec) 
Heartbeat CPU 3 instructions: 160000000 cycles: 169366980 heartbeat IPC: 0.954823 cumulative IPC: 0.944694 (Simulation time: 1 hr 20 min 30 sec) 
Heartbeat CPU 1 instructions: 400000000 cycles: 170391640 heartbeat IPC: 2.36921 cumulative IPC: 1.17377 (Simulation time: 1 hr 21 min 1 sec) 
Heartbeat CPU 2 instructions: 370000003 cycles: 171135204 heartbeat IPC: 2.22972 cumulative IPC: 0.993367 (Simulation time: 1 hr 21 min 22 sec) 
Heartbeat CPU 0 instructions: 400000000 cycles: 172821738 heartbeat IPC: 2.37617 cumulative IPC: 1.15726 (Simulation time: 1 hr 22 min 9 sec) 
Heartbeat CPU 1 instructions: 410000001 cycles: 174619136 heartbeat IPC: 2.36547 cumulative IPC: 1.20262 (Simulation time: 1 hr 23 min 0 sec) 
Heartbeat CPU 2 instructions: 380000000 cycles: 175803898 heartbeat IPC: 2.14193 cumulative IPC: 1.02387 (Simulation time: 1 hr 23 min 35 sec) 
Heartbeat CPU 0 instructions: 410000001 cycles: 177061740 heartbeat IPC: 2.35849 cumulative IPC: 1.18603 (Simulation time: 1 hr 24 min 11 sec) 
Heartbeat CPU 1 instructions: 420000000 cycles: 178871208 heartbeat IPC: 2.35179 cumulative IPC: 1.22994 (Simulation time: 1 hr 25 min 4 sec) 
Heartbeat CPU 3 instructions: 170000001 cycles: 180013419 heartbeat IPC: 0.939281 cumulative IPC: 0.944374 (Simulation time: 1 hr 25 min 37 sec) 
Heartbeat CPU 2 instructions: 390000001 cycles: 180389435 heartbeat IPC: 2.18077 cumulative IPC: 1.05328 (Simulation time: 1 hr 25 min 47 sec) 
Heartbeat CPU 0 instructions: 420000000 cycles: 181240536 heartbeat IPC: 2.39303 cumulative IPC: 1.21386 (Simulation time: 1 hr 26 min 12 sec) 
Heartbeat CPU 1 instructions: 430000000 cycles: 182982578 heartbeat IPC: 2.43228 cumulative IPC: 1.25695 (Simulation time: 1 hr 27 min 2 sec) 
Heartbeat CPU 2 instructions: 400000000 cycles: 184929376 heartbeat IPC: 2.20267 cumulative IPC: 1.08149 (Simulation time: 1 hr 27 min 58 sec) 
Heartbeat CPU 0 instructions: 430000001 cycles: 185438925 heartbeat IPC: 2.38187 cumulative IPC: 1.2403 (Simulation time: 1 hr 28 min 13 sec) 
Heartbeat CPU 1 instructions: 440000000 cycles: 187218007 heartbeat IPC: 2.36104 cumulative IPC: 1.28193 (Simulation time: 1 hr 29 min 5 sec) 
Heartbeat CPU 2 instructions: 410000000 cycles: 189590858 heartbeat IPC: 2.14524 cumulative IPC: 1.10765 (Simulation time: 1 hr 30 min 13 sec) 
Heartbeat CPU 0 instructions: 440000000 cycles: 189669997 heartbeat IPC: 2.36347 cumulative IPC: 1.26536 (Simulation time: 1 hr 30 min 16 sec) 
Heartbeat CPU 3 instructions: 180000000 cycles: 190642511 heartbeat IPC: 0.940814 cumulative IPC: 0.944176 (Simulation time: 1 hr 30 min 45 sec) 
Heartbeat CPU 1 instructions: 450000000 cycles: 191428826 heartbeat IPC: 2.37484 cumulative IPC: 1.30597 (Simulation time: 1 hr 31 min 8 sec) 
Heartbeat CPU 0 instructions: 450000002 cycles: 193871460 heartbeat IPC: 2.38012 cumulative IPC: 1.28951 (Simulation time: 1 hr 32 min 20 sec) 
Heartbeat CPU 2 instructions: 420000000 cycles: 194082783 heartbeat IPC: 2.22622 cumulative IPC: 1.13354 (Simulation time: 1 hr 32 min 26 sec) 
Heartbeat CPU 1 instructions: 460000000 cycles: 195628999 heartbeat IPC: 2.38085 cumulative IPC: 1.32905 (Simulation time: 1 hr 33 min 10 sec) 
Heartbeat CPU 0 instructions: 460000000 cycles: 198078857 heartbeat IPC: 2.37677 cumulative IPC: 1.31261 (Simulation time: 1 hr 34 min 13 sec) 
Heartbeat CPU 2 instructions: 430000001 cycles: 198836735 heartbeat IPC: 2.10351 cumulative IPC: 1.15673 (Simulation time: 1 hr 34 min 32 sec) 
Heartbeat CPU 1 instructions: 470000000 cycles: 199846247 heartbeat IPC: 2.37121 cumulative IPC: 1.35104 (Simulation time: 1 hr 34 min 58 sec) 
Heartbeat CPU 3 instructions: 190000000 cycles: 201257134 heartbeat IPC: 0.942097 cumulative IPC: 0.944066 (Simulation time: 1 hr 35 min 34 sec) 
Heartbeat CPU 0 instructions: 470000000 cycles: 202316778 heartbeat IPC: 2.35965 cumulative IPC: 1.33454 (Simulation time: 1 hr 36 min 2 sec) 
Heartbeat CPU 2 instructions: 440000000 cycles: 203792959 heartbeat IPC: 2.01766 cumulative IPC: 1.17767 (Simulation time: 1 hr 36 min 39 sec) 
Heartbeat CPU 1 instructions: 480000000 cycles: 204037544 heartbeat IPC: 2.3859 cumulative IPC: 1.3723 (Simulation time: 1 hr 36 min 45 sec) 
Heartbeat CPU 0 instructions: 480000000 cycles: 206516908 heartbeat IPC: 2.38088 cumulative IPC: 1.35582 (Simulation time: 1 hr 37 min 53 sec) 
Heartbeat CPU 1 instructions: 490000001 cycles: 208427677 heartbeat IPC: 2.27784 cumulative IPC: 1.39137 (Simulation time: 1 hr 38 min 46 sec) 
Heartbeat CPU 2 instructions: 450000000 cycles: 208750873 heartbeat IPC: 2.01698 cumulative IPC: 1.1976 (Simulation time: 1 hr 38 min 55 sec) 
Heartbeat CPU 0 instructions: 490000003 cycles: 210692301 heartbeat IPC: 2.39498 cumulative IPC: 1.37641 (Simulation time: 1 hr 39 min 50 sec) 
Heartbeat CPU 3 instructions: 200000000 cycles: 211885341 heartbeat IPC: 0.940892 cumulative IPC: 0.943907 (Simulation time: 1 hr 40 min 31 sec) 

Warmup complete CPU 0 instructions: 492776932 cycles: 211885346 (Simulation time: 1 hr 40 min 31 sec) 
Warmup complete CPU 1 instructions: 497890156 cycles: 211885346 (Simulation time: 1 hr 40 min 31 sec) 
Warmup complete CPU 2 instructions: 456329532 cycles: 211885346 (Simulation time: 1 hr 40 min 31 sec) 
Warmup complete CPU 3 instructions: 200000004 cycles: 211885346 (Simulation time: 1 hr 40 min 31 sec) 

Heartbeat CPU 1 instructions: 500000000 cycles: 213249317 heartbeat IPC: 2.07398 cumulative IPC: 1.54684 (Simulation time: 1 hr 41 min 5 sec) 
Heartbeat CPU 0 instructions: 500000000 cycles: 216584224 heartbeat IPC: 1.69724 cumulative IPC: 1.53719 (Simulation time: 1 hr 42 min 46 sec) 
Heartbeat CPU 1 instructions: 510000002 cycles: 219759356 heartbeat IPC: 1.53609 cumulative IPC: 1.53795 (Simulation time: 1 hr 43 min 38 sec) 
Heartbeat CPU 2 instructions: 460000000 cycles: 220111643 heartbeat IPC: 0.880222 cumulative IPC: 0.446187 (Simulation time: 1 hr 43 min 43 sec) 
Heartbeat CPU 0 instructions: 510000000 cycles: 223018731 heartbeat IPC: 1.55412 cumulative IPC: 1.54698 (Simulation time: 1 hr 44 min 28 sec) 
Heartbeat CPU 1 instructions: 520000000 cycles: 226214121 heartbeat IPC: 1.54924 cumulative IPC: 1.54304 (Simulation time: 1 hr 45 min 23 sec) 
Heartbeat CPU 0 instructions: 520000000 cycles: 229460559 heartbeat IPC: 1.55235 cumulative IPC: 1.54895 (Simulation time: 1 hr 46 min 13 sec) 
Heartbeat CPU 1 instructions: 530000001 cycles: 232779582 heartbeat IPC: 1.52312 cumulative IPC: 1.53678 (Simulation time: 1 hr 47 min 33 sec) 
Heartbeat CPU 0 instructions: 530000001 cycles: 235949033 heartbeat IPC: 1.54119 cumulative IPC: 1.54686 (Simulation time: 1 hr 48 min 22 sec) 
Heartbeat CPU 2 instructions: 470000000 cycles: 239167608 heartbeat IPC: 0.52477 cumulative IPC: 0.501075 (Simulation time: 1 hr 49 min 13 sec) 
Heartbeat CPU 1 instructions: 540000000 cycles: 239273637 heartbeat IPC: 1.53987 cumulative IPC: 1.53751 (Simulation time: 1 hr 49 min 15 sec) 
Heartbeat CPU 0 instructions: 540000000 cycles: 242491551 heartbeat IPC: 1.52846 cumulative IPC: 1.54292 (Simulation time: 1 hr 50 min 7 sec) 
Heartbeat CPU 1 instructions: 550000002 cycles: 245734886 heartbeat IPC: 1.54769 cumulative IPC: 1.53946 (Simulation time: 1 hr 50 min 56 sec) 
Heartbeat CPU 0 instructions: 550000001 cycles: 248986289 heartbeat IPC: 1.53971 cumulative IPC: 1.54236 (Simulation time: 1 hr 51 min 46 sec) 
Heartbeat CPU 1 instructions: 560000000 cycles: 252750656 heartbeat IPC: 1.42536 cumulative IPC: 1.51987 (Simulation time: 1 hr 52 min 51 sec) 
Heartbeat CPU 0 instructions: 560000000 cycles: 255433014 heartbeat IPC: 1.55117 cumulative IPC: 1.54367 (Simulation time: 1 hr 53 min 37 sec) 
Heartbeat CPU 2 instructions: 480000000 cycles: 256230127 heartbeat IPC: 0.58608 cumulative IPC: 0.533782 (Simulation time: 1 hr 53 min 51 sec) 
Heartbeat CPU 1 instructions: 570000000 cycles: 259076310 heartbeat IPC: 1.58086 cumulative IPC: 1.52804 (Simulation time: 1 hr 54 min 40 sec) 
Heartbeat CPU 0 instructions: 570000000 cycles: 261960059 heartbeat IPC: 1.53209 cumulative IPC: 1.54216 (Simulation time: 1 hr 55 min 31 sec) 
Heartbeat CPU 1 instructions: 580000000 cycles: 265485155 heartbeat IPC: 1.56034 cumulative IPC: 1.53191 (Simulation time: 1 hr 56 min 32 sec) 
Heartbeat CPU 0 instructions: 580000000 cycles: 268420870 heartbeat IPC: 1.54779 cumulative IPC: 1.5428 (Simulation time: 1 hr 57 min 18 sec) 
Heartbeat CPU 2 instructions: 490000000 cycles: 268449065 heartbeat IPC: 0.818402 cumulative IPC: 0.595266 (Simulation time: 1 hr 57 min 19 sec) 
Heartbeat CPU 1 instructions: 590000003 cycles: 272966170 heartbeat IPC: 1.33672 cumulative IPC: 1.508 (Simulation time: 1 hr 58 min 35 sec) 
Heartbeat CPU 0 instructions: 590000002 cycles: 274967356 heartbeat IPC: 1.52754 cumulative IPC: 1.54122 (Simulation time: 1 hr 59 min 10 sec) 
Heartbeat CPU 1 instructions: 600000000 cycles: 279093691 heartbeat IPC: 1.63198 cumulative IPC: 1.5193 (Simulation time: 2 hr 0 min 23 sec) 
Heartbeat CPU 2 instructions: 500000000 cycles: 281005370 heartbeat IPC: 0.796413 cumulative IPC: 0.631806 (Simulation time: 2 hr 0 min 57 sec) 
Heartbeat CPU 0 instructions: 600000000 cycles: 281492311 heartbeat IPC: 1.53258 cumulative IPC: 1.54041 (Simulation time: 2 hr 1 min 6 sec) 
Heartbeat CPU 3 instructions: 210000000 cycles: 285075465 heartbeat IPC: 0.13663 cumulative IPC: 0.13663 (Simulation time: 2 hr 2 min 7 sec) 
Heartbeat CPU 1 instructions: 610000002 cycles: 285334820 heartbeat IPC: 1.60227 cumulative IPC: 1.52635 (Simulation time: 2 hr 2 min 12 sec) 
Heartbeat CPU 0 instructions: 610000003 cycles: 288056283 heartbeat IPC: 1.52347 cumulative IPC: 1.53895 (Simulation time: 2 hr 3 min 0 sec) 
Heartbeat CPU 1 instructions: 620000000 cycles: 291439557 heartbeat IPC: 1.63807 cumulative IPC: 1.53493 (Simulation time: 2 hr 3 min 58 sec) 
Heartbeat CPU 2 instructions: 510000000 cycles: 293774532 heartbeat IPC: 0.783137 cumulative IPC: 0.655404 (Simulation time: 2 hr 4 min 37 sec) 
Heartbeat CPU 0 instructions: 620000000 cycles: 294504300 heartbeat IPC: 1.55086 cumulative IPC: 1.53988 (Simulation time: 2 hr 4 min 48 sec) 
Heartbeat CPU 1 instructions: 630000003 cycles: 298335735 heartbeat IPC: 1.45008 cumulative IPC: 1.52816 (Simulation time: 2 hr 5 min 50 sec) 
Heartbeat CPU 0 instructions: 630000000 cycles: 300994782 heartbeat IPC: 1.54072 cumulative IPC: 1.53994 (Simulation time: 2 hr 6 min 31 sec) 
Heartbeat CPU 2 instructions: 520000000 cycles: 305295667 heartbeat IPC: 0.86797 cumulative IPC: 0.681621 (Simulation time: 2 hr 7 min 39 sec) 
Heartbeat CPU 1 instructions: 640000000 cycles: 305314392 heartbeat IPC: 1.43294 cumulative IPC: 1.52105 (Simulation time: 2 hr 7 min 39 sec) 
Heartbeat CPU 0 instructions: 640000000 cycles: 307446360 heartbeat IPC: 1.55001 cumulative IPC: 1.54062 (Simulation time: 2 hr 8 min 14 sec) 
Heartbeat CPU 1 instructions: 650000000 cycles: 311543828 heartbeat IPC: 1.60528 cumulative IPC: 1.52631 (Simulation time: 2 hr 9 min 19 sec) 
Heartbeat CPU 0 instructions: 650000001 cycles: 313852390 heartbeat IPC: 1.56103 cumulative IPC: 1.5419 (Simulation time: 2 hr 9 min 56 sec) 
Heartbeat CPU 2 instructions: 530000003 cycles: 317761047 heartbeat IPC: 0.802222 cumulative IPC: 0.69582 (Simulation time: 2 hr 10 min 57 sec) 
Heartbeat CPU 1 instructions: 660000000 cycles: 318519440 heartbeat IPC: 1.43357 cumulative IPC: 1.52024 (Simulation time: 2 hr 11 min 9 sec) 
Heartbeat CPU 0 instructions: 660000000 cycles: 320337825 heartbeat IPC: 1.54192 cumulative IPC: 1.5419 (Simulation time: 2 hr 11 min 38 sec) 
Heartbeat CPU 1 instructions: 670000001 cycles: 325015871 heartbeat IPC: 1.53931 cumulative IPC: 1.52134 (Simulation time: 2 hr 12 min 52 sec) 
Heartbeat CPU 0 instructions: 670000002 cycles: 326877840 heartbeat IPC: 1.52905 cumulative IPC: 1.54117 (Simulation time: 2 hr 13 min 18 sec) 
Heartbeat CPU 1 instructions: 680000000 cycles: 331525829 heartbeat IPC: 1.53611 cumulative IPC: 1.52214 (Simulation time: 2 hr 14 min 23 sec) 
Heartbeat CPU 2 instructions: 540000000 cycles: 333407166 heartbeat IPC: 0.639136 cumulative IPC: 0.688522 (Simulation time: 2 hr 14 min 52 sec) 
Heartbeat CPU 0 instructions: 680000000 cycles: 333412712 heartbeat IPC: 1.53025 cumulative IPC: 1.54058 (Simulation time: 2 hr 14 min 52 sec) 
Heartbeat CPU 1 instructions: 690000003 cycles: 338032095 heartbeat IPC: 1.53698 cumulative IPC: 1.52291 (Simulation time: 2 hr 16 min 3 sec) 
Heartbeat CPU 0 instructions: 690000001 cycles: 339906741 heartbeat IPC: 1.53988 cumulative IPC: 1.54055 (Simulation time: 2 hr 16 min 29 sec) 
Heartbeat CPU 1 instructions: 700000000 cycles: 344505962 heartbeat IPC: 1.54467 cumulative IPC: 1.52397 (Simulation time: 2 hr 17 min 35 sec) 
Heartbeat CPU 0 instructions: 700000000 cycles: 346338146 heartbeat IPC: 1.55487 cumulative IPC: 1.54123 (Simulation time: 2 hr 18 min 0 sec) 
Heartbeat CPU 1 instructions: 710000000 cycles: 351532550 heartbeat IPC: 1.42317 cumulative IPC: 1.5189 (Simulation time: 2 hr 19 min 11 sec) 
Heartbeat CPU 0 instructions: 710000000 cycles: 352816367 heartbeat IPC: 1.54363 cumulative IPC: 1.54134 (Simulation time: 2 hr 19 min 29 sec) 
Heartbeat CPU 3 instructions: 220000000 cycles: 356142822 heartbeat IPC: 0.140712 cumulative IPC: 0.138641 (Simulation time: 2 hr 20 min 13 sec) 
Heartbeat CPU 2 instructions: 550000000 cycles: 357823311 heartbeat IPC: 0.409565 cumulative IPC: 0.641851 (Simulation time: 2 hr 20 min 37 sec) 
Heartbeat CPU 1 instructions: 720000000 cycles: 358599516 heartbeat IPC: 1.41503 cumulative IPC: 1.51389 (Simulation time: 2 hr 20 min 48 sec) 
Heartbeat CPU 0 instructions: 720000000 cycles: 359221818 heartbeat IPC: 1.56117 cumulative IPC: 1.54221 (Simulation time: 2 hr 20 min 57 sec) 
Heartbeat CPU 1 instructions: 730000002 cycles: 365035550 heartbeat IPC: 1.55375 cumulative IPC: 1.51557 (Simulation time: 2 hr 22 min 25 sec) 
Heartbeat CPU 0 instructions: 730000003 cycles: 365715526 heartbeat IPC: 1.53995 cumulative IPC: 1.54211 (Simulation time: 2 hr 22 min 35 sec) 
Heartbeat CPU 1 instructions: 740000000 cycles: 371485388 heartbeat IPC: 1.55043 cumulative IPC: 1.51698 (Simulation time: 2 hr 24 min 5 sec) 
Heartbeat CPU 0 instructions: 740000000 cycles: 372120786 heartbeat IPC: 1.56122 cumulative IPC: 1.54287 (Simulation time: 2 hr 24 min 14 sec) 
Heartbeat CPU 2 instructions: 560000000 cycles: 377925667 heartbeat IPC: 0.497454 cumulative IPC: 0.624369 (Simulation time: 2 hr 25 min 38 sec) 
Heartbeat CPU 1 instructions: 750000001 cycles: 378493723 heartbeat IPC: 1.42687 cumulative IPC: 1.51319 (Simulation time: 2 hr 25 min 47 sec) 
Heartbeat CPU 0 instructions: 750000000 cycles: 378559719 heartbeat IPC: 1.55305 cumulative IPC: 1.54327 (Simulation time: 2 hr 25 min 48 sec) 
Heartbeat CPU 1 instructions: 760000000 cycles: 384932141 heartbeat IPC: 1.55318 cumulative IPC: 1.51468 (Simulation time: 2 hr 27 min 22 sec) 
Heartbeat CPU 0 instructions: 760000000 cycles: 384969116 heartbeat IPC: 1.56021 cumulative IPC: 1.54389 (Simulation time: 2 hr 27 min 23 sec) 
Heartbeat CPU 0 instructions: 770000000 cycles: 391338368 heartbeat IPC: 1.57004 cumulative IPC: 1.54482 (Simulation time: 2 hr 28 min 53 sec) 
Heartbeat CPU 1 instructions: 770000000 cycles: 391343547 heartbeat IPC: 1.55972 cumulative IPC: 1.51629 (Simulation time: 2 hr 28 min 53 sec) 
Heartbeat CPU 1 instructions: 780000000 cycles: 397750749 heartbeat IPC: 1.56074 cumulative IPC: 1.51782 (Simulation time: 2 hr 30 min 25 sec) 
Heartbeat CPU 0 instructions: 780000000 cycles: 397793936 heartbeat IPC: 1.54905 cumulative IPC: 1.54497 (Simulation time: 2 hr 30 min 25 sec) 
Heartbeat CPU 2 instructions: 570000002 cycles: 399194482 heartbeat IPC: 0.470172 cumulative IPC: 0.60686 (Simulation time: 2 hr 30 min 47 sec) 
Heartbeat CPU 0 instructions: 790000001 cycles: 404185335 heartbeat IPC: 1.5646 cumulative IPC: 1.54562 (Simulation time: 2 hr 31 min 58 sec) 
Heartbeat CPU 1 instructions: 790000000 cycles: 405452560 heartbeat IPC: 1.2984 cumulative IPC: 1.50909 (Simulation time: 2 hr 32 min 15 sec) 
Heartbeat CPU 0 instructions: 800000000 cycles: 410629388 heartbeat IPC: 1.55182 cumulative IPC: 1.54582 (Simulation time: 2 hr 33 min 28 sec) 
Heartbeat CPU 1 instructions: 800000000 cycles: 412666285 heartbeat IPC: 1.38625 cumulative IPC: 1.50467 (Simulation time: 2 hr 33 min 59 sec) 
Heartbeat CPU 0 instructions: 810000001 cycles: 417053588 heartbeat IPC: 1.55661 cumulative IPC: 1.54616 (Simulation time: 2 hr 35 min 7 sec) 
Heartbeat CPU 1 instructions: 810000002 cycles: 419556418 heartbeat IPC: 1.45135 cumulative IPC: 1.5029 (Simulation time: 2 hr 35 min 43 sec) 
Heartbeat CPU 2 instructions: 580000000 cycles: 422902109 heartbeat IPC: 0.421805 cumulative IPC: 0.586069 (Simulation time: 2 hr 36 min 34 sec) 
Heartbeat CPU 0 instructions: 820000000 cycles: 423494259 heartbeat IPC: 1.55263 cumulative IPC: 1.54636 (Simulation time: 2 hr 36 min 43 sec) 
Heartbeat CPU 1 instructions: 820000000 cycles: 425940362 heartbeat IPC: 1.56643 cumulative IPC: 1.5048 (Simulation time: 2 hr 37 min 20 sec) 
Heartbeat CPU 3 instructions: 230000000 cycles: 426989063 heartbeat IPC: 0.141151 cumulative IPC: 0.139468 (Simulation time: 2 hr 37 min 35 sec) 
Heartbeat CPU 0 instructions: 830000002 cycles: 430678369 heartbeat IPC: 1.39196 cumulative IPC: 1.54129 (Simulation time: 2 hr 38 min 29 sec) 
Heartbeat CPU 1 instructions: 830000003 cycles: 432879487 heartbeat IPC: 1.4411 cumulative IPC: 1.5028 (Simulation time: 2 hr 38 min 58 sec) 
Heartbeat CPU 1 instructions: 840000000 cycles: 439300611 heartbeat IPC: 1.55736 cumulative IPC: 1.50434 (Simulation time: 2 hr 40 min 27 sec) 
Heartbeat CPU 0 instructions: 840000000 cycles: 439503695 heartbeat IPC: 1.1331 cumulative IPC: 1.52546 (Simulation time: 2 hr 40 min 30 sec) 
Heartbeat CPU 1 instructions: 850000000 cycles: 446255496 heartbeat IPC: 1.43784 cumulative IPC: 1.50237 (Simulation time: 2 hr 42 min 5 sec) 
Heartbeat CPU 0 instructions: 850000003 cycles: 446771447 heartbeat IPC: 1.37594 cumulative IPC: 1.52084 (Simulation time: 2 hr 42 min 13 sec) 
Heartbeat CPU 2 instructions: 590000001 cycles: 450941733 heartbeat IPC: 0.356638 cumulative IPC: 0.559159 (Simulation time: 2 hr 43 min 22 sec) 
Heartbeat CPU 1 instructions: 860000000 cycles: 453251251 heartbeat IPC: 1.42944 cumulative IPC: 1.50025 (Simulation time: 2 hr 43 min 53 sec) 
Heartbeat CPU 0 instructions: 860000000 cycles: 453603103 heartbeat IPC: 1.46377 cumulative IPC: 1.51922 (Simulation time: 2 hr 43 min 58 sec) 
Heartbeat CPU 0 instructions: 870000000 cycles: 460268314 heartbeat IPC: 1.50033 cumulative IPC: 1.51872 (Simulation time: 2 hr 45 min 28 sec) 
Heartbeat CPU 1 instructions: 870000000 cycles: 462586707 heartbeat IPC: 1.07118 cumulative IPC: 1.48428 (Simulation time: 2 hr 46 min 2 sec) 
Heartbeat CPU 0 instructions: 880000000 cycles: 466916777 heartbeat IPC: 1.50411 cumulative IPC: 1.51833 (Simulation time: 2 hr 47 min 5 sec) 
Heartbeat CPU 1 instructions: 880000000 cycles: 470649486 heartbeat IPC: 1.24027 cumulative IPC: 1.47667 (Simulation time: 2 hr 47 min 57 sec) 
Heartbeat CPU 0 instructions: 890000000 cycles: 474206757 heartbeat IPC: 1.37175 cumulative IPC: 1.51426 (Simulation time: 2 hr 48 min 54 sec) 
Heartbeat CPU 2 instructions: 600000000 cycles: 474900494 heartbeat IPC: 0.417384 cumulative IPC: 0.546244 (Simulation time: 2 hr 49 min 5 sec) 
Heartbeat CPU 1 instructions: 890000000 cycles: 476911503 heartbeat IPC: 1.59693 cumulative IPC: 1.47951 (Simulation time: 2 hr 49 min 37 sec) 
Heartbeat CPU 0 instructions: 900000000 cycles: 480917878 heartbeat IPC: 1.49006 cumulative IPC: 1.51366 (Simulation time: 2 hr 50 min 45 sec) 
Heartbeat CPU 1 instructions: 900000000 cycles: 483177710 heartbeat IPC: 1.59586 cumulative IPC: 1.4822 (Simulation time: 2 hr 51 min 22 sec) 
Heartbeat CPU 0 instructions: 910000003 cycles: 487685844 heartbeat IPC: 1.47755 cumulative IPC: 1.51277 (Simulation time: 2 hr 52 min 32 sec) 
Heartbeat CPU 1 instructions: 910000002 cycles: 489372172 heartbeat IPC: 1.61435 cumulative IPC: 1.48515 (Simulation time: 2 hr 52 min 59 sec) 
Heartbeat CPU 0 instructions: 920000000 cycles: 494409106 heartbeat IPC: 1.48737 cumulative IPC: 1.51217 (Simulation time: 2 hr 54 min 18 sec) 
Heartbeat CPU 1 instructions: 920000000 cycles: 495640607 heartbeat IPC: 1.59529 cumulative IPC: 1.48758 (Simulation time: 2 hr 54 min 37 sec) 
Heartbeat CPU 2 instructions: 610000003 cycles: 497237499 heartbeat IPC: 0.447688 cumulative IPC: 0.538529 (Simulation time: 2 hr 55 min 3 sec) 
Heartbeat CPU 3 instructions: 240000000 cycles: 500581402 heartbeat IPC: 0.135884 cumulative IPC: 0.138554 (Simulation time: 2 hr 55 min 56 sec) 
Heartbeat CPU 0 instructions: 930000002 cycles: 501195370 heartbeat IPC: 1.47357 cumulative IPC: 1.51126 (Simulation time: 2 hr 56 min 6 sec) 
Heartbeat CPU 1 instructions: 930000001 cycles: 501894194 heartbeat IPC: 1.59908 cumulative IPC: 1.48999 (Simulation time: 2 hr 56 min 17 sec) 
Heartbeat CPU 0 instructions: 940000000 cycles: 507978547 heartbeat IPC: 1.47424 cumulative IPC: 1.51041 (Simulation time: 2 hr 57 min 53 sec) 
Heartbeat CPU 1 instructions: 940000000 cycles: 508139118 heartbeat IPC: 1.6013 cumulative IPC: 1.49233 (Simulation time: 2 hr 57 min 55 sec) 
Heartbeat CPU 1 instructions: 950000002 cycles: 514424003 heartbeat IPC: 1.59112 cumulative IPC: 1.49439 (Simulation time: 2 hr 59 min 33 sec) 
Heartbeat CPU 0 instructions: 950000003 cycles: 514780571 heartbeat IPC: 1.47015 cumulative IPC: 1.50951 (Simulation time: 2 hr 59 min 38 sec) 
Heartbeat CPU 0 instructions: 960000000 cycles: 521640443 heartbeat IPC: 1.45775 cumulative IPC: 1.50836 (Simulation time: 3 hr 1 min 18 sec) 
Heartbeat CPU 1 instructions: 960000000 cycles: 521964423 heartbeat IPC: 1.32619 cumulative IPC: 1.4903 (Simulation time: 3 hr 1 min 23 sec) 
Heartbeat CPU 2 instructions: 620000000 cycles: 523454437 heartbeat IPC: 0.381433 cumulative IPC: 0.52531 (Simulation time: 3 hr 1 min 46 sec) 
Heartbeat CPU 1 instructions: 970000002 cycles: 528218068 heartbeat IPC: 1.59907 cumulative IPC: 1.49245 (Simulation time: 3 hr 3 min 0 sec) 
Heartbeat CPU 0 instructions: 970000000 cycles: 528462270 heartbeat IPC: 1.46588 cumulative IPC: 1.50745 (Simulation time: 3 hr 3 min 4 sec) 
Heartbeat CPU 1 instructions: 980000000 cycles: 534548574 heartbeat IPC: 1.57965 cumulative IPC: 1.49416 (Simulation time: 3 hr 4 min 43 sec) 
Heartbeat CPU 0 instructions: 980000000 cycles: 535211175 heartbeat IPC: 1.48172 cumulative IPC: 1.50691 (Simulation time: 3 hr 4 min 56 sec) 
Heartbeat CPU 1 instructions: 990000002 cycles: 541416706 heartbeat IPC: 1.456 cumulative IPC: 1.49336 (Simulation time: 3 hr 6 min 30 sec) 
Heartbeat CPU 0 instructions: 990000001 cycles: 541999641 heartbeat IPC: 1.47309 cumulative IPC: 1.50621 (Simulation time: 3 hr 6 min 40 sec) 
Heartbeat CPU 2 instructions: 630000003 cycles: 546075117 heartbeat IPC: 0.442073 cumulative IPC: 0.519676 (Simulation time: 3 hr 7 min 47 sec) 
Heartbeat CPU 1 instructions: 1000000000 cycles: 547720460 heartbeat IPC: 1.58636 cumulative IPC: 1.49511 (Simulation time: 3 hr 8 min 14 sec) 
Heartbeat CPU 0 instructions: 1000000000 cycles: 548804431 heartbeat IPC: 1.46955 cumulative IPC: 1.50547 (Simulation time: 3 hr 8 min 29 sec) 
Heartbeat CPU 1 instructions: 1010000000 cycles: 554100192 heartbeat IPC: 1.56746 cumulative IPC: 1.49646 (Simulation time: 3 hr 9 min 42 sec) 
Heartbeat CPU 0 instructions: 1010000003 cycles: 556253410 heartbeat IPC: 1.34247 cumulative IPC: 1.50195 (Simulation time: 3 hr 10 min 12 sec) 
Heartbeat CPU 1 instructions: 1020000000 cycles: 560978920 heartbeat IPC: 1.45376 cumulative IPC: 1.49562 (Simulation time: 3 hr 11 min 18 sec) 
Heartbeat CPU 0 instructions: 1020000000 cycles: 563222327 heartbeat IPC: 1.43494 cumulative IPC: 1.50062 (Simulation time: 3 hr 11 min 53 sec) 
Heartbeat CPU 1 instructions: 1030000000 cycles: 567196654 heartbeat IPC: 1.6083 cumulative IPC: 1.49759 (Simulation time: 3 hr 12 min 51 sec) 
Heartbeat CPU 2 instructions: 640000000 cycles: 570138098 heartbeat IPC: 0.415576 cumulative IPC: 0.512684 (Simulation time: 3 hr 13 min 33 sec) 
Heartbeat CPU 0 instructions: 1030000001 cycles: 570231430 heartbeat IPC: 1.42672 cumulative IPC: 1.49917 (Simulation time: 3 hr 13 min 34 sec) 
Heartbeat CPU 3 instructions: 250000002 cycles: 573162883 heartbeat IPC: 0.137776 cumulative IPC: 0.138398 (Simulation time: 3 hr 14 min 16 sec) 
Heartbeat CPU 1 instructions: 1040000000 cycles: 573613127 heartbeat IPC: 1.55849 cumulative IPC: 1.49867 (Simulation time: 3 hr 14 min 21 sec) 
Heartbeat CPU 0 instructions: 1040000000 cycles: 577262012 heartbeat IPC: 1.42236 cumulative IPC: 1.4977 (Simulation time: 3 hr 15 min 7 sec) 
Heartbeat CPU 1 instructions: 1050000001 cycles: 581378795 heartbeat IPC: 1.28772 cumulative IPC: 1.49423 (Simulation time: 3 hr 16 min 1 sec) 
Heartbeat CPU 0 instructions: 1050000000 cycles: 584359977 heartbeat IPC: 1.40885 cumulative IPC: 1.496 (Simulation time: 3 hr 16 min 43 sec) 
Heartbeat CPU 1 instructions: 1060000000 cycles: 587815826 heartbeat IPC: 1.55351 cumulative IPC: 1.49525 (Simulation time: 3 hr 17 min 34 sec) 
Heartbeat CPU 0 instructions: 1060000000 cycles: 590872058 heartbeat IPC: 1.53561 cumulative IPC: 1.49668 (Simulation time: 3 hr 18 min 22 sec) 
Heartbeat CPU 1 instructions: 1070000002 cycles: 594243153 heartbeat IPC: 1.55586 cumulative IPC: 1.49627 (Simulation time: 3 hr 19 min 14 sec) 
Heartbeat CPU 2 instructions: 650000002 cycles: 596939842 heartbeat IPC: 0.37311 cumulative IPC: 0.502969 (Simulation time: 3 hr 19 min 56 sec) 
Heartbeat CPU 0 instructions: 1070000001 cycles: 597451547 heartbeat IPC: 1.51988 cumulative IPC: 1.49708 (Simulation time: 3 hr 20 min 5 sec) 
Heartbeat CPU 1 instructions: 1080000000 cycles: 600525238 heartbeat IPC: 1.59183 cumulative IPC: 1.49781 (Simulation time: 3 hr 20 min 54 sec) 
Heartbeat CPU 0 instructions: 1080000000 cycles: 604023506 heartbeat IPC: 1.52162 cumulative IPC: 1.49749 (Simulation time: 3 hr 21 min 44 sec) 
Heartbeat CPU 1 instructions: 1090000003 cycles: 607588848 heartbeat IPC: 1.41571 cumulative IPC: 1.49635 (Simulation time: 3 hr 22 min 34 sec) 
Heartbeat CPU 0 instructions: 1090000002 cycles: 610731888 heartbeat IPC: 1.49067 cumulative IPC: 1.49738 (Simulation time: 3 hr 23 min 21 sec) 
Heartbeat CPU 1 instructions: 1100000000 cycles: 614056902 heartbeat IPC: 1.54606 cumulative IPC: 1.49715 (Simulation time: 3 hr 24 min 10 sec) 
Heartbeat CPU 0 instructions: 1100000000 cycles: 617331455 heartbeat IPC: 1.51525 cumulative IPC: 1.49767 (Simulation time: 3 hr 24 min 58 sec) 
Heartbeat CPU 2 instructions: 660000000 cycles: 620002096 heartbeat IPC: 0.433609 cumulative IPC: 0.49905 (Simulation time: 3 hr 25 min 39 sec) 
Heartbeat CPU 1 instructions: 1110000002 cycles: 621162868 heartbeat IPC: 1.40727 cumulative IPC: 1.49559 (Simulation time: 3 hr 25 min 57 sec) 
Heartbeat CPU 0 instructions: 1110000003 cycles: 624005979 heartbeat IPC: 1.49823 cumulative IPC: 1.49768 (Simulation time: 3 hr 26 min 40 sec) 
Heartbeat CPU 1 instructions: 1120000000 cycles: 627603673 heartbeat IPC: 1.5526 cumulative IPC: 1.49647 (Simulation time: 3 hr 27 min 38 sec) 
Heartbeat CPU 0 instructions: 1120000000 cycles: 630661455 heartbeat IPC: 1.50252 cumulative IPC: 1.49775 (Simulation time: 3 hr 28 min 27 sec) 
Heartbeat CPU 1 instructions: 1130000001 cycles: 634586619 heartbeat IPC: 1.43206 cumulative IPC: 1.49541 (Simulation time: 3 hr 29 min 24 sec) 
Heartbeat CPU 0 instructions: 1130000000 cycles: 637783322 heartbeat IPC: 1.40413 cumulative IPC: 1.49619 (Simulation time: 3 hr 30 min 14 sec) 
Heartbeat CPU 1 instructions: 1140000000 cycles: 641001736 heartbeat IPC: 1.55882 cumulative IPC: 1.49635 (Simulation time: 3 hr 31 min 4 sec) 
Heartbeat CPU 0 instructions: 1140000000 cycles: 644447801 heartbeat IPC: 1.50049 cumulative IPC: 1.49625 (Simulation time: 3 hr 31 min 55 sec) 
Heartbeat CPU 3 instructions: 260000000 cycles: 645441986 heartbeat IPC: 0.138353 cumulative IPC: 0.13839 (Simulation time: 3 hr 32 min 9 sec) 
Heartbeat CPU 2 instructions: 670000001 cycles: 647704456 heartbeat IPC: 0.36098 cumulative IPC: 0.490273 (Simulation time: 3 hr 32 min 41 sec) 
Heartbeat CPU 1 instructions: 1150000000 cycles: 647946801 heartbeat IPC: 1.43987 cumulative IPC: 1.49545 (Simulation time: 3 hr 32 min 44 sec) 
Heartbeat CPU 0 instructions: 1150000000 cycles: 651131617 heartbeat IPC: 1.49615 cumulative IPC: 1.49625 (Simulation time: 3 hr 33 min 34 sec) 
Heartbeat CPU 1 instructions: 1160000000 cycles: 654690320 heartbeat IPC: 1.48291 cumulative IPC: 1.49526 (Simulation time: 3 hr 34 min 28 sec) 
Heartbeat CPU 0 instructions: 1160000000 cycles: 657745824 heartbeat IPC: 1.5119 cumulative IPC: 1.49648 (Simulation time: 3 hr 35 min 14 sec) 
Heartbeat CPU 1 instructions: 1170000002 cycles: 661453802 heartbeat IPC: 1.47853 cumulative IPC: 1.49501 (Simulation time: 3 hr 36 min 10 sec) 
Heartbeat CPU 0 instructions: 1170000000 cycles: 665864599 heartbeat IPC: 1.23171 cumulative IPC: 1.49175 (Simulation time: 3 hr 37 min 12 sec) 
Heartbeat CPU 1 instructions: 1180000000 cycles: 668305857 heartbeat IPC: 1.45942 cumulative IPC: 1.49448 (Simulation time: 3 hr 37 min 48 sec) 
Heartbeat CPU 2 instructions: 680000000 cycles: 671187029 heartbeat IPC: 0.425848 cumulative IPC: 0.486979 (Simulation time: 3 hr 38 min 31 sec) 
Heartbeat CPU 0 instructions: 1180000000 cycles: 672424239 heartbeat IPC: 1.52447 cumulative IPC: 1.49222 (Simulation time: 3 hr 38 min 51 sec) 
Heartbeat CPU 1 instructions: 1190000000 cycles: 675415209 heartbeat IPC: 1.4066 cumulative IPC: 1.49313 (Simulation time: 3 hr 39 min 41 sec) 
Heartbeat CPU 0 instructions: 1190000001 cycles: 679028299 heartbeat IPC: 1.51422 cumulative IPC: 1.49253 (Simulation time: 3 hr 40 min 34 sec) 
Heartbeat CPU 1 instructions: 1200000000 cycles: 682863161 heartbeat IPC: 1.34265 cumulative IPC: 1.49075 (Simulation time: 3 hr 41 min 25 sec) 
Heartbeat CPU 0 instructions: 1200000000 cycles: 685734911 heartbeat IPC: 1.49107 cumulative IPC: 1.49251 (Simulation time: 3 hr 42 min 6 sec) 
Heartbeat CPU 1 instructions: 1210000000 cycles: 689213602 heartbeat IPC: 1.57469 cumulative IPC: 1.49187 (Simulation time: 3 hr 42 min 55 sec) 
Heartbeat CPU 0 instructions: 1210000002 cycles: 692253086 heartbeat IPC: 1.53417 cumulative IPC: 1.49307 (Simulation time: 3 hr 43 min 37 sec) 
Heartbeat CPU 2 instructions: 690000000 cycles: 693537777 heartbeat IPC: 0.447412 cumulative IPC: 0.485143 (Simulation time: 3 hr 43 min 55 sec) 
Heartbeat CPU 1 instructions: 1220000000 cycles: 696222550 heartbeat IPC: 1.42675 cumulative IPC: 1.49092 (Simulation time: 3 hr 44 min 31 sec) 
Heartbeat CPU 0 instructions: 1220000000 cycles: 699292112 heartbeat IPC: 1.42065 cumulative IPC: 1.49203 (Simulation time: 3 hr 45 min 14 sec) 
Heartbeat CPU 1 instructions: 1230000001 cycles: 703782693 heartbeat IPC: 1.32273 cumulative IPC: 1.48834 (Simulation time: 3 hr 46 min 17 sec) 
Heartbeat CPU 0 instructions: 1230000000 cycles: 705573225 heartbeat IPC: 1.59207 cumulative IPC: 1.4933 (Simulation time: 3 hr 46 min 42 sec) 
Heartbeat CPU 1 instructions: 1240000000 cycles: 710024602 heartbeat IPC: 1.60207 cumulative IPC: 1.48976 (Simulation time: 3 hr 47 min 47 sec) 
Heartbeat CPU 0 instructions: 1240000000 cycles: 711892810 heartbeat IPC: 1.58238 cumulative IPC: 1.49442 (Simulation time: 3 hr 48 min 14 sec) 
Heartbeat CPU 1 instructions: 1250000000 cycles: 716359268 heartbeat IPC: 1.57862 cumulative IPC: 1.49088 (Simulation time: 3 hr 49 min 17 sec) 
Heartbeat CPU 0 instructions: 1250000001 cycles: 718276316 heartbeat IPC: 1.56654 cumulative IPC: 1.49533 (Simulation time: 3 hr 49 min 46 sec) 
Heartbeat CPU 3 instructions: 270000000 cycles: 718406432 heartbeat IPC: 0.137053 cumulative IPC: 0.138198 (Simulation time: 3 hr 49 min 48 sec) 
Heartbeat CPU 1 instructions: 1260000000 cycles: 722697535 heartbeat IPC: 1.57772 cumulative IPC: 1.49196 (Simulation time: 3 hr 50 min 51 sec) 
Heartbeat CPU 2 instructions: 700000000 cycles: 724062695 heartbeat IPC: 0.327601 cumulative IPC: 0.475754 (Simulation time: 3 hr 51 min 12 sec) 
Heartbeat CPU 0 instructions: 1260000000 cycles: 725007055 heartbeat IPC: 1.48572 cumulative IPC: 1.49521 (Simulation time: 3 hr 51 min 25 sec) 
Heartbeat CPU 1 instructions: 1270000001 cycles: 729044995 heartbeat IPC: 1.57543 cumulative IPC: 1.49298 (Simulation time: 3 hr 52 min 26 sec) 
Heartbeat CPU 0 instructions: 1270000000 cycles: 731540758 heartbeat IPC: 1.53053 cumulative IPC: 1.49565 (Simulation time: 3 hr 53 min 2 sec) 
Heartbeat CPU 1 instructions: 1280000000 cycles: 737317589 heartbeat IPC: 1.20881 cumulative IPC: 1.48851 (Simulation time: 3 hr 54 min 24 sec) 
Heartbeat CPU 0 instructions: 1280000000 cycles: 737982491 heartbeat IPC: 1.55238 cumulative IPC: 1.49635 (Simulation time: 3 hr 54 min 33 sec) 
Heartbeat CPU 1 instructions: 1290000002 cycles: 744109232 heartbeat IPC: 1.4724 cumulative IPC: 1.4883 (Simulation time: 3 hr 55 min 57 sec) 
Heartbeat CPU 0 instructions: 1290000001 cycles: 744721806 heartbeat IPC: 1.48383 cumulative IPC: 1.49619 (Simulation time: 3 hr 56 min 6 sec) 
Heartbeat CPU 2 instructions: 710000001 cycles: 749080310 heartbeat IPC: 0.399718 cumulative IPC: 0.472213 (Simulation time: 3 hr 57 min 16 sec) 
Heartbeat CPU 1 instructions: 1300000000 cycles: 750402721 heartbeat IPC: 1.58894 cumulative IPC: 1.48948 (Simulation time: 3 hr 57 min 37 sec) 
Heartbeat CPU 0 instructions: 1300000000 cycles: 751268083 heartbeat IPC: 1.52759 cumulative IPC: 1.49657 (Simulation time: 3 hr 57 min 50 sec) 
Heartbeat CPU 1 instructions: 1310000000 cycles: 757370309 heartbeat IPC: 1.43522 cumulative IPC: 1.48879 (Simulation time: 3 hr 59 min 29 sec) 
Heartbeat CPU 0 instructions: 1310000002 cycles: 757588186 heartbeat IPC: 1.58225 cumulative IPC: 1.49756 (Simulation time: 3 hr 59 min 32 sec) 
Heartbeat CPU 2 instructions: 720000000 cycles: 761830876 heartbeat IPC: 0.784279 cumulative IPC: 0.479448 (Simulation time: 4 hr 0 min 37 sec) 
Heartbeat CPU 1 instructions: 1320000000 cycles: 763819439 heartbeat IPC: 1.5506 cumulative IPC: 1.48951 (Simulation time: 4 hr 1 min 8 sec) 
Heartbeat CPU 0 instructions: 1320000000 cycles: 764530750 heartbeat IPC: 1.44039 cumulative IPC: 1.49684 (Simulation time: 4 hr 1 min 20 sec) 
Heartbeat CPU 1 instructions: 1330000002 cycles: 770284359 heartbeat IPC: 1.54681 cumulative IPC: 1.49017 (Simulation time: 4 hr 2 min 51 sec) 
Heartbeat CPU 0 instructions: 1330000003 cycles: 770866712 heartbeat IPC: 1.57829 cumulative IPC: 1.49777 (Simulation time: 4 hr 3 min 1 sec) 
Heartbeat CPU 1 instructions: 1340000000 cycles: 776713118 heartbeat IPC: 1.55551 cumulative IPC: 1.49091 (Simulation time: 4 hr 4 min 38 sec) 
Heartbeat CPU 2 instructions: 730000002 cycles: 776879340 heartbeat IPC: 0.66452 cumulative IPC: 0.484378 (Simulation time: 4 hr 4 min 40 sec) 
Heartbeat CPU 0 instructions: 1340000000 cycles: 777354992 heartbeat IPC: 1.54124 cumulative IPC: 1.49826 (Simulation time: 4 hr 4 min 48 sec) 
Heartbeat CPU 1 instructions: 1350000000 cycles: 783181579 heartbeat IPC: 1.54596 cumulative IPC: 1.49154 (Simulation time: 4 hr 6 min 21 sec) 
Heartbeat CPU 0 instructions: 1350000001 cycles: 783702931 heartbeat IPC: 1.57531 cumulative IPC: 1.49912 (Simulation time: 4 hr 6 min 30 sec) 
Heartbeat CPU 1 instructions: 1360000000 cycles: 789668385 heartbeat IPC: 1.54159 cumulative IPC: 1.4921 (Simulation time: 4 hr 7 min 55 sec) 
Heartbeat CPU 0 instructions: 1360000000 cycles: 790878613 heartbeat IPC: 1.3936 cumulative IPC: 1.49781 (Simulation time: 4 hr 8 min 13 sec) 
Heartbeat CPU 3 instructions: 280000000 cycles: 791229889 heartbeat IPC: 0.137318 cumulative IPC: 0.138087 (Simulation time: 4 hr 8 min 18 sec) 
Heartbeat CPU 2 instructions: 740000000 cycles: 794593716 heartbeat IPC: 0.564513 cumulative IPC: 0.486814 (Simulation time: 4 hr 9 min 12 sec) 
Heartbeat CPU 1 instructions: 1370000003 cycles: 796177270 heartbeat IPC: 1.53636 cumulative IPC: 1.49259 (Simulation time: 4 hr 9 min 37 sec) 
Heartbeat CPU 0 instructions: 1370000000 cycles: 797409472 heartbeat IPC: 1.53119 cumulative IPC: 1.49818 (Simulation time: 4 hr 9 min 57 sec) 
Heartbeat CPU 1 instructions: 1380000000 cycles: 802690498 heartbeat IPC: 1.53534 cumulative IPC: 1.49306 (Simulation time: 4 hr 11 min 18 sec) 
Heartbeat CPU 0 instructions: 1380000000 cycles: 803981307 heartbeat IPC: 1.52165 cumulative IPC: 1.49844 (Simulation time: 4 hr 11 min 38 sec) 
Heartbeat CPU 1 instructions: 1390000003 cycles: 809295592 heartbeat IPC: 1.51398 cumulative IPC: 1.4933 (Simulation time: 4 hr 12 min 57 sec) 
Heartbeat CPU 0 instructions: 1390000001 cycles: 812146548 heartbeat IPC: 1.2247 cumulative IPC: 1.49472 (Simulation time: 4 hr 13 min 41 sec) 
Heartbeat CPU 2 instructions: 750000001 cycles: 813261790 heartbeat IPC: 0.535674 cumulative IPC: 0.488331 (Simulation time: 4 hr 13 min 59 sec) 
Heartbeat CPU 1 instructions: 1400000000 cycles: 815784589 heartbeat IPC: 1.54107 cumulative IPC: 1.49381 (Simulation time: 4 hr 14 min 39 sec) 
Heartbeat CPU 0 instructions: 1400000000 cycles: 818894831 heartbeat IPC: 1.48186 cumulative IPC: 1.49458 (Simulation time: 4 hr 15 min 28 sec) 
Heartbeat CPU 1 instructions: 1410000003 cycles: 822317689 heartbeat IPC: 1.53067 cumulative IPC: 1.4942 (Simulation time: 4 hr 16 min 21 sec) 
Heartbeat CPU 0 instructions: 1410000000 cycles: 826038761 heartbeat IPC: 1.39979 cumulative IPC: 1.49348 (Simulation time: 4 hr 17 min 24 sec) 
Heartbeat CPU 2 instructions: 760000000 cycles: 826196902 heartbeat IPC: 0.773089 cumulative IPC: 0.494326 (Simulation time: 4 hr 17 min 27 sec) 
Heartbeat CPU 1 instructions: 1420000000 cycles: 828850282 heartbeat IPC: 1.53079 cumulative IPC: 1.49459 (Simulation time: 4 hr 18 min 11 sec) 
Heartbeat CPU 0 instructions: 1420000000 cycles: 832515833 heartbeat IPC: 1.54391 cumulative IPC: 1.494 (Simulation time: 4 hr 19 min 14 sec) 
Heartbeat CPU 1 instructions: 1430000002 cycles: 835939304 heartbeat IPC: 1.41063 cumulative IPC: 1.49364 (Simulation time: 4 hr 20 min 9 sec) 
Heartbeat CPU 0 instructions: 1430000000 cycles: 839084119 heartbeat IPC: 1.52247 cumulative IPC: 1.4943 (Simulation time: 4 hr 21 min 1 sec) 
Heartbeat CPU 2 instructions: 770000001 cycles: 841433979 heartbeat IPC: 0.656294 cumulative IPC: 0.498247 (Simulation time: 4 hr 21 min 40 sec) 
Heartbeat CPU 1 instructions: 1440000000 cycles: 842287847 heartbeat IPC: 1.57516 cumulative IPC: 1.49446 (Simulation time: 4 hr 21 min 55 sec) 
Heartbeat CPU 0 instructions: 1440000000 cycles: 845702150 heartbeat IPC: 1.51102 cumulative IPC: 1.49447 (Simulation time: 4 hr 22 min 58 sec) 
Heartbeat CPU 1 instructions: 1450000001 cycles: 849498609 heartbeat IPC: 1.38682 cumulative IPC: 1.49324 (Simulation time: 4 hr 23 min 58 sec) 
Heartbeat CPU 0 instructions: 1450000003 cycles: 852250364 heartbeat IPC: 1.52713 cumulative IPC: 1.49481 (Simulation time: 4 hr 24 min 36 sec) 
Heartbeat CPU 1 instructions: 1460000000 cycles: 857544653 heartbeat IPC: 1.24285 cumulative IPC: 1.49012 (Simulation time: 4 hr 25 min 49 sec) 
Heartbeat CPU 0 instructions: 1460000000 cycles: 859432920 heartbeat IPC: 1.39226 cumulative IPC: 1.49367 (Simulation time: 4 hr 26 min 17 sec) 
Heartbeat CPU 2 instructions: 780000000 cycles: 860812123 heartbeat IPC: 0.516045 cumulative IPC: 0.498778 (Simulation time: 4 hr 26 min 38 sec) 
Heartbeat CPU 3 instructions: 290000000 cycles: 861915033 heartbeat IPC: 0.141472 cumulative IPC: 0.138455 (Simulation time: 4 hr 26 min 55 sec) 
Heartbeat CPU 1 instructions: 1470000002 cycles: 864083610 heartbeat IPC: 1.5293 cumulative IPC: 1.49051 (Simulation time: 4 hr 27 min 27 sec) 
Heartbeat CPU 0 instructions: 1470000003 cycles: 865891268 heartbeat IPC: 1.54838 cumulative IPC: 1.49421 (Simulation time: 4 hr 27 min 54 sec) 
Heartbeat CPU 1 instructions: 1480000000 cycles: 870587750 heartbeat IPC: 1.53748 cumulative IPC: 1.49098 (Simulation time: 4 hr 29 min 5 sec) 
Heartbeat CPU 0 instructions: 1480000000 cycles: 872419231 heartbeat IPC: 1.53187 cumulative IPC: 1.49458 (Simulation time: 4 hr 29 min 35 sec) 
Heartbeat CPU 1 instructions: 1490000000 cycles: 877086364 heartbeat IPC: 1.53879 cumulative IPC: 1.49144 (Simulation time: 4 hr 30 min 50 sec) 
Heartbeat CPU 0 instructions: 1490000000 cycles: 878941773 heartbeat IPC: 1.53314 cumulative IPC: 1.49496 (Simulation time: 4 hr 31 min 23 sec) 
Heartbeat CPU 2 instructions: 790000000 cycles: 880312272 heartbeat IPC: 0.512817 cumulative IPC: 0.499188 (Simulation time: 4 hr 31 min 47 sec) 
Finished CPU 0 instructions: 1000000001 cycles: 668871216 cumulative IPC: 1.49506 (Simulation time: 4 hr 31 min 56 sec) 
Finished CPU 1 instructions: 1000000000 cycles: 670232379 cumulative IPC: 1.49202 (Simulation time: 4 hr 32 min 22 sec) 
Heartbeat CPU 1 instructions: 1500000000 cycles: 883479260 heartbeat IPC: 1.56424 cumulative IPC: 1.49214 (Simulation time: 4 hr 32 min 48 sec) 
Heartbeat CPU 0 instructions: 1500000000 cycles: 885461860 heartbeat IPC: 1.53372 cumulative IPC: 1.49534 (Simulation time: 4 hr 33 min 24 sec) 
Heartbeat CPU 1 instructions: 1510000002 cycles: 889989330 heartbeat IPC: 1.53608 cumulative IPC: 1.49256 (Simulation time: 4 hr 34 min 49 sec) 
Heartbeat CPU 0 instructions: 1510000001 cycles: 892046095 heartbeat IPC: 1.51878 cumulative IPC: 1.49556 (Simulation time: 4 hr 35 min 26 sec) 
Heartbeat CPU 2 instructions: 800000000 cycles: 893315505 heartbeat IPC: 0.76904 cumulative IPC: 0.504337 (Simulation time: 4 hr 35 min 47 sec) 
Heartbeat CPU 1 instructions: 1520000000 cycles: 896441700 heartbeat IPC: 1.54982 cumulative IPC: 1.4931 (Simulation time: 4 hr 36 min 39 sec) 
Heartbeat CPU 0 instructions: 1520000000 cycles: 899074861 heartbeat IPC: 1.42272 cumulative IPC: 1.49482 (Simulation time: 4 hr 37 min 25 sec) 
Heartbeat CPU 1 instructions: 1530000002 cycles: 902849629 heartbeat IPC: 1.56057 cumulative IPC: 1.49372 (Simulation time: 4 hr 38 min 29 sec) 
Heartbeat CPU 0 instructions: 1530000001 cycles: 905594669 heartbeat IPC: 1.53379 cumulative IPC: 1.49518 (Simulation time: 4 hr 39 min 16 sec) 
Heartbeat CPU 2 instructions: 810000000 cycles: 908553113 heartbeat IPC: 0.656271 cumulative IPC: 0.50766 (Simulation time: 4 hr 40 min 6 sec) 
Heartbeat CPU 1 instructions: 1540000000 cycles: 909282300 heartbeat IPC: 1.55456 cumulative IPC: 1.49429 (Simulation time: 4 hr 40 min 18 sec) 
Heartbeat CPU 0 instructions: 1540000000 cycles: 912013731 heartbeat IPC: 1.55786 cumulative IPC: 1.49576 (Simulation time: 4 hr 41 min 6 sec) 
Heartbeat CPU 1 instructions: 1550000002 cycles: 915722187 heartbeat IPC: 1.55282 cumulative IPC: 1.49482 (Simulation time: 4 hr 42 min 6 sec) 
Heartbeat CPU 0 instructions: 1550000001 cycles: 918501433 heartbeat IPC: 1.54138 cumulative IPC: 1.49618 (Simulation time: 4 hr 42 min 46 sec) 
Heartbeat CPU 1 instructions: 1560000000 cycles: 922185573 heartbeat IPC: 1.54718 cumulative IPC: 1.4953 (Simulation time: 4 hr 43 min 39 sec) 
Heartbeat CPU 0 instructions: 1560000000 cycles: 924926009 heartbeat IPC: 1.55652 cumulative IPC: 1.49672 (Simulation time: 4 hr 44 min 18 sec) 
Heartbeat CPU 2 instructions: 820000000 cycles: 927851807 heartbeat IPC: 0.51817 cumulative IPC: 0.507943 (Simulation time: 4 hr 45 min 0 sec) 
Heartbeat CPU 1 instructions: 1570000002 cycles: 928710329 heartbeat IPC: 1.53262 cumulative IPC: 1.49564 (Simulation time: 4 hr 45 min 12 sec) 
Heartbeat CPU 0 instructions: 1570000001 cycles: 931333679 heartbeat IPC: 1.56063 cumulative IPC: 1.49729 (Simulation time: 4 hr 45 min 48 sec) 
Heartbeat CPU 3 instructions: 300000000 cycles: 933025144 heartbeat IPC: 0.140627 cumulative IPC: 0.138669 (Simulation time: 4 hr 46 min 12 sec) 
Heartbeat CPU 1 instructions: 1580000000 cycles: 935586144 heartbeat IPC: 1.45437 cumulative IPC: 1.49524 (Simulation time: 4 hr 46 min 49 sec) 
Heartbeat CPU 0 instructions: 1580000000 cycles: 937847940 heartbeat IPC: 1.53509 cumulative IPC: 1.49763 (Simulation time: 4 hr 47 min 23 sec) 
Heartbeat CPU 1 instructions: 1590000003 cycles: 941815366 heartbeat IPC: 1.60534 cumulative IPC: 1.49618 (Simulation time: 4 hr 48 min 22 sec) 
Heartbeat CPU 0 instructions: 1590000002 cycles: 944367677 heartbeat IPC: 1.5338 cumulative IPC: 1.49795 (Simulation time: 4 hr 49 min 5 sec) 
Heartbeat CPU 2 instructions: 830000002 cycles: 946808897 heartbeat IPC: 0.527507 cumulative IPC: 0.508448 (Simulation time: 4 hr 49 min 45 sec) 
Heartbeat CPU 1 instructions: 1600000000 cycles: 948091249 heartbeat IPC: 1.5934 cumulative IPC: 1.49701 (Simulation time: 4 hr 50 min 6 sec) 
Heartbeat CPU 0 instructions: 1600000000 cycles: 950814899 heartbeat IPC: 1.55106 cumulative IPC: 1.49841 (Simulation time: 4 hr 50 min 51 sec) 
Heartbeat CPU 1 instructions: 1610000002 cycles: 954519278 heartbeat IPC: 1.55569 cumulative IPC: 1.49752 (Simulation time: 4 hr 51 min 52 sec) 
Heartbeat CPU 0 instructions: 1610000000 cycles: 957565159 heartbeat IPC: 1.48142 cumulative IPC: 1.49826 (Simulation time: 4 hr 52 min 39 sec) 
Heartbeat CPU 2 instructions: 840000000 cycles: 959955552 heartbeat IPC: 0.76065 cumulative IPC: 0.51288 (Simulation time: 4 hr 53 min 15 sec) 
Heartbeat CPU 1 instructions: 1620000000 cycles: 960834947 heartbeat IPC: 1.58336 cumulative IPC: 1.49824 (Simulation time: 4 hr 53 min 29 sec) 
Heartbeat CPU 0 instructions: 1620000000 cycles: 964804579 heartbeat IPC: 1.38133 cumulative IPC: 1.49714 (Simulation time: 4 hr 54 min 29 sec) 
Heartbeat CPU 1 instructions: 1630000003 cycles: 967202686 heartbeat IPC: 1.57042 cumulative IPC: 1.49885 (Simulation time: 4 hr 55 min 6 sec) 
Heartbeat CPU 0 instructions: 1630000002 cycles: 971451524 heartbeat IPC: 1.50445 cumulative IPC: 1.4972 (Simulation time: 4 hr 56 min 14 sec) 
Heartbeat CPU 1 instructions: 1640000000 cycles: 973409894 heartbeat IPC: 1.61103 cumulative IPC: 1.49977 (Simulation time: 4 hr 56 min 45 sec) 
Heartbeat CPU 2 instructions: 850000000 cycles: 975232050 heartbeat IPC: 0.6546 cumulative IPC: 0.515716 (Simulation time: 4 hr 57 min 12 sec) 
Heartbeat CPU 0 instructions: 1640000000 cycles: 977865170 heartbeat IPC: 1.55918 cumulative IPC: 1.49772 (Simulation time: 4 hr 57 min 52 sec) 
Heartbeat CPU 1 instructions: 1650000001 cycles: 980508750 heartbeat IPC: 1.40868 cumulative IPC: 1.49893 (Simulation time: 4 hr 58 min 34 sec) 
Heartbeat CPU 0 instructions: 1650000001 cycles: 984355072 heartbeat IPC: 1.54086 cumulative IPC: 1.49808 (Simulation time: 4 hr 59 min 33 sec) 
Heartbeat CPU 1 instructions: 1660000000 cycles: 987053509 heartbeat IPC: 1.52794 cumulative IPC: 1.49917 (Simulation time: 5 hr 0 min 13 sec) 
Heartbeat CPU 0 instructions: 1660000000 cycles: 990846515 heartbeat IPC: 1.54049 cumulative IPC: 1.49844 (Simulation time: 5 hr 1 min 11 sec) 
Heartbeat CPU 1 instructions: 1670000000 cycles: 993516676 heartbeat IPC: 1.54723 cumulative IPC: 1.49957 (Simulation time: 5 hr 1 min 51 sec) 
Heartbeat CPU 2 instructions: 860000000 cycles: 995232533 heartbeat IPC: 0.499988 cumulative IPC: 0.515315 (Simulation time: 5 hr 2 min 17 sec) 
Heartbeat CPU 0 instructions: 1670000000 cycles: 997277416 heartbeat IPC: 1.55499 cumulative IPC: 1.4989 (Simulation time: 5 hr 2 min 48 sec) 
Heartbeat CPU 1 instructions: 1680000000 cycles: 1000010045 heartbeat IPC: 1.54003 cumulative IPC: 1.4999 (Simulation time: 5 hr 3 min 31 sec) 
Heartbeat CPU 0 instructions: 1680000000 cycles: 1003726168 heartbeat IPC: 1.55069 cumulative IPC: 1.49932 (Simulation time: 5 hr 4 min 29 sec) 
Heartbeat CPU 3 instructions: 310000000 cycles: 1005616017 heartbeat IPC: 0.137758 cumulative IPC: 0.138586 (Simulation time: 5 hr 4 min 59 sec) 
Heartbeat CPU 1 instructions: 1690000001 cycles: 1006504713 heartbeat IPC: 1.53972 cumulative IPC: 1.50023 (Simulation time: 5 hr 5 min 13 sec) 
Heartbeat CPU 0 instructions: 1690000003 cycles: 1010176361 heartbeat IPC: 1.55034 cumulative IPC: 1.49973 (Simulation time: 5 hr 6 min 30 sec) 
Heartbeat CPU 1 instructions: 1700000000 cycles: 1012958107 heartbeat IPC: 1.54957 cumulative IPC: 1.50063 (Simulation time: 5 hr 8 min 11 sec) 
Heartbeat CPU 2 instructions: 870000001 cycles: 1014430512 heartbeat IPC: 0.520888 cumulative IPC: 0.515448 (Simulation time: 5 hr 9 min 5 sec) 
Heartbeat CPU 0 instructions: 1700000000 cycles: 1016688339 heartbeat IPC: 1.53563 cumulative IPC: 1.50002 (Simulation time: 5 hr 10 min 27 sec) 
Heartbeat CPU 1 instructions: 1710000001 cycles: 1019385627 heartbeat IPC: 1.55581 cumulative IPC: 1.50106 (Simulation time: 5 hr 12 min 3 sec) 
Heartbeat CPU 0 instructions: 1710000000 cycles: 1023224413 heartbeat IPC: 1.52997 cumulative IPC: 1.50026 (Simulation time: 5 hr 13 min 17 sec) 
Heartbeat CPU 1 instructions: 1720000000 cycles: 1025863304 heartbeat IPC: 1.54376 cumulative IPC: 1.5014 (Simulation time: 5 hr 14 min 2 sec) 
Heartbeat CPU 2 instructions: 880000000 cycles: 1027561633 heartbeat IPC: 0.76155 cumulative IPC: 0.51941 (Simulation time: 5 hr 14 min 31 sec) 
Heartbeat CPU 0 instructions: 1720000000 cycles: 1029612063 heartbeat IPC: 1.56552 cumulative IPC: 1.50077 (Simulation time: 5 hr 15 min 3 sec) 
Heartbeat CPU 1 instructions: 1730000001 cycles: 1032978672 heartbeat IPC: 1.40541 cumulative IPC: 1.50057 (Simulation time: 5 hr 15 min 59 sec) 
Heartbeat CPU 0 instructions: 1730000001 cycles: 1035975257 heartbeat IPC: 1.57154 cumulative IPC: 1.50132 (Simulation time: 5 hr 16 min 50 sec) 
Heartbeat CPU 1 instructions: 1740000000 cycles: 1039484023 heartbeat IPC: 1.5372 cumulative IPC: 1.50086 (Simulation time: 5 hr 17 min 49 sec) 
Heartbeat CPU 0 instructions: 1740000000 cycles: 1042459488 heartbeat IPC: 1.5422 cumulative IPC: 1.50164 (Simulation time: 5 hr 18 min 36 sec) 
Heartbeat CPU 2 instructions: 890000002 cycles: 1042918440 heartbeat IPC: 0.651177 cumulative IPC: 0.521845 (Simulation time: 5 hr 18 min 43 sec) 
Heartbeat CPU 1 instructions: 1750000003 cycles: 1045757768 heartbeat IPC: 1.59394 cumulative IPC: 1.50156 (Simulation time: 5 hr 19 min 27 sec) 
Heartbeat CPU 0 instructions: 1750000000 cycles: 1048947997 heartbeat IPC: 1.54119 cumulative IPC: 1.50195 (Simulation time: 5 hr 20 min 16 sec) 
Heartbeat CPU 1 instructions: 1760000000 cycles: 1052152630 heartbeat IPC: 1.56375 cumulative IPC: 1.50203 (Simulation time: 5 hr 21 min 5 sec) 
Heartbeat CPU 0 instructions: 1760000000 cycles: 1055416490 heartbeat IPC: 1.54596 cumulative IPC: 1.50228 (Simulation time: 5 hr 21 min 52 sec) 
Heartbeat CPU 1 instructions: 1770000001 cycles: 1059762950 heartbeat IPC: 1.31401 cumulative IPC: 1.50035 (Simulation time: 5 hr 22 min 56 sec) 
Heartbeat CPU 0 instructions: 1770000002 cycles: 1061889332 heartbeat IPC: 1.54492 cumulative IPC: 1.50261 (Simulation time: 5 hr 23 min 28 sec) 
Heartbeat CPU 2 instructions: 900000000 cycles: 1063133074 heartbeat IPC: 0.494691 cumulative IPC: 0.5212 (Simulation time: 5 hr 23 min 47 sec) 
Heartbeat CPU 1 instructions: 1780000000 cycles: 1066286300 heartbeat IPC: 1.53295 cumulative IPC: 1.5006 (Simulation time: 5 hr 24 min 34 sec) 
Heartbeat CPU 0 instructions: 1780000000 cycles: 1068413953 heartbeat IPC: 1.53266 cumulative IPC: 1.50284 (Simulation time: 5 hr 25 min 7 sec) 
Heartbeat CPU 1 instructions: 1790000000 cycles: 1072701955 heartbeat IPC: 1.55869 cumulative IPC: 1.50103 (Simulation time: 5 hr 26 min 12 sec) 
Heartbeat CPU 0 instructions: 1790000000 cycles: 1076604142 heartbeat IPC: 1.22097 cumulative IPC: 1.50017 (Simulation time: 5 hr 27 min 7 sec) 
Heartbeat CPU 3 instructions: 320000000 cycles: 1076933296 heartbeat IPC: 0.140218 cumulative IPC: 0.138721 (Simulation time: 5 hr 27 min 12 sec) 
Heartbeat CPU 1 instructions: 1800000000 cycles: 1079196730 heartbeat IPC: 1.5397 cumulative IPC: 1.50132 (Simulation time: 5 hr 27 min 49 sec) 
Heartbeat CPU 0 instructions: 1800000000 cycles: 1083293938 heartbeat IPC: 1.49481 cumulative IPC: 1.50013 (Simulation time: 5 hr 28 min 58 sec) 
Heartbeat CPU 2 instructions: 910000000 cycles: 1084652944 heartbeat IPC: 0.464687 cumulative IPC: 0.519807 (Simulation time: 5 hr 29 min 21 sec) 
Heartbeat CPU 1 instructions: 1810000002 cycles: 1085559369 heartbeat IPC: 1.57168 cumulative IPC: 1.50183 (Simulation time: 5 hr 29 min 36 sec) 
Heartbeat CPU 0 instructions: 1810000003 cycles: 1089944028 heartbeat IPC: 1.50374 cumulative IPC: 1.50015 (Simulation time: 5 hr 30 min 49 sec) 
Heartbeat CPU 1 instructions: 1820000000 cycles: 1092027212 heartbeat IPC: 1.54611 cumulative IPC: 1.50216 (Simulation time: 5 hr 31 min 24 sec) 
Heartbeat CPU 0 instructions: 1820000000 cycles: 1096560532 heartbeat IPC: 1.51137 cumulative IPC: 1.50024 (Simulation time: 5 hr 32 min 41 sec) 
Heartbeat CPU 1 instructions: 1830000002 cycles: 1098377410 heartbeat IPC: 1.57475 cumulative IPC: 1.50268 (Simulation time: 5 hr 33 min 11 sec) 
Heartbeat CPU 2 instructions: 920000000 cycles: 1100365391 heartbeat IPC: 0.636438 cumulative IPC: 0.521869 (Simulation time: 5 hr 33 min 44 sec) 
Heartbeat CPU 0 instructions: 1830000002 cycles: 1103198093 heartbeat IPC: 1.50658 cumulative IPC: 1.50028 (Simulation time: 5 hr 34 min 27 sec) 
Heartbeat CPU 1 instructions: 1840000000 cycles: 1104843093 heartbeat IPC: 1.54663 cumulative IPC: 1.50299 (Simulation time: 5 hr 34 min 53 sec) 
Heartbeat CPU 0 instructions: 1840000000 cycles: 1109832056 heartbeat IPC: 1.50739 cumulative IPC: 1.50034 (Simulation time: 5 hr 36 min 13 sec) 
Heartbeat CPU 1 instructions: 1850000003 cycles: 1111961549 heartbeat IPC: 1.4048 cumulative IPC: 1.50222 (Simulation time: 5 hr 36 min 48 sec) 
Heartbeat CPU 2 instructions: 930000000 cycles: 1116111275 heartbeat IPC: 0.635087 cumulative IPC: 0.523841 (Simulation time: 5 hr 37 min 58 sec) 
Heartbeat CPU 0 instructions: 1850000002 cycles: 1116551684 heartbeat IPC: 1.48818 cumulative IPC: 1.50025 (Simulation time: 5 hr 38 min 5 sec) 
Heartbeat CPU 1 instructions: 1860000000 cycles: 1118429659 heartbeat IPC: 1.54605 cumulative IPC: 1.50253 (Simulation time: 5 hr 38 min 37 sec) 
Heartbeat CPU 0 instructions: 1860000000 cycles: 1123729586 heartbeat IPC: 1.39316 cumulative IPC: 1.4994 (Simulation time: 5 hr 40 min 3 sec) 
Heartbeat CPU 1 instructions: 1870000002 cycles: 1124879041 heartbeat IPC: 1.55054 cumulative IPC: 1.50287 (Simulation time: 5 hr 40 min 23 sec) 
Heartbeat CPU 0 instructions: 1870000000 cycles: 1130314648 heartbeat IPC: 1.51859 cumulative IPC: 1.49954 (Simulation time: 5 hr 41 min 54 sec) 
Heartbeat CPU 1 instructions: 1880000000 cycles: 1131265161 heartbeat IPC: 1.5659 cumulative IPC: 1.50331 (Simulation time: 5 hr 42 min 9 sec) 
Heartbeat CPU 2 instructions: 940000000 cycles: 1131828747 heartbeat IPC: 0.636235 cumulative IPC: 0.525761 (Simulation time: 5 hr 42 min 19 sec) 
Heartbeat CPU 0 instructions: 1880000000 cycles: 1136929594 heartbeat IPC: 1.51173 cumulative IPC: 1.49963 (Simulation time: 5 hr 43 min 36 sec) 
Heartbeat CPU 1 instructions: 1890000001 cycles: 1137733125 heartbeat IPC: 1.54608 cumulative IPC: 1.50361 (Simulation time: 5 hr 43 min 48 sec) 
Heartbeat CPU 0 instructions: 1890000003 cycles: 1143487568 heartbeat IPC: 1.52486 cumulative IPC: 1.49981 (Simulation time: 5 hr 45 min 19 sec) 
Heartbeat CPU 1 instructions: 1900000000 cycles: 1144160126 heartbeat IPC: 1.55594 cumulative IPC: 1.50397 (Simulation time: 5 hr 45 min 30 sec) 
Heartbeat CPU 3 instructions: 330000002 cycles: 1146867016 heartbeat IPC: 0.142993 cumulative IPC: 0.13904 (Simulation time: 5 hr 46 min 15 sec) 
Heartbeat CPU 0 instructions: 1900000000 cycles: 1150084308 heartbeat IPC: 1.5159 cumulative IPC: 1.49992 (Simulation time: 5 hr 47 min 6 sec) 
Heartbeat CPU 2 instructions: 950000002 cycles: 1150236148 heartbeat IPC: 0.54326 cumulative IPC: 0.526104 (Simulation time: 5 hr 47 min 9 sec) 
Heartbeat CPU 1 instructions: 1910000002 cycles: 1151127905 heartbeat IPC: 1.43518 cumulative IPC: 1.50346 (Simulation time: 5 hr 47 min 23 sec) 
Heartbeat CPU 0 instructions: 1910000002 cycles: 1156601826 heartbeat IPC: 1.53433 cumulative IPC: 1.50016 (Simulation time: 5 hr 48 min 54 sec) 
Heartbeat CPU 1 instructions: 1920000000 cycles: 1157573852 heartbeat IPC: 1.55136 cumulative IPC: 1.50378 (Simulation time: 5 hr 49 min 10 sec) 
Heartbeat CPU 0 instructions: 1920000000 cycles: 1163207327 heartbeat IPC: 1.51389 cumulative IPC: 1.50025 (Simulation time: 5 hr 50 min 39 sec) 
Heartbeat CPU 1 instructions: 1930000000 cycles: 1164768776 heartbeat IPC: 1.38987 cumulative IPC: 1.50292 (Simulation time: 5 hr 51 min 1 sec) 
Heartbeat CPU 2 instructions: 960000000 cycles: 1167900708 heartbeat IPC: 0.566105 cumulative IPC: 0.526843 (Simulation time: 5 hr 51 min 45 sec) 
Heartbeat CPU 0 instructions: 1930000002 cycles: 1169803380 heartbeat IPC: 1.51606 cumulative IPC: 1.50036 (Simulation time: 5 hr 52 min 14 sec) 
Heartbeat CPU 1 instructions: 1940000000 cycles: 1172102014 heartbeat IPC: 1.36365 cumulative IPC: 1.50186 (Simulation time: 5 hr 52 min 49 sec) 
Heartbeat CPU 0 instructions: 1940000000 cycles: 1176425716 heartbeat IPC: 1.51004 cumulative IPC: 1.50043 (Simulation time: 5 hr 53 min 56 sec) 
Heartbeat CPU 1 instructions: 1950000000 cycles: 1178416400 heartbeat IPC: 1.58369 cumulative IPC: 1.50239 (Simulation time: 5 hr 54 min 27 sec) 
Heartbeat CPU 0 instructions: 1950000002 cycles: 1182921547 heartbeat IPC: 1.53945 cumulative IPC: 1.50069 (Simulation time: 5 hr 55 min 36 sec) 
Heartbeat CPU 1 instructions: 1960000000 cycles: 1184726945 heartbeat IPC: 1.58465 cumulative IPC: 1.50293 (Simulation time: 5 hr 56 min 2 sec) 
Heartbeat CPU 2 instructions: 970000002 cycles: 1185611867 heartbeat IPC: 0.564616 cumulative IPC: 0.527531 (Simulation time: 5 hr 56 min 15 sec) 
Heartbeat CPU 0 instructions: 1960000000 cycles: 1190033968 heartbeat IPC: 1.40599 cumulative IPC: 1.5 (Simulation time: 5 hr 57 min 24 sec) 
Heartbeat CPU 1 instructions: 1970000003 cycles: 1191019359 heartbeat IPC: 1.58922 cumulative IPC: 1.50348 (Simulation time: 5 hr 57 min 39 sec) 
Heartbeat CPU 0 instructions: 1970000002 cycles: 1196576273 heartbeat IPC: 1.52851 cumulative IPC: 1.50019 (Simulation time: 5 hr 59 min 2 sec) 
Heartbeat CPU 1 instructions: 1980000000 cycles: 1197946981 heartbeat IPC: 1.4435 cumulative IPC: 1.50306 (Simulation time: 5 hr 59 min 21 sec) 
Heartbeat CPU 2 instructions: 980000000 cycles: 1202609231 heartbeat IPC: 0.588326 cumulative IPC: 0.528574 (Simulation time: 6 hr 0 min 33 sec) 
Heartbeat CPU 0 instructions: 1980000000 cycles: 1203038877 heartbeat IPC: 1.54736 cumulative IPC: 1.5005 (Simulation time: 6 hr 0 min 40 sec) 
Heartbeat CPU 1 instructions: 1990000003 cycles: 1204385735 heartbeat IPC: 1.5531 cumulative IPC: 1.50338 (Simulation time: 6 hr 1 min 1 sec) 
Heartbeat CPU 0 instructions: 1990000000 cycles: 1209617391 heartbeat IPC: 1.5201 cumulative IPC: 1.50063 (Simulation time: 6 hr 2 min 21 sec) 
*** Reached end of trace for Core: 1 Repeating trace: /scratch/user/djimenez/champsim-traces/speccpu2017/xz/648.exchange2_s/648.exchange2_s-72B.champsimtrace.xz
Heartbeat CPU 1 instructions: 2000000000 cycles: 1210860033 heartbeat IPC: 1.54457 cumulative IPC: 1.50365 (Simulation time: 6 hr 2 min 41 sec) 
*** Reached end of trace for Core: 0 Repeating trace: /scratch/user/djimenez/champsim-traces/speccpu2017/xz/648.exchange2_s/648.exchange2_s-584B.champsimtrace.xz
Heartbeat CPU 0 instructions: 2000000000 cycles: 1216164203 heartbeat IPC: 1.52746 cumulative IPC: 1.5008 (Simulation time: 6 hr 4 min 3 sec) 
Heartbeat CPU 2 instructions: 990000000 cycles: 1217140214 heartbeat IPC: 0.688185 cumulative IPC: 0.530881 (Simulation time: 6 hr 4 min 18 sec) 
Heartbeat CPU 1 instructions: 2010000001 cycles: 1217318527 heartbeat IPC: 1.54835 cumulative IPC: 1.50394 (Simulation time: 6 hr 4 min 20 sec) 
Heartbeat CPU 3 instructions: 340000000 cycles: 1217584325 heartbeat IPC: 0.141408 cumulative IPC: 0.139207 (Simulation time: 6 hr 4 min 24 sec) 
Heartbeat CPU 0 instructions: 2010000003 cycles: 1222681777 heartbeat IPC: 1.53431 cumulative IPC: 1.50102 (Simulation time: 6 hr 5 min 44 sec) 
Heartbeat CPU 1 instructions: 2020000000 cycles: 1223771191 heartbeat IPC: 1.54975 cumulative IPC: 1.50423 (Simulation time: 6 hr 6 min 1 sec) 
Heartbeat CPU 0 instructions: 2020000000 cycles: 1229239673 heartbeat IPC: 1.52488 cumulative IPC: 1.50117 (Simulation time: 6 hr 7 min 30 sec) 
Heartbeat CPU 1 instructions: 2030000001 cycles: 1230252882 heartbeat IPC: 1.54281 cumulative IPC: 1.50448 (Simulation time: 6 hr 7 min 47 sec) 
Heartbeat CPU 2 instructions: 1000000000 cycles: 1230704788 heartbeat IPC: 0.737214 cumulative IPC: 0.533628 (Simulation time: 6 hr 7 min 55 sec) 
Heartbeat CPU 0 instructions: 2030000002 cycles: 1236444873 heartbeat IPC: 1.38789 cumulative IPC: 1.50037 (Simulation time: 6 hr 9 min 29 sec) 
Heartbeat CPU 1 instructions: 2040000000 cycles: 1236680940 heartbeat IPC: 1.55568 cumulative IPC: 1.5048 (Simulation time: 6 hr 9 min 33 sec) 
Heartbeat CPU 0 instructions: 2040000000 cycles: 1243037938 heartbeat IPC: 1.51674 cumulative IPC: 1.50048 (Simulation time: 6 hr 11 min 17 sec) 
Heartbeat CPU 1 instructions: 2050000001 cycles: 1243741206 heartbeat IPC: 1.41638 cumulative IPC: 1.50419 (Simulation time: 6 hr 11 min 28 sec) 
[...]
Heartbeat CPU 0 instructions: 5560000000 cycles: 3590574869 heartbeat IPC: 1.55659 cumulative IPC: 1.49976 (Simulation time: 14 hr 28 min 21 sec) 
Heartbeat CPU 2 instructions: 2570000002 cycles: 3592261595 heartbeat IPC: 0.924371 cumulative IPC: 0.625277 (Simulation time: 14 hr 28 min 41 sec) 
Heartbeat CPU 3 instructions: 1160000000 cycles: 3596433064 heartbeat IPC: 0.454443 cumulative IPC: 0.283642 (Simulation time: 14 hr 29 min 26 sec) 
Heartbeat CPU 1 instructions: 5630000003 cycles: 3596709830 heartbeat IPC: 1.57085 cumulative IPC: 1.51621 (Simulation time: 14 hr 29 min 29 sec) 
Heartbeat CPU 0 instructions: 5570000000 cycles: 3596983154 heartbeat IPC: 1.56048 cumulative IPC: 1.49987 (Simulation time: 14 hr 29 min 32 sec) 
Heartbeat CPU 1 instructions: 5640000000 cycles: 3602916939 heartbeat IPC: 1.61106 cumulative IPC: 1.51639 (Simulation time: 14 hr 30 min 33 sec) 
Heartbeat CPU 0 instructions: 5580000000 cycles: 3603497782 heartbeat IPC: 1.53501 cumulative IPC: 1.49994 (Simulation time: 14 hr 30 min 39 sec) 
Heartbeat CPU 2 instructions: 2580000000 cycles: 3606153725 heartbeat IPC: 0.719832 cumulative IPC: 0.625664 (Simulation time: 14 hr 31 min 5 sec) 
Heartbeat CPU 1 instructions: 5650000001 cycles: 3610017891 heartbeat IPC: 1.40826 cumulative IPC: 1.51616 (Simulation time: 14 hr 31 min 44 sec) 
Heartbeat CPU 0 instructions: 5590000002 cycles: 3610018106 heartbeat IPC: 1.53367 cumulative IPC: 1.50001 (Simulation time: 14 hr 31 min 44 sec) 
Heartbeat CPU 0 instructions: 5600000000 cycles: 3616464127 heartbeat IPC: 1.55134 cumulative IPC: 1.5001 (Simulation time: 14 hr 32 min 47 sec) 
Heartbeat CPU 1 instructions: 5660000000 cycles: 3616562391 heartbeat IPC: 1.528 cumulative IPC: 1.51618 (Simulation time: 14 hr 32 min 48 sec) 
Heartbeat CPU 3 instructions: 1170000001 cycles: 3618887661 heartbeat IPC: 0.445343 cumulative IPC: 0.284708 (Simulation time: 14 hr 33 min 11 sec) 
Heartbeat CPU 1 instructions: 5670000000 cycles: 3623026480 heartbeat IPC: 1.54701 cumulative IPC: 1.51624 (Simulation time: 14 hr 33 min 51 sec) 
Heartbeat CPU 0 instructions: 5610000000 cycles: 3623211819 heartbeat IPC: 1.48199 cumulative IPC: 1.50007 (Simulation time: 14 hr 33 min 52 sec) 
Heartbeat CPU 2 instructions: 2590000001 cycles: 3627062014 heartbeat IPC: 0.478279 cumulative IPC: 0.624761 (Simulation time: 14 hr 34 min 34 sec) 
Heartbeat CPU 1 instructions: 5680000000 cycles: 3629518501 heartbeat IPC: 1.54035 cumulative IPC: 1.51629 (Simulation time: 14 hr 34 min 59 sec) 
Heartbeat CPU 0 instructions: 5620000000 cycles: 3630450229 heartbeat IPC: 1.38152 cumulative IPC: 1.49982 (Simulation time: 14 hr 35 min 8 sec) 
Heartbeat CPU 1 instructions: 5690000001 cycles: 3636014216 heartbeat IPC: 1.53948 cumulative IPC: 1.51633 (Simulation time: 14 hr 36 min 3 sec) 
Heartbeat CPU 0 instructions: 5630000002 cycles: 3637098718 heartbeat IPC: 1.5041 cumulative IPC: 1.49983 (Simulation time: 14 hr 36 min 15 sec) 
Heartbeat CPU 3 instructions: 1180000000 cycles: 3641937404 heartbeat IPC: 0.433844 cumulative IPC: 0.28571 (Simulation time: 14 hr 37 min 7 sec) 
Heartbeat CPU 1 instructions: 5700000000 cycles: 3642464339 heartbeat IPC: 1.55036 cumulative IPC: 1.51639 (Simulation time: 14 hr 37 min 12 sec) 
Heartbeat CPU 2 instructions: 2600000000 cycles: 3642925673 heartbeat IPC: 0.630372 cumulative IPC: 0.624787 (Simulation time: 14 hr 37 min 17 sec) 
Heartbeat CPU 0 instructions: 5640000000 cycles: 3643512356 heartbeat IPC: 1.55918 cumulative IPC: 1.49994 (Simulation time: 14 hr 37 min 23 sec) 
Heartbeat CPU 1 instructions: 5710000001 cycles: 3648894486 heartbeat IPC: 1.55517 cumulative IPC: 1.51647 (Simulation time: 14 hr 38 min 21 sec) 
Heartbeat CPU 0 instructions: 5650000001 cycles: 3650002430 heartbeat IPC: 1.54081 cumulative IPC: 1.50001 (Simulation time: 14 hr 38 min 32 sec) 
Heartbeat CPU 1 instructions: 5720000000 cycles: 3655372240 heartbeat IPC: 1.54374 cumulative IPC: 1.51652 (Simulation time: 14 hr 39 min 28 sec) 
Heartbeat CPU 0 instructions: 5660000000 cycles: 3656492351 heartbeat IPC: 1.54085 cumulative IPC: 1.50009 (Simulation time: 14 hr 39 min 39 sec) 
Heartbeat CPU 2 instructions: 2610000003 cycles: 3659044903 heartbeat IPC: 0.620377 cumulative IPC: 0.624767 (Simulation time: 14 hr 40 min 4 sec) 
Heartbeat CPU 1 instructions: 5730000001 cycles: 3662487516 heartbeat IPC: 1.40543 cumulative IPC: 1.51629 (Simulation time: 14 hr 40 min 39 sec) 
Heartbeat CPU 0 instructions: 5670000000 cycles: 3662922825 heartbeat IPC: 1.5551 cumulative IPC: 1.50019 (Simulation time: 14 hr 40 min 43 sec) 
Heartbeat CPU 3 instructions: 1190000003 cycles: 3663974220 heartbeat IPC: 0.453786 cumulative IPC: 0.286783 (Simulation time: 14 hr 40 min 54 sec) 
Heartbeat CPU 1 instructions: 5740000000 cycles: 3668988898 heartbeat IPC: 1.53813 cumulative IPC: 1.51633 (Simulation time: 14 hr 41 min 46 sec) 
Heartbeat CPU 0 instructions: 5680000000 cycles: 3669369463 heartbeat IPC: 1.5512 cumulative IPC: 1.50029 (Simulation time: 14 hr 41 min 49 sec) 
Heartbeat CPU 1 instructions: 5750000003 cycles: 3675262748 heartbeat IPC: 1.59392 cumulative IPC: 1.51647 (Simulation time: 14 hr 42 min 49 sec) 
Heartbeat CPU 0 instructions: 5690000003 cycles: 3675820107 heartbeat IPC: 1.55023 cumulative IPC: 1.50038 (Simulation time: 14 hr 42 min 55 sec) 
Heartbeat CPU 2 instructions: 2620000000 cycles: 3678214572 heartbeat IPC: 0.521657 cumulative IPC: 0.624196 (Simulation time: 14 hr 43 min 20 sec) 
Heartbeat CPU 1 instructions: 5760000000 cycles: 3681657899 heartbeat IPC: 1.56368 cumulative IPC: 1.51656 (Simulation time: 14 hr 43 min 56 sec) 
Heartbeat CPU 0 instructions: 5700000000 cycles: 3682329842 heartbeat IPC: 1.53616 cumulative IPC: 1.50045 (Simulation time: 14 hr 44 min 3 sec) 
Heartbeat CPU 3 instructions: 1200000000 cycles: 3686742257 heartbeat IPC: 0.439212 cumulative IPC: 0.287782 (Simulation time: 14 hr 44 min 47 sec) 
Finished CPU 3 instructions: 1000000000 cycles: 3474856940 cumulative IPC: 0.287782 (Simulation time: 14 hr 44 min 47 sec) 

CPU 0 Branch Prediction Accuracy: 96.7988% MPKI: 4.31942

CPU 1 Branch Prediction Accuracy: 96.7625% MPKI: 4.25002

CPU 2 Branch Prediction Accuracy: 98.6899% MPKI: 0.916781

CPU 3 Branch Prediction Accuracy: 96.2127% MPKI: 6.05657

ChampSim completed all CPUs

Total Simulation Statistics (not including warmup)

CPU 0 cumulative IPC: 1.50048 instructions: 5213954843 cycles: 3474856940
L1D TOTAL     ACCESS: 1442455135  HIT: 1442455114  MISS:         21
L1D LOAD      ACCESS:  631105230  HIT:  631105217  MISS:         13
L1D RFO       ACCESS:  811349905  HIT:  811349897  MISS:          8
L1D PREFETCH  ACCESS:          0  HIT:          0  MISS:          0
L1D WRITEBACK ACCESS:          0  HIT:          0  MISS:          0
L1I TOTAL     ACCESS: 1135972168  HIT: 1135853301  MISS:     118867
L1I LOAD      ACCESS: 1135972168  HIT: 1135853301  MISS:     118867
L1I RFO       ACCESS:          0  HIT:          0  MISS:          0
L1I PREFETCH  ACCESS:          0  HIT:          0  MISS:          0
L1I WRITEBACK ACCESS:          0  HIT:          0  MISS:          0
L2C TOTAL     ACCESS:     118888  HIT:     118830  MISS:         58
L2C LOAD      ACCESS:     118880  HIT:     118830  MISS:         50
L2C RFO       ACCESS:          8  HIT:          0  MISS:          8
L2C PREFETCH  ACCESS:          0  HIT:          0  MISS:          0
L2C WRITEBACK ACCESS:          0  HIT:          0  MISS:          0
LLC TOTAL     ACCESS:         58  HIT:          0  MISS:         58
LLC LOAD      ACCESS:         50  HIT:          0  MISS:         50
LLC RFO       ACCESS:          8  HIT:          0  MISS:          8
LLC PREFETCH  ACCESS:          0  HIT:          0  MISS:          0
LLC WRITEBACK ACCESS:          0  HIT:          0  MISS:          0

CPU 1 cumulative IPC: 1.5161 instructions: 5268246001 cycles: 3474856940
L1D TOTAL     ACCESS: 1475382535  HIT: 1475382509  MISS:         26
L1D LOAD      ACCESS:  642161767  HIT:  642161742  MISS:         25
L1D RFO       ACCESS:  833220768  HIT:  833220767  MISS:          1
L1D PREFETCH  ACCESS:          0  HIT:          0  MISS:          0
L1D WRITEBACK ACCESS:          0  HIT:          0  MISS:          0
L1I TOTAL     ACCESS: 1154303578  HIT: 1154092937  MISS:     210641
L1I LOAD      ACCESS: 1154303578  HIT: 1154092937  MISS:     210641
L1I RFO       ACCESS:          0  HIT:          0  MISS:          0
L1I PREFETCH  ACCESS:          0  HIT:          0  MISS:          0
L1I WRITEBACK ACCESS:          0  HIT:          0  MISS:          0
L2C TOTAL     ACCESS:     210667  HIT:     210571  MISS:         96
L2C LOAD      ACCESS:     210666  HIT:     210571  MISS:         95
L2C RFO       ACCESS:          1  HIT:          0  MISS:          1
L2C PREFETCH  ACCESS:          0  HIT:          0  MISS:          0
L2C WRITEBACK ACCESS:          0  HIT:          0  MISS:          0
LLC TOTAL     ACCESS:         96  HIT:          0  MISS:         96
LLC LOAD      ACCESS:         95  HIT:          0  MISS:         95
LLC RFO       ACCESS:          1  HIT:          0  MISS:          1
LLC PREFETCH  ACCESS:          0  HIT:          0  MISS:          0
LLC WRITEBACK ACCESS:          0  HIT:          0  MISS:          0

CPU 2 cumulative IPC: 0.624399 instructions: 2169698252 cycles: 3474856940
L1D TOTAL     ACCESS:  498222932  HIT:  473733516  MISS:   24489416
L1D LOAD      ACCESS:  398141122  HIT:  378546118  MISS:   19595004
L1D RFO       ACCESS:  100081810  HIT:   95187398  MISS:    4894412
L1D PREFETCH  ACCESS:          0  HIT:          0  MISS:          0
L1D WRITEBACK ACCESS:          0  HIT:          0  MISS:          0
L1I TOTAL     ACCESS:  681019059  HIT:  680935512  MISS:      83547
L1I LOAD      ACCESS:  681019059  HIT:  680935512  MISS:      83547
L1I RFO       ACCESS:          0  HIT:          0  MISS:          0
L1I PREFETCH  ACCESS:          0  HIT:          0  MISS:          0
L1I WRITEBACK ACCESS:          0  HIT:          0  MISS:          0
L2C TOTAL     ACCESS:   33576373  HIT:   16756585  MISS:   16819788
L2C LOAD      ACCESS:   19678197  HIT:    6377142  MISS:   13301055
L2C RFO       ACCESS:    4858327  HIT:    1353850  MISS:    3504477
L2C PREFETCH  ACCESS:          0  HIT:          0  MISS:          0
L2C WRITEBACK ACCESS:    9039849  HIT:    9025593  MISS:      14256
LLC TOTAL     ACCESS:   23786345  HIT:   12765540  MISS:   11020805
LLC LOAD      ACCESS:   13301047  HIT:    4897375  MISS:    8403672
LLC RFO       ACCESS:    3504476  HIT:     913214  MISS:    2591262
LLC PREFETCH  ACCESS:          0  HIT:          0  MISS:          0
LLC WRITEBACK ACCESS:    6980822  HIT:    6954951  MISS:      25871

CPU 3 cumulative IPC: 0.287782 instructions: 1000000000 cycles: 3474856940
L1D TOTAL     ACCESS:  434157579  HIT:  387103110  MISS:   47054469
L1D LOAD      ACCESS:  310860644  HIT:  277711545  MISS:   33149099
L1D RFO       ACCESS:  123296935  HIT:  109391565  MISS:   13905370
L1D PREFETCH  ACCESS:          0  HIT:          0  MISS:          0
L1D WRITEBACK ACCESS:          0  HIT:          0  MISS:          0
L1I TOTAL     ACCESS:  289134882  HIT:  289134656  MISS:        226
L1I LOAD      ACCESS:  289134882  HIT:  289134656  MISS:        226
L1I RFO       ACCESS:          0  HIT:          0  MISS:          0
L1I PREFETCH  ACCESS:          0  HIT:          0  MISS:          0
L1I WRITEBACK ACCESS:          0  HIT:          0  MISS:          0
L2C TOTAL     ACCESS:   73094820  HIT:   38267036  MISS:   34827784
L2C LOAD      ACCESS:   33149147  HIT:   11166284  MISS:   21982863
L2C RFO       ACCESS:   13905296  HIT:    1069290  MISS:   12836006
L2C PREFETCH  ACCESS:          0  HIT:          0  MISS:          0
L2C WRITEBACK ACCESS:   26040377  HIT:   26031462  MISS:       8915
LLC TOTAL     ACCESS:   58668536  HIT:   38006862  MISS:   20661674
LLC LOAD      ACCESS:   21982691  HIT:   12185867  MISS:    9796824
LLC RFO       ACCESS:   12835917  HIT:    1971746  MISS:   10864171
LLC PREFETCH  ACCESS:          0  HIT:          0  MISS:          0
LLC WRITEBACK ACCESS:   23849928  HIT:   23849249  MISS:        679

Region of Interest Statistics

CPU 0 cumulative IPC: 1.49506 instructions: 1000000001 cycles: 668871216
L1D TOTAL     ACCESS:  271472304  HIT:  271472287  MISS:         17
L1D LOAD      ACCESS:  119327809  HIT:  119327800  MISS:          9
L1D RFO       ACCESS:  152144495  HIT:  152144487  MISS:          8
L1D PREFETCH  ACCESS:          0  HIT:          0  MISS:          0
L1D WRITEBACK ACCESS:          0  HIT:          0  MISS:          0
L1D PREFETCH  REQUESTED:          0  ISSUED:          0  USEFUL:          0  USELESS:          0
L1I TOTAL     ACCESS:  217791910  HIT:  217767385  MISS:      24525
L1I LOAD      ACCESS:  217791910  HIT:  217767385  MISS:      24525
L1I RFO       ACCESS:          0  HIT:          0  MISS:          0
L1I PREFETCH  ACCESS:          0  HIT:          0  MISS:          0
L1I WRITEBACK ACCESS:          0  HIT:          0  MISS:          0
L1I PREFETCH  REQUESTED:          0  ISSUED:          0  USEFUL:          0  USELESS:          0
L2C TOTAL     ACCESS:      24542  HIT:      24488  MISS:         54
L2C LOAD      ACCESS:      24534  HIT:      24488  MISS:         46
L2C RFO       ACCESS:          8  HIT:          0  MISS:          8
L2C PREFETCH  ACCESS:          0  HIT:          0  MISS:          0
L2C WRITEBACK ACCESS:          0  HIT:          0  MISS:          0
L2C PREFETCH  REQUESTED:          0  ISSUED:          0  USEFUL:          0  USELESS:          0
LLC TOTAL     ACCESS:         54  HIT:          0  MISS:         54
LLC LOAD      ACCESS:         46  HIT:          0  MISS:         46
LLC RFO       ACCESS:          8  HIT:          0  MISS:          8
LLC PREFETCH  ACCESS:          0  HIT:          0  MISS:          0
LLC WRITEBACK ACCESS:          0  HIT:          0  MISS:          0
LLC PREFETCH  REQUESTED:          0  ISSUED:          0  USEFUL:          0  USELESS:          0
Major fault: 0 Minor fault: 49

CPU 1 cumulative IPC: 1.49202 instructions: 1000000000 cycles: 670232379
L1D TOTAL     ACCESS:  279031752  HIT:  279031731  MISS:         21
L1D LOAD      ACCESS:  122222701  HIT:  122222681  MISS:         20
L1D RFO       ACCESS:  156809051  HIT:  156809050  MISS:          1
L1D PREFETCH  ACCESS:          0  HIT:          0  MISS:          0
L1D WRITEBACK ACCESS:          0  HIT:          0  MISS:          0
L1D PREFETCH  REQUESTED:          0  ISSUED:          0  USEFUL:          0  USELESS:          0
L1I TOTAL     ACCESS:  220228456  HIT:  220170688  MISS:      57768
L1I LOAD      ACCESS:  220228456  HIT:  220170688  MISS:      57768
L1I RFO       ACCESS:          0  HIT:          0  MISS:          0
L1I PREFETCH  ACCESS:          0  HIT:          0  MISS:          0
L1I WRITEBACK ACCESS:          0  HIT:          0  MISS:          0
L1I PREFETCH  REQUESTED:          0  ISSUED:          0  USEFUL:          0  USELESS:          0
L2C TOTAL     ACCESS:      57789  HIT:      57698  MISS:         91
L2C LOAD      ACCESS:      57788  HIT:      57698  MISS:         90
L2C RFO       ACCESS:          1  HIT:          0  MISS:          1
L2C PREFETCH  ACCESS:          0  HIT:          0  MISS:          0
L2C WRITEBACK ACCESS:          0  HIT:          0  MISS:          0
L2C PREFETCH  REQUESTED:          0  ISSUED:          0  USEFUL:          0  USELESS:          0
LLC TOTAL     ACCESS:         91  HIT:          0  MISS:         91
LLC LOAD      ACCESS:         90  HIT:          0  MISS:         90
LLC RFO       ACCESS:          1  HIT:          0  MISS:          1
LLC PREFETCH  ACCESS:          0  HIT:          0  MISS:          0
LLC WRITEBACK ACCESS:          0  HIT:          0  MISS:          0
LLC PREFETCH  REQUESTED:          0  ISSUED:          0  USEFUL:          0  USELESS:          0
Major fault: 0 Minor fault: 49

CPU 2 cumulative IPC: 0.584948 instructions: 1000000002 cycles: 1709552473
L1D TOTAL     ACCESS:  245260457  HIT:  232638058  MISS:   12622399
L1D LOAD      ACCESS:  191883548  HIT:  182138050  MISS:    9745498
L1D RFO       ACCESS:   53376909  HIT:   50500008  MISS:    2876901
L1D PREFETCH  ACCESS:          0  HIT:          0  MISS:          0
L1D WRITEBACK ACCESS:          0  HIT:          0  MISS:          0
L1D PREFETCH  REQUESTED:          0  ISSUED:          0  USEFUL:          0  USELESS:          0
L1I TOTAL     ACCESS:  307278799  HIT:  307219333  MISS:      59466
L1I LOAD      ACCESS:  307278799  HIT:  307219333  MISS:      59466
L1I RFO       ACCESS:          0  HIT:          0  MISS:          0
L1I PREFETCH  ACCESS:          0  HIT:          0  MISS:          0
L1I WRITEBACK ACCESS:          0  HIT:          0  MISS:          0
L1I PREFETCH  REQUESTED:          0  ISSUED:          0  USEFUL:          0  USELESS:          0
L2C TOTAL     ACCESS:   17414005  HIT:    9236218  MISS:    8177787
L2C LOAD      ACCESS:    9804842  HIT:    3544779  MISS:    6260063
L2C RFO       ACCESS:    2841374  HIT:     927901  MISS:    1913473
L2C PREFETCH  ACCESS:          0  HIT:          0  MISS:          0
L2C WRITEBACK ACCESS:    4767789  HIT:    4763538  MISS:       4251
L2C PREFETCH  REQUESTED:          0  ISSUED:          0  USEFUL:          0  USELESS:          0
LLC TOTAL     ACCESS:   11592251  HIT:    5518339  MISS:    6073912
LLC LOAD      ACCESS:    6260055  HIT:    1561583  MISS:    4698472
LLC RFO       ACCESS:    1913473  HIT:     552226  MISS:    1361247
LLC PREFETCH  ACCESS:          0  HIT:          0  MISS:          0
LLC WRITEBACK ACCESS:    3418723  HIT:    3404530  MISS:      14193
LLC PREFETCH  REQUESTED:          0  ISSUED:          0  USEFUL:          0  USELESS:          0
Major fault: 0 Minor fault: 17750

CPU 3 cumulative IPC: 0.287782 instructions: 1000000000 cycles: 3474856940
L1D TOTAL     ACCESS:  434157579  HIT:  387103110  MISS:   47054469
L1D LOAD      ACCESS:  310860644  HIT:  277711545  MISS:   33149099
L1D RFO       ACCESS:  123296935  HIT:  109391565  MISS:   13905370
L1D PREFETCH  ACCESS:          0  HIT:          0  MISS:          0
L1D WRITEBACK ACCESS:          0  HIT:          0  MISS:          0
L1D PREFETCH  REQUESTED:          0  ISSUED:          0  USEFUL:          0  USELESS:          0
L1I TOTAL     ACCESS:  289134882  HIT:  289134656  MISS:        226
L1I LOAD      ACCESS:  289134882  HIT:  289134656  MISS:        226
L1I RFO       ACCESS:          0  HIT:          0  MISS:          0
L1I PREFETCH  ACCESS:          0  HIT:          0  MISS:          0
L1I WRITEBACK ACCESS:          0  HIT:          0  MISS:          0
L1I PREFETCH  REQUESTED:          0  ISSUED:          0  USEFUL:          0  USELESS:          0
L2C TOTAL     ACCESS:   73094820  HIT:   38267036  MISS:   34827784
L2C LOAD      ACCESS:   33149147  HIT:   11166284  MISS:   21982863
L2C RFO       ACCESS:   13905296  HIT:    1069290  MISS:   12836006
L2C PREFETCH  ACCESS:          0  HIT:          0  MISS:          0
L2C WRITEBACK ACCESS:   26040377  HIT:   26031462  MISS:       8915
L2C PREFETCH  REQUESTED:          0  ISSUED:          0  USEFUL:          0  USELESS:          0
LLC TOTAL     ACCESS:   58668536  HIT:   38006862  MISS:   20661674
LLC LOAD      ACCESS:   21982691  HIT:   12185867  MISS:    9796824
LLC RFO       ACCESS:   12835917  HIT:    1971746  MISS:   10864171
LLC PREFETCH  ACCESS:          0  HIT:          0  MISS:          0
LLC WRITEBACK ACCESS:   23849928  HIT:   23849249  MISS:        679
LLC PREFETCH  REQUESTED:          0  ISSUED:          0  USEFUL:          0  USELESS:          0
Major fault: 0 Minor fault: 401622

DRAM Statistics
 CHANNEL 0
 RQ ROW_BUFFER_HIT:    3433634  ROW_BUFFER_MISS:   12396602
 DBUS_CONGESTED:   27139792
 WQ ROW_BUFFER_HIT:    1105548  ROW_BUFFER_MISS:    9891513  FULL:          0

 CHANNEL 1
 RQ ROW_BUFFER_HIT:    3435275  ROW_BUFFER_MISS:   12388336
 DBUS_CONGESTED:   27139792
 WQ ROW_BUFFER_HIT:    1105532  ROW_BUFFER_MISS:    9888134  FULL:          0

 AVG_CONGESTED_CYCLE: 14
