
*** ChampSim Multicore Out-of-Order Simulator ***

Warmup Instructions: 200000000
Simulation Instructions: 1000000000
Number of CPUs: 4
LLC sets: 8192
LLC ways: 16
Off-chip DRAM Size: 8192 MB Channels: 2 Width: 64-bit Data Rate: 1600 MT/s

CPU 0 runs /scratch/user/djimenez/champsim-traces/speccpu2017/xz/600.perlbench_s/600.perlbench_s-570B.champsimtrace.xz
CPU 1 runs /scratch/user/djimenez/champsim-traces/speccpu2017/xz/623.xalancbmk_s/623.xalancbmk_s-202B.champsimtrace.xz
CPU 2 runs /scratch/user/djimenez/champsim-traces/speccpu2017/xz/602.gcc_s/602.gcc_s-2375B.champsimtrace.xz
CPU 3 runs /scratch/user/djimenez/champsim-traces/speccpu2017/xz/603.bwaves_s/603.bwaves_s-1740B.champsimtrace.xz
Heartbeat CPU 1 instructions: 10000000 cycles: 4178389 heartbeat IPC: 2.39327 cumulative IPC: 2.39327 (Simulation time: 0 hr 1 min 26 sec) 
Heartbeat CPU 3 instructions: 10000002 cycles: 5285472 heartbeat IPC: 1.89198 cumulative IPC: 1.89198 (Simulation time: 0 hr 1 min 49 sec) 
Heartbeat CPU 0 instructions: 10000000 cycles: 5690068 heartbeat IPC: 1.75745 cumulative IPC: 1.75745 (Simulation time: 0 hr 1 min 57 sec) 
Heartbeat CPU 2 instructions: 10000002 cycles: 6798031 heartbeat IPC: 1.47101 cumulative IPC: 1.47101 (Simulation time: 0 hr 2 min 20 sec) 
Heartbeat CPU 1 instructions: 20000000 cycles: 8344033 heartbeat IPC: 2.40059 cumulative IPC: 2.39692 (Simulation time: 0 hr 2 min 53 sec) 
Heartbeat CPU 3 instructions: 20000000 cycles: 10572806 heartbeat IPC: 1.89131 cumulative IPC: 1.89165 (Simulation time: 0 hr 3 min 40 sec) 
Heartbeat CPU 0 instructions: 20000000 cycles: 11556323 heartbeat IPC: 1.70467 cumulative IPC: 1.73065 (Simulation time: 0 hr 4 min 0 sec) 
Heartbeat CPU 1 instructions: 30000000 cycles: 12510260 heartbeat IPC: 2.40025 cumulative IPC: 2.39803 (Simulation time: 0 hr 4 min 19 sec) 
Heartbeat CPU 2 instructions: 20000000 cycles: 13352391 heartbeat IPC: 1.5257 cumulative IPC: 1.49786 (Simulation time: 0 hr 4 min 36 sec) 
Heartbeat CPU 3 instructions: 30000002 cycles: 15858582 heartbeat IPC: 1.89187 cumulative IPC: 1.89172 (Simulation time: 0 hr 5 min 26 sec) 
Heartbeat CPU 1 instructions: 40000000 cycles: 16676874 heartbeat IPC: 2.40003 cumulative IPC: 2.39853 (Simulation time: 0 hr 5 min 42 sec) 
Heartbeat CPU 0 instructions: 30000000 cycles: 17417997 heartbeat IPC: 1.706 cumulative IPC: 1.72236 (Simulation time: 0 hr 5 min 57 sec) 
Heartbeat CPU 2 instructions: 30000001 cycles: 20213232 heartbeat IPC: 1.45755 cumulative IPC: 1.48418 (Simulation time: 0 hr 6 min 54 sec) 
Heartbeat CPU 1 instructions: 50000000 cycles: 20857165 heartbeat IPC: 2.39218 cumulative IPC: 2.39726 (Simulation time: 0 hr 7 min 8 sec) 
Heartbeat CPU 3 instructions: 40000000 cycles: 21143821 heartbeat IPC: 1.89206 cumulative IPC: 1.89181 (Simulation time: 0 hr 7 min 14 sec) 
Heartbeat CPU 0 instructions: 40000000 cycles: 23121446 heartbeat IPC: 1.75333 cumulative IPC: 1.73 (Simulation time: 0 hr 7 min 54 sec) 
Heartbeat CPU 1 instructions: 60000000 cycles: 25029789 heartbeat IPC: 2.39657 cumulative IPC: 2.39714 (Simulation time: 0 hr 8 min 33 sec) 
Heartbeat CPU 2 instructions: 40000000 cycles: 26386186 heartbeat IPC: 1.61997 cumulative IPC: 1.51594 (Simulation time: 0 hr 9 min 1 sec) 
Heartbeat CPU 3 instructions: 50000003 cycles: 26430410 heartbeat IPC: 1.89158 cumulative IPC: 1.89176 (Simulation time: 0 hr 9 min 1 sec) 
Heartbeat CPU 0 instructions: 50000002 cycles: 28955996 heartbeat IPC: 1.71393 cumulative IPC: 1.72676 (Simulation time: 0 hr 9 min 54 sec) 
Heartbeat CPU 1 instructions: 70000002 cycles: 29220471 heartbeat IPC: 2.38625 cumulative IPC: 2.39558 (Simulation time: 0 hr 10 min 0 sec) 
Heartbeat CPU 3 instructions: 60000000 cycles: 31714345 heartbeat IPC: 1.89253 cumulative IPC: 1.89189 (Simulation time: 0 hr 10 min 59 sec) 
Heartbeat CPU 2 instructions: 50000001 cycles: 32260717 heartbeat IPC: 1.70226 cumulative IPC: 1.54987 (Simulation time: 0 hr 11 min 10 sec) 
Heartbeat CPU 1 instructions: 80000000 cycles: 33395906 heartbeat IPC: 2.39496 cumulative IPC: 2.3955 (Simulation time: 0 hr 11 min 33 sec) 
Heartbeat CPU 0 instructions: 60000000 cycles: 34792670 heartbeat IPC: 1.7133 cumulative IPC: 1.7245 (Simulation time: 0 hr 12 min 2 sec) 
Heartbeat CPU 3 instructions: 70000000 cycles: 37000355 heartbeat IPC: 1.89179 cumulative IPC: 1.89187 (Simulation time: 0 hr 12 min 45 sec) 
Heartbeat CPU 1 instructions: 90000000 cycles: 37565972 heartbeat IPC: 2.39804 cumulative IPC: 2.39579 (Simulation time: 0 hr 12 min 56 sec) 
Heartbeat CPU 2 instructions: 60000000 cycles: 37941021 heartbeat IPC: 1.76047 cumulative IPC: 1.5814 (Simulation time: 0 hr 13 min 3 sec) 
Heartbeat CPU 0 instructions: 70000002 cycles: 40830791 heartbeat IPC: 1.65614 cumulative IPC: 1.71439 (Simulation time: 0 hr 14 min 0 sec) 
Heartbeat CPU 1 instructions: 100000000 cycles: 41747404 heartbeat IPC: 2.39153 cumulative IPC: 2.39536 (Simulation time: 0 hr 14 min 18 sec) 
Heartbeat CPU 3 instructions: 80000000 cycles: 42287535 heartbeat IPC: 1.89137 cumulative IPC: 1.89181 (Simulation time: 0 hr 14 min 28 sec) 
Heartbeat CPU 2 instructions: 70000001 cycles: 44566096 heartbeat IPC: 1.50942 cumulative IPC: 1.5707 (Simulation time: 0 hr 15 min 13 sec) 
Heartbeat CPU 1 instructions: 110000002 cycles: 45904344 heartbeat IPC: 2.40562 cumulative IPC: 2.39629 (Simulation time: 0 hr 15 min 40 sec) 
Heartbeat CPU 0 instructions: 80000000 cycles: 47023433 heartbeat IPC: 1.61482 cumulative IPC: 1.70128 (Simulation time: 0 hr 16 min 4 sec) 
Heartbeat CPU 3 instructions: 90000000 cycles: 47573812 heartbeat IPC: 1.89169 cumulative IPC: 1.8918 (Simulation time: 0 hr 16 min 13 sec) 
Heartbeat CPU 1 instructions: 120000000 cycles: 50070227 heartbeat IPC: 2.40045 cumulative IPC: 2.39663 (Simulation time: 0 hr 17 min 0 sec) 
Heartbeat CPU 2 instructions: 80000000 cycles: 50355562 heartbeat IPC: 1.72727 cumulative IPC: 1.5887 (Simulation time: 0 hr 17 min 6 sec) 
Heartbeat CPU 3 instructions: 100000000 cycles: 52859970 heartbeat IPC: 1.89173 cumulative IPC: 1.89179 (Simulation time: 0 hr 17 min 53 sec) 
Heartbeat CPU 0 instructions: 90000002 cycles: 53335277 heartbeat IPC: 1.58432 cumulative IPC: 1.68744 (Simulation time: 0 hr 18 min 2 sec) 
Heartbeat CPU 1 instructions: 130000001 cycles: 54241073 heartbeat IPC: 2.3976 cumulative IPC: 2.39671 (Simulation time: 0 hr 18 min 20 sec) 
Heartbeat CPU 2 instructions: 90000003 cycles: 55950547 heartbeat IPC: 1.78732 cumulative IPC: 1.60856 (Simulation time: 0 hr 18 min 54 sec) 
Heartbeat CPU 3 instructions: 110000001 cycles: 58145443 heartbeat IPC: 1.89198 cumulative IPC: 1.89181 (Simulation time: 0 hr 19 min 42 sec) 
Heartbeat CPU 1 instructions: 140000000 cycles: 58417434 heartbeat IPC: 2.39443 cumulative IPC: 2.39654 (Simulation time: 0 hr 19 min 47 sec) 
Heartbeat CPU 0 instructions: 100000000 cycles: 59182700 heartbeat IPC: 1.71015 cumulative IPC: 1.68968 (Simulation time: 0 hr 20 min 4 sec) 
Heartbeat CPU 2 instructions: 100000000 cycles: 62371571 heartbeat IPC: 1.55738 cumulative IPC: 1.60329 (Simulation time: 0 hr 21 min 34 sec) 
Heartbeat CPU 1 instructions: 150000000 cycles: 62608710 heartbeat IPC: 2.38591 cumulative IPC: 2.39583 (Simulation time: 0 hr 21 min 40 sec) 
Heartbeat CPU 3 instructions: 120000000 cycles: 63431023 heartbeat IPC: 1.89194 cumulative IPC: 1.89182 (Simulation time: 0 hr 22 min 4 sec) 
Heartbeat CPU 0 instructions: 110000000 cycles: 65040011 heartbeat IPC: 1.70727 cumulative IPC: 1.69127 (Simulation time: 0 hr 22 min 49 sec) 
Heartbeat CPU 1 instructions: 160000000 cycles: 66778031 heartbeat IPC: 2.39847 cumulative IPC: 2.396 (Simulation time: 0 hr 23 min 27 sec) 
Heartbeat CPU 3 instructions: 130000003 cycles: 68715904 heartbeat IPC: 1.89219 cumulative IPC: 1.89185 (Simulation time: 0 hr 24 min 9 sec) 
Heartbeat CPU 2 instructions: 110000003 cycles: 68866590 heartbeat IPC: 1.53964 cumulative IPC: 1.59729 (Simulation time: 0 hr 24 min 12 sec) 
Heartbeat CPU 0 instructions: 120000000 cycles: 70916976 heartbeat IPC: 1.70156 cumulative IPC: 1.69212 (Simulation time: 0 hr 24 min 56 sec) 
Heartbeat CPU 1 instructions: 170000001 cycles: 70961595 heartbeat IPC: 2.39031 cumulative IPC: 2.39566 (Simulation time: 0 hr 24 min 57 sec) 
Heartbeat CPU 3 instructions: 140000000 cycles: 74001982 heartbeat IPC: 1.89176 cumulative IPC: 1.89184 (Simulation time: 0 hr 26 min 3 sec) 
Heartbeat CPU 1 instructions: 180000000 cycles: 75144913 heartbeat IPC: 2.39045 cumulative IPC: 2.39537 (Simulation time: 0 hr 26 min 28 sec) 
Heartbeat CPU 2 instructions: 120000000 cycles: 75623010 heartbeat IPC: 1.48007 cumulative IPC: 1.58682 (Simulation time: 0 hr 26 min 38 sec) 
Heartbeat CPU 0 instructions: 130000000 cycles: 76755152 heartbeat IPC: 1.71286 cumulative IPC: 1.6937 (Simulation time: 0 hr 27 min 3 sec) 
Heartbeat CPU 3 instructions: 150000002 cycles: 79289206 heartbeat IPC: 1.89135 cumulative IPC: 1.89181 (Simulation time: 0 hr 27 min 55 sec) 
Heartbeat CPU 1 instructions: 190000001 cycles: 79324265 heartbeat IPC: 2.39272 cumulative IPC: 2.39523 (Simulation time: 0 hr 27 min 56 sec) 
Heartbeat CPU 2 instructions: 130000002 cycles: 81756164 heartbeat IPC: 1.63048 cumulative IPC: 1.59009 (Simulation time: 0 hr 28 min 46 sec) 
Heartbeat CPU 0 instructions: 140000000 cycles: 83102319 heartbeat IPC: 1.57551 cumulative IPC: 1.68467 (Simulation time: 0 hr 29 min 20 sec) 
Heartbeat CPU 1 instructions: 200000000 cycles: 83515741 heartbeat IPC: 2.38579 cumulative IPC: 2.39476 (Simulation time: 0 hr 29 min 32 sec) 
Heartbeat CPU 3 instructions: 160000000 cycles: 84575165 heartbeat IPC: 1.8918 cumulative IPC: 1.89181 (Simulation time: 0 hr 29 min 57 sec) 
Heartbeat CPU 1 instructions: 210000002 cycles: 87693918 heartbeat IPC: 2.39339 cumulative IPC: 0.114033 (Simulation time: 0 hr 31 min 9 sec) 
Heartbeat CPU 2 instructions: 140000000 cycles: 88311172 heartbeat IPC: 1.52555 cumulative IPC: 1.5853 (Simulation time: 0 hr 31 min 25 sec) 
Heartbeat CPU 0 instructions: 150000002 cycles: 89458456 heartbeat IPC: 1.57328 cumulative IPC: 1.67676 (Simulation time: 0 hr 31 min 50 sec) 
Heartbeat CPU 3 instructions: 170000000 cycles: 89861022 heartbeat IPC: 1.89184 cumulative IPC: 1.89181 (Simulation time: 0 hr 32 min 2 sec) 
Heartbeat CPU 1 instructions: 220000000 cycles: 91877380 heartbeat IPC: 2.39036 cumulative IPC: 0.217681 (Simulation time: 0 hr 32 min 53 sec) 
Heartbeat CPU 2 instructions: 150000000 cycles: 94849826 heartbeat IPC: 1.52937 cumulative IPC: 1.58145 (Simulation time: 0 hr 34 min 0 sec) 
Heartbeat CPU 3 instructions: 180000000 cycles: 95145765 heartbeat IPC: 1.89224 cumulative IPC: 1.89183 (Simulation time: 0 hr 34 min 7 sec) 
Heartbeat CPU 0 instructions: 160000000 cycles: 95473880 heartbeat IPC: 1.66239 cumulative IPC: 1.67585 (Simulation time: 0 hr 34 min 16 sec) 
Heartbeat CPU 1 instructions: 230000003 cycles: 96040753 heartbeat IPC: 2.4019 cumulative IPC: 0.312367 (Simulation time: 0 hr 34 min 33 sec) 
Heartbeat CPU 1 instructions: 240000000 cycles: 100201605 heartbeat IPC: 2.40335 cumulative IPC: 0.399195 (Simulation time: 0 hr 36 min 20 sec) 
Heartbeat CPU 3 instructions: 190000002 cycles: 100430983 heartbeat IPC: 1.89207 cumulative IPC: 1.89185 (Simulation time: 0 hr 36 min 25 sec) 
Heartbeat CPU 2 instructions: 160000000 cycles: 100597771 heartbeat IPC: 1.73975 cumulative IPC: 1.59049 (Simulation time: 0 hr 36 min 28 sec) 
Heartbeat CPU 0 instructions: 170000003 cycles: 101390185 heartbeat IPC: 1.69024 cumulative IPC: 1.67669 (Simulation time: 0 hr 36 min 46 sec) 
Heartbeat CPU 1 instructions: 250000000 cycles: 104368681 heartbeat IPC: 2.39976 cumulative IPC: 0.479071 (Simulation time: 0 hr 38 min 3 sec) 
Heartbeat CPU 3 instructions: 200000000 cycles: 105717518 heartbeat IPC: 1.8916 cumulative IPC: 1.89183 (Simulation time: 0 hr 38 min 32 sec) 
Heartbeat CPU 0 instructions: 180000000 cycles: 107393441 heartbeat IPC: 1.66576 cumulative IPC: 1.67608 (Simulation time: 0 hr 39 min 7 sec) 
Heartbeat CPU 2 instructions: 170000000 cycles: 107488155 heartbeat IPC: 1.4513 cumulative IPC: 1.58157 (Simulation time: 0 hr 39 min 9 sec) 
Heartbeat CPU 1 instructions: 260000000 cycles: 108547425 heartbeat IPC: 2.39306 cumulative IPC: 0.552754 (Simulation time: 0 hr 39 min 33 sec) 
Heartbeat CPU 3 instructions: 210000002 cycles: 111003616 heartbeat IPC: 1.89175 cumulative IPC: 0.0900872 (Simulation time: 0 hr 40 min 28 sec) 
Heartbeat CPU 1 instructions: 270000001 cycles: 112741115 heartbeat IPC: 2.38454 cumulative IPC: 0.620892 (Simulation time: 0 hr 41 min 6 sec) 
Heartbeat CPU 2 instructions: 180000000 cycles: 113714324 heartbeat IPC: 1.60612 cumulative IPC: 1.58291 (Simulation time: 0 hr 41 min 26 sec) 
Heartbeat CPU 0 instructions: 190000000 cycles: 113822497 heartbeat IPC: 1.55544 cumulative IPC: 1.66927 (Simulation time: 0 hr 41 min 28 sec) 
Heartbeat CPU 3 instructions: 220000000 cycles: 116290104 heartbeat IPC: 1.89161 cumulative IPC: 0.171984 (Simulation time: 0 hr 42 min 21 sec) 
Heartbeat CPU 1 instructions: 280000000 cycles: 116918223 heartbeat IPC: 2.394 cumulative IPC: 0.684239 (Simulation time: 0 hr 42 min 33 sec) 
Heartbeat CPU 0 instructions: 200000000 cycles: 120200324 heartbeat IPC: 1.56793 cumulative IPC: 1.66389 (Simulation time: 0 hr 43 min 45 sec) 
Heartbeat CPU 2 instructions: 190000001 cycles: 120641051 heartbeat IPC: 1.44368 cumulative IPC: 1.57492 (Simulation time: 0 hr 43 min 54 sec) 
Heartbeat CPU 1 instructions: 290000002 cycles: 121079075 heartbeat IPC: 2.40335 cumulative IPC: 0.743316 (Simulation time: 0 hr 44 min 4 sec) 
Heartbeat CPU 3 instructions: 230000003 cycles: 121575712 heartbeat IPC: 1.89193 cumulative IPC: 0.24676 (Simulation time: 0 hr 44 min 14 sec) 
Heartbeat CPU 1 instructions: 300000000 cycles: 125254755 heartbeat IPC: 2.39482 cumulative IPC: 0.798373 (Simulation time: 0 hr 45 min 37 sec) 
Heartbeat CPU 0 instructions: 210000003 cycles: 126198440 heartbeat IPC: 1.66719 cumulative IPC: 0.0792403 (Simulation time: 0 hr 45 min 57 sec) 
Heartbeat CPU 3 instructions: 240000000 cycles: 126860205 heartbeat IPC: 1.89233 cumulative IPC: 0.315308 (Simulation time: 0 hr 46 min 11 sec) 
Heartbeat CPU 2 instructions: 200000000 cycles: 127406267 heartbeat IPC: 1.47815 cumulative IPC: 1.56978 (Simulation time: 0 hr 46 min 22 sec) 

Warmup complete CPU 0 instructions: 212055430 cycles: 127406268 (Simulation time: 0 hr 46 min 22 sec) 
Warmup complete CPU 1 instructions: 305132393 cycles: 127406268 (Simulation time: 0 hr 46 min 22 sec) 
Warmup complete CPU 2 instructions: 200000001 cycles: 127406268 (Simulation time: 0 hr 46 min 22 sec) 
Warmup complete CPU 3 instructions: 241031939 cycles: 127406267 (Simulation time: 0 hr 46 min 22 sec) 

Heartbeat CPU 1 instructions: 310000003 cycles: 135674635 heartbeat IPC: 0.959704 cumulative IPC: 0.588703 (Simulation time: 0 hr 47 min 34 sec) 
Heartbeat CPU 0 instructions: 220000000 cycles: 139489588 heartbeat IPC: 0.75238 cumulative IPC: 0.657482 (Simulation time: 0 hr 48 min 6 sec) 
Heartbeat CPU 3 instructions: 250000003 cycles: 140674342 heartbeat IPC: 0.723896 cumulative IPC: 0.675913 (Simulation time: 0 hr 48 min 16 sec) 
Heartbeat CPU 0 instructions: 230000002 cycles: 152841997 heartbeat IPC: 0.748929 cumulative IPC: 0.705487 (Simulation time: 0 hr 50 min 25 sec) 
Heartbeat CPU 2 instructions: 210000000 cycles: 155381542 heartbeat IPC: 0.357459 cumulative IPC: 0.357458 (Simulation time: 0 hr 50 min 52 sec) 
Heartbeat CPU 3 instructions: 260000000 cycles: 155473586 heartbeat IPC: 0.67571 cumulative IPC: 0.675806 (Simulation time: 0 hr 50 min 53 sec) 
Heartbeat CPU 1 instructions: 320000000 cycles: 155842173 heartbeat IPC: 0.495846 cumulative IPC: 0.522846 (Simulation time: 0 hr 50 min 57 sec) 
Heartbeat CPU 0 instructions: 240000000 cycles: 167053941 heartbeat IPC: 0.703633 cumulative IPC: 0.704822 (Simulation time: 0 hr 52 min 48 sec) 
Heartbeat CPU 3 instructions: 270000001 cycles: 170405941 heartbeat IPC: 0.669687 cumulative IPC: 0.673681 (Simulation time: 0 hr 53 min 25 sec) 
Heartbeat CPU 1 instructions: 330000002 cycles: 176240486 heartbeat IPC: 0.490237 cumulative IPC: 0.509225 (Simulation time: 0 hr 54 min 19 sec) 
Heartbeat CPU 0 instructions: 250000002 cycles: 182327949 heartbeat IPC: 0.654707 cumulative IPC: 0.690885 (Simulation time: 0 hr 55 min 10 sec) 
Heartbeat CPU 2 instructions: 220000000 cycles: 184019337 heartbeat IPC: 0.349189 cumulative IPC: 0.353275 (Simulation time: 0 hr 55 min 24 sec) 
Heartbeat CPU 3 instructions: 280000000 cycles: 185397944 heartbeat IPC: 0.667022 cumulative IPC: 0.67196 (Simulation time: 0 hr 55 min 37 sec) 
Heartbeat CPU 1 instructions: 340000000 cycles: 197112531 heartbeat IPC: 0.47911 cumulative IPC: 0.500208 (Simulation time: 0 hr 57 min 31 sec) 
Heartbeat CPU 0 instructions: 260000000 cycles: 197215842 heartbeat IPC: 0.671687 cumulative IPC: 0.686791 (Simulation time: 0 hr 57 min 32 sec) 
Heartbeat CPU 3 instructions: 290000002 cycles: 200090848 heartbeat IPC: 0.680601 cumulative IPC: 0.673706 (Simulation time: 0 hr 57 min 55 sec) 
Heartbeat CPU 0 instructions: 270000001 cycles: 212295012 heartbeat IPC: 0.663167 cumulative IPC: 0.682594 (Simulation time: 0 hr 59 min 44 sec) 
Heartbeat CPU 2 instructions: 230000003 cycles: 213571615 heartbeat IPC: 0.338383 cumulative IPC: 0.348168 (Simulation time: 0 hr 59 min 55 sec) 
Heartbeat CPU 1 instructions: 350000001 cycles: 215061583 heartbeat IPC: 0.557133 cumulative IPC: 0.511864 (Simulation time: 1 hr 0 min 9 sec) 
Heartbeat CPU 3 instructions: 300000000 cycles: 215071320 heartbeat IPC: 0.667536 cumulative IPC: 0.672652 (Simulation time: 1 hr 0 min 9 sec) 
Heartbeat CPU 0 instructions: 280000000 cycles: 227424277 heartbeat IPC: 0.660971 cumulative IPC: 0.679323 (Simulation time: 1 hr 1 min 55 sec) 
Heartbeat CPU 3 instructions: 310000001 cycles: 229993821 heartbeat IPC: 0.670129 cumulative IPC: 0.672285 (Simulation time: 1 hr 2 min 16 sec) 
Heartbeat CPU 1 instructions: 360000000 cycles: 235993905 heartbeat IPC: 0.47773 cumulative IPC: 0.505284 (Simulation time: 1 hr 3 min 6 sec) 
Heartbeat CPU 2 instructions: 240000000 cycles: 243894584 heartbeat IPC: 0.329783 cumulative IPC: 0.343382 (Simulation time: 1 hr 4 min 8 sec) 
Heartbeat CPU 3 instructions: 320000000 cycles: 244980051 heartbeat IPC: 0.667279 cumulative IPC: 0.671647 (Simulation time: 1 hr 4 min 18 sec) 
Heartbeat CPU 0 instructions: 290000001 cycles: 246139654 heartbeat IPC: 0.53432 cumulative IPC: 0.656467 (Simulation time: 1 hr 4 min 28 sec) 
Heartbeat CPU 1 instructions: 370000001 cycles: 259639434 heartbeat IPC: 0.422913 cumulative IPC: 0.490555 (Simulation time: 1 hr 6 min 15 sec) 
Heartbeat CPU 3 instructions: 330000003 cycles: 260157332 heartbeat IPC: 0.65888 cumulative IPC: 0.670187 (Simulation time: 1 hr 6 min 22 sec) 
Heartbeat CPU 2 instructions: 250000001 cycles: 272955987 heartbeat IPC: 0.344099 cumulative IPC: 0.343525 (Simulation time: 1 hr 8 min 10 sec) 
Heartbeat CPU 0 instructions: 300000000 cycles: 273075683 heartbeat IPC: 0.37125 cumulative IPC: 0.603727 (Simulation time: 1 hr 8 min 11 sec) 
Heartbeat CPU 3 instructions: 340000000 cycles: 275334974 heartbeat IPC: 0.658864 cumulative IPC: 0.669025 (Simulation time: 1 hr 8 min 29 sec) 
Heartbeat CPU 1 instructions: 380000000 cycles: 289534804 heartbeat IPC: 0.3345 cumulative IPC: 0.461779 (Simulation time: 1 hr 10 min 20 sec) 
Heartbeat CPU 3 instructions: 350000002 cycles: 290455752 heartbeat IPC: 0.661342 cumulative IPC: 0.668313 (Simulation time: 1 hr 10 min 26 sec) 
Heartbeat CPU 0 instructions: 310000000 cycles: 299556454 heartbeat IPC: 0.377632 cumulative IPC: 0.568948 (Simulation time: 1 hr 11 min 32 sec) 
Heartbeat CPU 2 instructions: 260000000 cycles: 300709626 heartbeat IPC: 0.360313 cumulative IPC: 0.346214 (Simulation time: 1 hr 11 min 40 sec) 
Heartbeat CPU 3 instructions: 360000000 cycles: 305611034 heartbeat IPC: 0.659836 cumulative IPC: 0.667592 (Simulation time: 1 hr 12 min 15 sec) 
Heartbeat CPU 1 instructions: 390000000 cycles: 315390862 heartbeat IPC: 0.386757 cumulative IPC: 0.45146 (Simulation time: 1 hr 13 min 27 sec) 
Heartbeat CPU 0 instructions: 320000000 cycles: 320460307 heartbeat IPC: 0.478381 cumulative IPC: 0.559142 (Simulation time: 1 hr 14 min 7 sec) 
Heartbeat CPU 3 instructions: 370000000 cycles: 320750419 heartbeat IPC: 0.660529 cumulative IPC: 0.667039 (Simulation time: 1 hr 14 min 9 sec) 
Heartbeat CPU 2 instructions: 270000000 cycles: 331468061 heartbeat IPC: 0.325114 cumulative IPC: 0.343033 (Simulation time: 1 hr 15 min 40 sec) 
Heartbeat CPU 0 instructions: 330000002 cycles: 334116420 heartbeat IPC: 0.732273 cumulative IPC: 0.570579 (Simulation time: 1 hr 16 min 4 sec) 
Heartbeat CPU 3 instructions: 380000000 cycles: 335755113 heartbeat IPC: 0.666458 cumulative IPC: 0.666997 (Simulation time: 1 hr 16 min 17 sec) 
Heartbeat CPU 1 instructions: 400000000 cycles: 338217955 heartbeat IPC: 0.438076 cumulative IPC: 0.450011 (Simulation time: 1 hr 16 min 36 sec) 
Heartbeat CPU 0 instructions: 340000000 cycles: 348841689 heartbeat IPC: 0.679105 cumulative IPC: 0.577796 (Simulation time: 1 hr 18 min 6 sec) 
Heartbeat CPU 3 instructions: 390000001 cycles: 350640558 heartbeat IPC: 0.671797 cumulative IPC: 0.667317 (Simulation time: 1 hr 18 min 20 sec) 
Heartbeat CPU 2 instructions: 280000000 cycles: 361917163 heartbeat IPC: 0.328417 cumulative IPC: 0.341136 (Simulation time: 1 hr 19 min 51 sec) 
Heartbeat CPU 1 instructions: 410000000 cycles: 362320933 heartbeat IPC: 0.414887 cumulative IPC: 0.446407 (Simulation time: 1 hr 19 min 55 sec) 
Heartbeat CPU 0 instructions: 350000001 cycles: 363585743 heartbeat IPC: 0.67824 cumulative IPC: 0.584067 (Simulation time: 1 hr 20 min 5 sec) 
Heartbeat CPU 3 instructions: 400000000 cycles: 365742025 heartbeat IPC: 0.662187 cumulative IPC: 0.666992 (Simulation time: 1 hr 20 min 24 sec) 
Heartbeat CPU 0 instructions: 360000000 cycles: 378461322 heartbeat IPC: 0.672243 cumulative IPC: 0.589291 (Simulation time: 1 hr 22 min 29 sec) 
Heartbeat CPU 3 instructions: 410000000 cycles: 380814495 heartbeat IPC: 0.663461 cumulative IPC: 0.666782 (Simulation time: 1 hr 22 min 52 sec) 
Heartbeat CPU 1 instructions: 420000000 cycles: 383584377 heartbeat IPC: 0.470291 cumulative IPC: 0.44839 (Simulation time: 1 hr 23 min 17 sec) 
Heartbeat CPU 2 instructions: 290000001 cycles: 391405588 heartbeat IPC: 0.339116 cumulative IPC: 0.34091 (Simulation time: 1 hr 24 min 30 sec) 
Heartbeat CPU 3 instructions: 420000000 cycles: 395596079 heartbeat IPC: 0.676517 cumulative IPC: 0.667319 (Simulation time: 1 hr 25 min 3 sec) 
Heartbeat CPU 1 instructions: 430000001 cycles: 396915795 heartbeat IPC: 0.750108 cumulative IPC: 0.463314 (Simulation time: 1 hr 25 min 14 sec) 
Heartbeat CPU 0 instructions: 370000001 cycles: 405486924 heartbeat IPC: 0.37002 cumulative IPC: 0.567981 (Simulation time: 1 hr 26 min 37 sec) 
Heartbeat CPU 3 instructions: 430000000 cycles: 410421437 heartbeat IPC: 0.67452 cumulative IPC: 0.667696 (Simulation time: 1 hr 27 min 19 sec) 
Heartbeat CPU 1 instructions: 440000000 cycles: 411776676 heartbeat IPC: 0.672908 cumulative IPC: 0.474267 (Simulation time: 1 hr 27 min 30 sec) 
Heartbeat CPU 2 instructions: 300000000 cycles: 419549834 heartbeat IPC: 0.355312 cumulative IPC: 0.342297 (Simulation time: 1 hr 28 min 43 sec) 
Heartbeat CPU 3 instructions: 440000000 cycles: 425377311 heartbeat IPC: 0.668634 cumulative IPC: 0.667743 (Simulation time: 1 hr 29 min 36 sec) 
Heartbeat CPU 1 instructions: 450000003 cycles: 427908133 heartbeat IPC: 0.619907 cumulative IPC: 0.482086 (Simulation time: 1 hr 29 min 57 sec) 
Heartbeat CPU 0 instructions: 380000000 cycles: 431404429 heartbeat IPC: 0.38584 cumulative IPC: 0.552453 (Simulation time: 1 hr 30 min 28 sec) 
Heartbeat CPU 3 instructions: 450000000 cycles: 440453906 heartbeat IPC: 0.66328 cumulative IPC: 0.667528 (Simulation time: 1 hr 31 min 47 sec) 
Heartbeat CPU 1 instructions: 460000000 cycles: 444449299 heartbeat IPC: 0.604552 cumulative IPC: 0.488475 (Simulation time: 1 hr 32 min 23 sec) 
Heartbeat CPU 2 instructions: 310000000 cycles: 444860484 heartbeat IPC: 0.395091 cumulative IPC: 0.346507 (Simulation time: 1 hr 32 min 26 sec) 
Heartbeat CPU 0 instructions: 390000003 cycles: 452896291 heartbeat IPC: 0.465293 cumulative IPC: 0.546697 (Simulation time: 1 hr 33 min 45 sec) 
Heartbeat CPU 3 instructions: 460000000 cycles: 455265520 heartbeat IPC: 0.675146 cumulative IPC: 0.667872 (Simulation time: 1 hr 34 min 11 sec) 
Heartbeat CPU 1 instructions: 470000000 cycles: 461107633 heartbeat IPC: 0.6003 cumulative IPC: 0.494057 (Simulation time: 1 hr 35 min 8 sec) 
Heartbeat CPU 0 instructions: 400000000 cycles: 465573780 heartbeat IPC: 0.7888 cumulative IPC: 0.555774 (Simulation time: 1 hr 35 min 57 sec) 
Heartbeat CPU 3 instructions: 470000000 cycles: 469908619 heartbeat IPC: 0.682916 cumulative IPC: 0.668515 (Simulation time: 1 hr 36 min 37 sec) 
Heartbeat CPU 2 instructions: 320000000 cycles: 474298324 heartbeat IPC: 0.339699 cumulative IPC: 0.345929 (Simulation time: 1 hr 37 min 16 sec) 
Heartbeat CPU 1 instructions: 480000000 cycles: 477768449 heartbeat IPC: 0.600211 cumulative IPC: 0.499105 (Simulation time: 1 hr 37 min 47 sec) 
Heartbeat CPU 0 instructions: 410000002 cycles: 480441769 heartbeat IPC: 0.672586 cumulative IPC: 0.560693 (Simulation time: 1 hr 38 min 10 sec) 
Heartbeat CPU 3 instructions: 480000000 cycles: 484753166 heartbeat IPC: 0.673648 cumulative IPC: 0.668729 (Simulation time: 1 hr 38 min 51 sec) 
Heartbeat CPU 0 instructions: 420000000 cycles: 494011606 heartbeat IPC: 0.736928 cumulative IPC: 0.567216 (Simulation time: 1 hr 40 min 17 sec) 
Heartbeat CPU 1 instructions: 490000000 cycles: 494607631 heartbeat IPC: 0.593853 cumulative IPC: 0.50345 (Simulation time: 1 hr 40 min 23 sec) 
Heartbeat CPU 3 instructions: 490000003 cycles: 499478479 heartbeat IPC: 0.679103 cumulative IPC: 0.669139 (Simulation time: 1 hr 41 min 6 sec) 
Heartbeat CPU 2 instructions: 330000002 cycles: 504804855 heartbeat IPC: 0.327799 cumulative IPC: 0.344463 (Simulation time: 1 hr 42 min 1 sec) 
Heartbeat CPU 0 instructions: 430000001 cycles: 505567566 heartbeat IPC: 0.865354 cumulative IPC: 0.576327 (Simulation time: 1 hr 42 min 8 sec) 
Heartbeat CPU 1 instructions: 500000000 cycles: 511538620 heartbeat IPC: 0.590633 cumulative IPC: 0.507293 (Simulation time: 1 hr 43 min 2 sec) 
Heartbeat CPU 3 instructions: 500000000 cycles: 514127444 heartbeat IPC: 0.682642 cumulative IPC: 0.669651 (Simulation time: 1 hr 43 min 25 sec) 
Heartbeat CPU 0 instructions: 440000000 cycles: 519270399 heartbeat IPC: 0.729776 cumulative IPC: 0.581693 (Simulation time: 1 hr 44 min 20 sec) 
Heartbeat CPU 1 instructions: 510000000 cycles: 528453852 heartbeat IPC: 0.591183 cumulative IPC: 0.510831 (Simulation time: 1 hr 45 min 58 sec) 
Heartbeat CPU 3 instructions: 510000002 cycles: 528658400 heartbeat IPC: 0.688186 cumulative IPC: 0.670322 (Simulation time: 1 hr 46 min 0 sec) 
Heartbeat CPU 0 instructions: 450000000 cycles: 533752081 heartbeat IPC: 0.690527 cumulative IPC: 0.585572 (Simulation time: 1 hr 46 min 57 sec) 
Heartbeat CPU 2 instructions: 340000000 cycles: 535872385 heartbeat IPC: 0.321879 cumulative IPC: 0.342746 (Simulation time: 1 hr 47 min 18 sec) 
Heartbeat CPU 3 instructions: 520000000 cycles: 543276064 heartbeat IPC: 0.684104 cumulative IPC: 0.670806 (Simulation time: 1 hr 48 min 46 sec) 
Heartbeat CPU 1 instructions: 520000000 cycles: 545336069 heartbeat IPC: 0.592339 cumulative IPC: 0.514124 (Simulation time: 1 hr 49 min 9 sec) 
Heartbeat CPU 0 instructions: 460000000 cycles: 546363380 heartbeat IPC: 0.79294 cumulative IPC: 0.591814 (Simulation time: 1 hr 49 min 20 sec) 
Heartbeat CPU 3 instructions: 530000003 cycles: 557924833 heartbeat IPC: 0.682651 cumulative IPC: 0.671209 (Simulation time: 1 hr 51 min 15 sec) 
Heartbeat CPU 0 instructions: 470000000 cycles: 560929675 heartbeat IPC: 0.686516 cumulative IPC: 0.594996 (Simulation time: 1 hr 51 min 43 sec) 
Heartbeat CPU 1 instructions: 530000000 cycles: 562187226 heartbeat IPC: 0.593431 cumulative IPC: 0.517197 (Simulation time: 1 hr 51 min 56 sec) 
Heartbeat CPU 2 instructions: 350000000 cycles: 564879764 heartbeat IPC: 0.34474 cumulative IPC: 0.342878 (Simulation time: 1 hr 52 min 25 sec) 
Heartbeat CPU 3 instructions: 540000000 cycles: 572506070 heartbeat IPC: 0.685813 cumulative IPC: 0.671688 (Simulation time: 1 hr 53 min 43 sec) 
Heartbeat CPU 0 instructions: 480000000 cycles: 576295982 heartbeat IPC: 0.650774 cumulative IPC: 0.596905 (Simulation time: 1 hr 54 min 25 sec) 
Heartbeat CPU 1 instructions: 540000000 cycles: 579042766 heartbeat IPC: 0.593277 cumulative IPC: 0.520037 (Simulation time: 1 hr 54 min 53 sec) 
Heartbeat CPU 3 instructions: 550000001 cycles: 587114890 heartbeat IPC: 0.684518 cumulative IPC: 0.672095 (Simulation time: 1 hr 56 min 16 sec) 
Heartbeat CPU 0 instructions: 490000002 cycles: 589966797 heartbeat IPC: 0.731485 cumulative IPC: 0.600883 (Simulation time: 1 hr 56 min 47 sec) 
Heartbeat CPU 1 instructions: 550000002 cycles: 595870122 heartbeat IPC: 0.594271 cumulative IPC: 0.522703 (Simulation time: 1 hr 57 min 48 sec) 
Heartbeat CPU 2 instructions: 360000000 cycles: 596600679 heartbeat IPC: 0.315249 cumulative IPC: 0.34101 (Simulation time: 1 hr 57 min 55 sec) 
Heartbeat CPU 3 instructions: 560000000 cycles: 601634071 heartbeat IPC: 0.688744 cumulative IPC: 0.672605 (Simulation time: 1 hr 58 min 42 sec) 
Heartbeat CPU 0 instructions: 500000000 cycles: 605011738 heartbeat IPC: 0.664675 cumulative IPC: 0.602892 (Simulation time: 1 hr 59 min 16 sec) 
Heartbeat CPU 1 instructions: 560000000 cycles: 612684030 heartbeat IPC: 0.594746 cumulative IPC: 0.525199 (Simulation time: 2 hr 0 min 29 sec) 
Heartbeat CPU 3 instructions: 570000003 cycles: 616261152 heartbeat IPC: 0.683664 cumulative IPC: 0.672936 (Simulation time: 2 hr 1 min 8 sec) 
Heartbeat CPU 0 instructions: 510000001 cycles: 618957734 heartbeat IPC: 0.717052 cumulative IPC: 0.606131 (Simulation time: 2 hr 1 min 37 sec) 
Heartbeat CPU 2 instructions: 370000000 cycles: 626630094 heartbeat IPC: 0.333007 cumulative IPC: 0.340529 (Simulation time: 2 hr 2 min 59 sec) 
Heartbeat CPU 1 instructions: 570000001 cycles: 629484502 heartbeat IPC: 0.595221 cumulative IPC: 0.527543 (Simulation time: 2 hr 3 min 28 sec) 
Heartbeat CPU 3 instructions: 580000000 cycles: 630787967 heartbeat IPC: 0.688382 cumulative IPC: 0.673382 (Simulation time: 2 hr 3 min 41 sec) 
Heartbeat CPU 0 instructions: 520000000 cycles: 632740128 heartbeat IPC: 0.725563 cumulative IPC: 0.609388 (Simulation time: 2 hr 4 min 9 sec) 
Heartbeat CPU 3 instructions: 590000001 cycles: 645482754 heartbeat IPC: 0.680514 cumulative IPC: 0.673584 (Simulation time: 2 hr 6 min 24 sec) 
Heartbeat CPU 1 instructions: 580000000 cycles: 646265947 heartbeat IPC: 0.595896 cumulative IPC: 0.529753 (Simulation time: 2 hr 6 min 32 sec) 
Heartbeat CPU 0 instructions: 530000003 cycles: 647816120 heartbeat IPC: 0.663306 cumulative IPC: 0.61095 (Simulation time: 2 hr 6 min 46 sec) 
Heartbeat CPU 2 instructions: 380000000 cycles: 650749874 heartbeat IPC: 0.414597 cumulative IPC: 0.343942 (Simulation time: 2 hr 7 min 19 sec) 
Heartbeat CPU 3 instructions: 600000000 cycles: 660110928 heartbeat IPC: 0.683612 cumulative IPC: 0.673859 (Simulation time: 2 hr 8 min 47 sec) 
Heartbeat CPU 0 instructions: 540000000 cycles: 661613376 heartbeat IPC: 0.724782 cumulative IPC: 0.61389 (Simulation time: 2 hr 9 min 1 sec) 
Heartbeat CPU 1 instructions: 590000002 cycles: 663041484 heartbeat IPC: 0.596106 cumulative IPC: 0.531831 (Simulation time: 2 hr 9 min 14 sec) 
Heartbeat CPU 3 instructions: 610000000 cycles: 674782169 heartbeat IPC: 0.681606 cumulative IPC: 0.674067 (Simulation time: 2 hr 11 min 4 sec) 
Heartbeat CPU 2 instructions: 390000000 cycles: 674837978 heartbeat IPC: 0.415143 cumulative IPC: 0.347075 (Simulation time: 2 hr 11 min 5 sec) 
Heartbeat CPU 0 instructions: 550000000 cycles: 675902597 heartbeat IPC: 0.699828 cumulative IPC: 0.616129 (Simulation time: 2 hr 11 min 14 sec) 
Heartbeat CPU 1 instructions: 600000000 cycles: 679807982 heartbeat IPC: 0.596427 cumulative IPC: 0.533792 (Simulation time: 2 hr 11 min 45 sec) 
Heartbeat CPU 3 instructions: 620000000 cycles: 689615361 heartbeat IPC: 0.674164 cumulative IPC: 0.67407 (Simulation time: 2 hr 13 min 12 sec) 
Heartbeat CPU 0 instructions: 560000000 cycles: 694433281 heartbeat IPC: 0.539645 cumulative IPC: 0.61363 (Simulation time: 2 hr 13 min 55 sec) 
Heartbeat CPU 1 instructions: 610000002 cycles: 696569105 heartbeat IPC: 0.596619 cumulative IPC: 0.535642 (Simulation time: 2 hr 14 min 13 sec) 
Heartbeat CPU 3 instructions: 630000002 cycles: 704397326 heartbeat IPC: 0.6765 cumulative IPC: 0.674132 (Simulation time: 2 hr 15 min 16 sec) 
Heartbeat CPU 2 instructions: 400000000 cycles: 704853531 heartbeat IPC: 0.333161 cumulative IPC: 0.346352 (Simulation time: 2 hr 15 min 20 sec) 
Heartbeat CPU 1 instructions: 620000000 cycles: 713425049 heartbeat IPC: 0.593262 cumulative IPC: 0.5373 (Simulation time: 2 hr 16 min 26 sec) 
Heartbeat CPU 0 instructions: 570000000 cycles: 718957432 heartbeat IPC: 0.407761 cumulative IPC: 0.605095 (Simulation time: 2 hr 17 min 12 sec) 
Heartbeat CPU 3 instructions: 640000000 cycles: 719289316 heartbeat IPC: 0.671502 cumulative IPC: 0.674066 (Simulation time: 2 hr 17 min 14 sec) 
Heartbeat CPU 1 instructions: 630000002 cycles: 730458137 heartbeat IPC: 0.587093 cumulative IPC: 0.538706 (Simulation time: 2 hr 18 min 37 sec) 
Heartbeat CPU 2 instructions: 410000000 cycles: 733569526 heartbeat IPC: 0.348238 cumulative IPC: 0.346441 (Simulation time: 2 hr 19 min 0 sec) 
Heartbeat CPU 3 instructions: 650000000 cycles: 734160205 heartbeat IPC: 0.672455 cumulative IPC: 0.674026 (Simulation time: 2 hr 19 min 4 sec) 
Heartbeat CPU 0 instructions: 580000000 cycles: 745116326 heartbeat IPC: 0.382279 cumulative IPC: 0.595659 (Simulation time: 2 hr 20 min 32 sec) 
Heartbeat CPU 1 instructions: 640000000 cycles: 747466501 heartbeat IPC: 0.587946 cumulative IPC: 0.540057 (Simulation time: 2 hr 20 min 51 sec) 
Heartbeat CPU 3 instructions: 660000000 cycles: 749023312 heartbeat IPC: 0.672807 cumulative IPC: 0.673997 (Simulation time: 2 hr 21 min 5 sec) 
Heartbeat CPU 0 instructions: 590000000 cycles: 759758963 heartbeat IPC: 0.682937 cumulative IPC: 0.59768 (Simulation time: 2 hr 22 min 39 sec) 
Heartbeat CPU 2 instructions: 420000000 cycles: 761378799 heartbeat IPC: 0.359592 cumulative IPC: 0.347018 (Simulation time: 2 hr 22 min 53 sec) 
Heartbeat CPU 3 instructions: 670000001 cycles: 763829120 heartbeat IPC: 0.675411 cumulative IPC: 0.67403 (Simulation time: 2 hr 23 min 12 sec) 
Heartbeat CPU 1 instructions: 650000001 cycles: 764462188 heartbeat IPC: 0.588385 cumulative IPC: 0.541346 (Simulation time: 2 hr 23 min 17 sec) 
Heartbeat CPU 0 instructions: 600000000 cycles: 775481002 heartbeat IPC: 0.63605 cumulative IPC: 0.598611 (Simulation time: 2 hr 24 min 49 sec) 
Heartbeat CPU 3 instructions: 680000000 cycles: 778647873 heartbeat IPC: 0.674821 cumulative IPC: 0.674048 (Simulation time: 2 hr 25 min 16 sec) 
Heartbeat CPU 1 instructions: 660000000 cycles: 781446421 heartbeat IPC: 0.588781 cumulative IPC: 0.542578 (Simulation time: 2 hr 25 min 39 sec) 
Heartbeat CPU 2 instructions: 430000000 cycles: 791593665 heartbeat IPC: 0.330963 cumulative IPC: 0.346288 (Simulation time: 2 hr 26 min 57 sec) 
Heartbeat CPU 3 instructions: 690000003 cycles: 793389984 heartbeat IPC: 0.678329 cumulative IPC: 0.674143 (Simulation time: 2 hr 27 min 10 sec) 
Heartbeat CPU 0 instructions: 610000002 cycles: 797357637 heartbeat IPC: 0.457109 cumulative IPC: 0.59399 (Simulation time: 2 hr 27 min 39 sec) 
Heartbeat CPU 1 instructions: 670000000 cycles: 798424307 heartbeat IPC: 0.589001 cumulative IPC: 0.543752 (Simulation time: 2 hr 27 min 47 sec) 
Heartbeat CPU 3 instructions: 700000000 cycles: 808273788 heartbeat IPC: 0.671871 cumulative IPC: 0.674093 (Simulation time: 2 hr 29 min 1 sec) 
Heartbeat CPU 1 instructions: 680000000 cycles: 815393494 heartbeat IPC: 0.589303 cumulative IPC: 0.544876 (Simulation time: 2 hr 29 min 56 sec) 
Heartbeat CPU 2 instructions: 440000000 cycles: 818707993 heartbeat IPC: 0.368809 cumulative IPC: 0.347171 (Simulation time: 2 hr 30 min 20 sec) 
Heartbeat CPU 3 instructions: 710000002 cycles: 822999750 heartbeat IPC: 0.679073 cumulative IPC: 0.674198 (Simulation time: 2 hr 30 min 53 sec) 
Heartbeat CPU 0 instructions: 620000000 cycles: 823405574 heartbeat IPC: 0.383907 cumulative IPC: 0.586128 (Simulation time: 2 hr 30 min 56 sec) 
Heartbeat CPU 1 instructions: 690000001 cycles: 832346492 heartbeat IPC: 0.589866 cumulative IPC: 0.545958 (Simulation time: 2 hr 32 min 3 sec) 
Heartbeat CPU 3 instructions: 720000000 cycles: 837901039 heartbeat IPC: 0.671083 cumulative IPC: 0.674133 (Simulation time: 2 hr 32 min 46 sec) 
Heartbeat CPU 2 instructions: 450000000 cycles: 847219452 heartbeat IPC: 0.350736 cumulative IPC: 0.347312 (Simulation time: 2 hr 33 min 56 sec) 
Heartbeat CPU 1 instructions: 700000000 cycles: 849284706 heartbeat IPC: 0.590381 cumulative IPC: 0.547 (Simulation time: 2 hr 34 min 12 sec) 
Heartbeat CPU 0 instructions: 630000000 cycles: 849309641 heartbeat IPC: 0.38604 cumulative IPC: 0.578948 (Simulation time: 2 hr 34 min 12 sec) 
Heartbeat CPU 3 instructions: 730000000 cycles: 852743494 heartbeat IPC: 0.673743 cumulative IPC: 0.674125 (Simulation time: 2 hr 34 min 42 sec) 
Heartbeat CPU 0 instructions: 640000000 cycles: 863224067 heartbeat IPC: 0.718679 cumulative IPC: 0.58159 (Simulation time: 2 hr 36 min 14 sec) 
Heartbeat CPU 1 instructions: 710000000 cycles: 866210837 heartbeat IPC: 0.590802 cumulative IPC: 0.548004 (Simulation time: 2 hr 36 min 40 sec) 
Heartbeat CPU 3 instructions: 740000000 cycles: 867481229 heartbeat IPC: 0.67853 cumulative IPC: 0.674213 (Simulation time: 2 hr 36 min 51 sec) 
Heartbeat CPU 2 instructions: 460000000 cycles: 872699973 heartbeat IPC: 0.392457 cumulative IPC: 0.348856 (Simulation time: 2 hr 37 min 40 sec) 
Heartbeat CPU 0 instructions: 650000003 cycles: 876374281 heartbeat IPC: 0.760444 cumulative IPC: 0.584731 (Simulation time: 2 hr 38 min 11 sec) 
Heartbeat CPU 3 instructions: 750000001 cycles: 882176619 heartbeat IPC: 0.680486 cumulative IPC: 0.674335 (Simulation time: 2 hr 39 min 2 sec) 
Heartbeat CPU 1 instructions: 720000000 cycles: 883121971 heartbeat IPC: 0.591326 cumulative IPC: 0.548973 (Simulation time: 2 hr 39 min 10 sec) 
Heartbeat CPU 0 instructions: 660000000 cycles: 889825510 heartbeat IPC: 0.743426 cumulative IPC: 0.58753 (Simulation time: 2 hr 40 min 9 sec) 
Heartbeat CPU 3 instructions: 760000000 cycles: 896766530 heartbeat IPC: 0.685405 cumulative IPC: 0.674545 (Simulation time: 2 hr 41 min 9 sec) 
Heartbeat CPU 1 instructions: 730000003 cycles: 900026985 heartbeat IPC: 0.591541 cumulative IPC: 0.549905 (Simulation time: 2 hr 41 min 36 sec) 
Heartbeat CPU 2 instructions: 470000000 cycles: 901415650 heartbeat IPC: 0.348242 cumulative IPC: 0.348833 (Simulation time: 2 hr 41 min 48 sec) 
Heartbeat CPU 0 instructions: 670000000 cycles: 904629656 heartbeat IPC: 0.675486 cumulative IPC: 0.589206 (Simulation time: 2 hr 42 min 16 sec) 
Heartbeat CPU 3 instructions: 770000003 cycles: 911409894 heartbeat IPC: 0.682903 cumulative IPC: 0.674701 (Simulation time: 2 hr 43 min 14 sec) 
Heartbeat CPU 1 instructions: 740000000 cycles: 916914697 heartbeat IPC: 0.592146 cumulative IPC: 0.550808 (Simulation time: 2 hr 44 min 1 sec) 
Heartbeat CPU 0 instructions: 680000000 cycles: 919214671 heartbeat IPC: 0.685635 cumulative IPC: 0.590982 (Simulation time: 2 hr 44 min 21 sec) 
Heartbeat CPU 3 instructions: 780000000 cycles: 925965964 heartbeat IPC: 0.686998 cumulative IPC: 0.674925 (Simulation time: 2 hr 45 min 20 sec) 
Heartbeat CPU 2 instructions: 480000000 cycles: 931780650 heartbeat IPC: 0.329327 cumulative IPC: 0.348097 (Simulation time: 2 hr 46 min 12 sec) 
Heartbeat CPU 0 instructions: 690000002 cycles: 933525468 heartbeat IPC: 0.698773 cumulative IPC: 0.592896 (Simulation time: 2 hr 46 min 28 sec) 
Heartbeat CPU 1 instructions: 750000000 cycles: 933796816 heartbeat IPC: 0.592343 cumulative IPC: 0.551678 (Simulation time: 2 hr 46 min 30 sec) 
Heartbeat CPU 3 instructions: 790000002 cycles: 940528264 heartbeat IPC: 0.686705 cumulative IPC: 0.675136 (Simulation time: 2 hr 47 min 35 sec) 
Heartbeat CPU 1 instructions: 760000000 cycles: 950665654 heartbeat IPC: 0.592809 cumulative IPC: 0.55252 (Simulation time: 2 hr 48 min 57 sec) 
Heartbeat CPU 0 instructions: 700000000 cycles: 951496510 heartbeat IPC: 0.556451 cumulative IPC: 0.592101 (Simulation time: 2 hr 49 min 4 sec) 
Heartbeat CPU 3 instructions: 800000000 cycles: 955253381 heartbeat IPC: 0.679112 cumulative IPC: 0.675207 (Simulation time: 2 hr 49 min 33 sec) 
Heartbeat CPU 2 instructions: 490000000 cycles: 961973073 heartbeat IPC: 0.331209 cumulative IPC: 0.347486 (Simulation time: 2 hr 50 min 27 sec) 
Heartbeat CPU 1 instructions: 770000002 cycles: 967521914 heartbeat IPC: 0.593252 cumulative IPC: 0.553338 (Simulation time: 2 hr 51 min 11 sec) 
Heartbeat CPU 3 instructions: 810000000 cycles: 969972520 heartbeat IPC: 0.679388 cumulative IPC: 0.67528 (Simulation time: 2 hr 51 min 31 sec) 
Heartbeat CPU 0 instructions: 710000000 cycles: 978271530 heartbeat IPC: 0.373482 cumulative IPC: 0.585221 (Simulation time: 2 hr 52 min 35 sec) 
Heartbeat CPU 1 instructions: 780000000 cycles: 984373556 heartbeat IPC: 0.593414 cumulative IPC: 0.554126 (Simulation time: 2 hr 53 min 24 sec) 
Heartbeat CPU 3 instructions: 820000000 cycles: 984773166 heartbeat IPC: 0.675646 cumulative IPC: 0.675286 (Simulation time: 2 hr 53 min 27 sec) 
Heartbeat CPU 2 instructions: 500000000 cycles: 991839277 heartbeat IPC: 0.334827 cumulative IPC: 0.347048 (Simulation time: 2 hr 54 min 24 sec) 
Heartbeat CPU 3 instructions: 830000002 cycles: 999550152 heartbeat IPC: 0.676728 cumulative IPC: 0.675311 (Simulation time: 2 hr 55 min 23 sec) 
Heartbeat CPU 1 instructions: 790000002 cycles: 1001212057 heartbeat IPC: 0.593877 cumulative IPC: 0.554892 (Simulation time: 2 hr 55 min 37 sec) 
Heartbeat CPU 0 instructions: 720000000 cycles: 1003776252 heartbeat IPC: 0.392084 cumulative IPC: 0.579601 (Simulation time: 2 hr 55 min 57 sec) 
Heartbeat CPU 3 instructions: 840000000 cycles: 1014415806 heartbeat IPC: 0.672691 cumulative IPC: 0.675267 (Simulation time: 2 hr 57 min 24 sec) 
Heartbeat CPU 2 instructions: 510000000 cycles: 1017514682 heartbeat IPC: 0.389478 cumulative IPC: 0.348272 (Simulation time: 2 hr 57 min 52 sec) 
Heartbeat CPU 1 instructions: 800000000 cycles: 1018036324 heartbeat IPC: 0.594379 cumulative IPC: 0.555638 (Simulation time: 2 hr 57 min 57 sec) 
Heartbeat CPU 0 instructions: 730000003 cycles: 1023237098 heartbeat IPC: 0.513852 cumulative IPC: 0.578172 (Simulation time: 2 hr 58 min 44 sec) 
Heartbeat CPU 3 instructions: 850000001 cycles: 1029101702 heartbeat IPC: 0.680925 cumulative IPC: 0.675359 (Simulation time: 2 hr 59 min 39 sec) 
Heartbeat CPU 1 instructions: 810000002 cycles: 1034855850 heartbeat IPC: 0.594547 cumulative IPC: 0.556359 (Simulation time: 3 hr 0 min 36 sec) 
Heartbeat CPU 0 instructions: 740000000 cycles: 1035469574 heartbeat IPC: 0.817496 cumulative IPC: 0.581396 (Simulation time: 3 hr 0 min 41 sec) 
Heartbeat CPU 2 instructions: 520000000 cycles: 1042864910 heartbeat IPC: 0.394474 cumulative IPC: 0.349552 (Simulation time: 3 hr 1 min 49 sec) 
Heartbeat CPU 3 instructions: 860000000 cycles: 1043775457 heartbeat IPC: 0.681489 cumulative IPC: 0.675457 (Simulation time: 3 hr 1 min 57 sec) 
Heartbeat CPU 0 instructions: 750000002 cycles: 1049927460 heartbeat IPC: 0.691664 cumulative IPC: 0.583124 (Simulation time: 3 hr 2 min 53 sec) 
Heartbeat CPU 1 instructions: 820000000 cycles: 1051656378 heartbeat IPC: 0.595219 cumulative IPC: 0.557065 (Simulation time: 3 hr 3 min 14 sec) 
Heartbeat CPU 3 instructions: 870000001 cycles: 1058436066 heartbeat IPC: 0.6821 cumulative IPC: 0.675562 (Simulation time: 3 hr 4 min 27 sec) 
Heartbeat CPU 0 instructions: 760000000 cycles: 1063187810 heartbeat IPC: 0.754128 cumulative IPC: 0.585548 (Simulation time: 3 hr 5 min 17 sec) 
Heartbeat CPU 1 instructions: 830000000 cycles: 1068466444 heartbeat IPC: 0.594882 cumulative IPC: 0.557741 (Simulation time: 3 hr 6 min 15 sec) 
Heartbeat CPU 2 instructions: 530000001 cycles: 1072110177 heartbeat IPC: 0.341936 cumulative IPC: 0.349316 (Simulation time: 3 hr 6 min 55 sec) 
Heartbeat CPU 3 instructions: 880000000 cycles: 1073090240 heartbeat IPC: 0.682399 cumulative IPC: 0.675668 (Simulation time: 3 hr 7 min 5 sec) 
Heartbeat CPU 0 instructions: 770000002 cycles: 1075960245 heartbeat IPC: 0.782936 cumulative IPC: 0.588205 (Simulation time: 3 hr 7 min 39 sec) 
Heartbeat CPU 1 instructions: 840000000 cycles: 1085261323 heartbeat IPC: 0.59542 cumulative IPC: 0.558401 (Simulation time: 3 hr 9 min 17 sec) 
Heartbeat CPU 3 instructions: 890000003 cycles: 1087679730 heartbeat IPC: 0.685425 cumulative IPC: 0.675816 (Simulation time: 3 hr 9 min 40 sec) 
Heartbeat CPU 0 instructions: 780000000 cycles: 1088263947 heartbeat IPC: 0.812763 cumulative IPC: 0.591081 (Simulation time: 3 hr 9 min 46 sec) 
Heartbeat CPU 2 instructions: 540000000 cycles: 1100065688 heartbeat IPC: 0.357711 cumulative IPC: 0.349557 (Simulation time: 3 hr 11 min 37 sec) 
Heartbeat CPU 0 instructions: 790000000 cycles: 1101016284 heartbeat IPC: 0.78417 cumulative IPC: 0.59361 (Simulation time: 3 hr 11 min 46 sec) 
Heartbeat CPU 1 instructions: 850000002 cycles: 1102044454 heartbeat IPC: 0.595837 cumulative IPC: 0.559046 (Simulation time: 3 hr 11 min 55 sec) 
Heartbeat CPU 3 instructions: 900000000 cycles: 1102280854 heartbeat IPC: 0.684879 cumulative IPC: 0.675952 (Simulation time: 3 hr 11 min 57 sec) 
Heartbeat CPU 0 instructions: 800000000 cycles: 1114740241 heartbeat IPC: 0.728653 cumulative IPC: 0.595487 (Simulation time: 3 hr 13 min 46 sec) 
Heartbeat CPU 3 instructions: 910000002 cycles: 1116840555 heartbeat IPC: 0.686827 cumulative IPC: 0.676112 (Simulation time: 3 hr 14 min 5 sec) 
Heartbeat CPU 1 instructions: 860000000 cycles: 1118936197 heartbeat IPC: 0.592005 cumulative IPC: 0.559608 (Simulation time: 3 hr 14 min 24 sec) 
Heartbeat CPU 0 instructions: 810000000 cycles: 1127518740 heartbeat IPC: 0.782565 cumulative IPC: 0.597877 (Simulation time: 3 hr 15 min 39 sec) 
Heartbeat CPU 2 instructions: 550000000 cycles: 1129406782 heartbeat IPC: 0.340819 cumulative IPC: 0.349301 (Simulation time: 3 hr 15 min 56 sec) 
Heartbeat CPU 3 instructions: 920000000 cycles: 1131353543 heartbeat IPC: 0.689038 cumulative IPC: 0.676298 (Simulation time: 3 hr 16 min 15 sec) 
Heartbeat CPU 1 instructions: 870000000 cycles: 1135895619 heartbeat IPC: 0.589643 cumulative IPC: 0.560113 (Simulation time: 3 hr 16 min 54 sec) 
Heartbeat CPU 0 instructions: 820000000 cycles: 1141944428 heartbeat IPC: 0.693208 cumulative IPC: 0.599233 (Simulation time: 3 hr 17 min 46 sec) 
Heartbeat CPU 3 instructions: 930000000 cycles: 1146047006 heartbeat IPC: 0.680575 cumulative IPC: 0.67636 (Simulation time: 3 hr 18 min 20 sec) 
Heartbeat CPU 2 instructions: 560000000 cycles: 1150836767 heartbeat IPC: 0.466636 cumulative IPC: 0.351758 (Simulation time: 3 hr 19 min 3 sec) 
Heartbeat CPU 1 instructions: 880000000 cycles: 1152846800 heartbeat IPC: 0.589929 cumulative IPC: 0.560606 (Simulation time: 3 hr 19 min 20 sec) 
Heartbeat CPU 0 instructions: 830000000 cycles: 1156881294 heartbeat IPC: 0.669484 cumulative IPC: 0.600252 (Simulation time: 3 hr 19 min 55 sec) 
Heartbeat CPU 3 instructions: 940000000 cycles: 1160652464 heartbeat IPC: 0.684676 cumulative IPC: 0.676478 (Simulation time: 3 hr 20 min 31 sec) 
Heartbeat CPU 1 instructions: 890000001 cycles: 1169791523 heartbeat IPC: 0.590154 cumulative IPC: 0.561086 (Simulation time: 3 hr 21 min 48 sec) 
Heartbeat CPU 0 instructions: 840000000 cycles: 1170404686 heartbeat IPC: 0.739459 cumulative IPC: 0.602057 (Simulation time: 3 hr 21 min 54 sec) 
Heartbeat CPU 3 instructions: 950000002 cycles: 1175388184 heartbeat IPC: 0.678623 cumulative IPC: 0.676508 (Simulation time: 3 hr 22 min 37 sec) 
Heartbeat CPU 2 instructions: 570000001 cycles: 1177512341 heartbeat IPC: 0.374875 cumulative IPC: 0.352345 (Simulation time: 3 hr 22 min 55 sec) 
Heartbeat CPU 0 instructions: 850000003 cycles: 1184355307 heartbeat IPC: 0.716814 cumulative IPC: 0.603572 (Simulation time: 3 hr 23 min 53 sec) 
Heartbeat CPU 1 instructions: 900000000 cycles: 1186730851 heartbeat IPC: 0.590342 cumulative IPC: 0.561554 (Simulation time: 3 hr 24 min 14 sec) 
Heartbeat CPU 3 instructions: 960000000 cycles: 1189984788 heartbeat IPC: 0.685091 cumulative IPC: 0.676626 (Simulation time: 3 hr 24 min 42 sec) 
Heartbeat CPU 0 instructions: 860000000 cycles: 1199136074 heartbeat IPC: 0.676555 cumulative IPC: 0.604578 (Simulation time: 3 hr 26 min 5 sec) 
Heartbeat CPU 1 instructions: 910000003 cycles: 1203653375 heartbeat IPC: 0.590929 cumulative IPC: 0.562016 (Simulation time: 3 hr 26 min 46 sec) 
Heartbeat CPU 3 instructions: 970000000 cycles: 1204663059 heartbeat IPC: 0.681279 cumulative IPC: 0.676689 (Simulation time: 3 hr 26 min 56 sec) 
Heartbeat CPU 2 instructions: 580000000 cycles: 1208537034 heartbeat IPC: 0.322324 cumulative IPC: 0.351484 (Simulation time: 3 hr 27 min 31 sec) 
Heartbeat CPU 0 instructions: 870000001 cycles: 1212394291 heartbeat IPC: 0.754249 cumulative IPC: 0.606407 (Simulation time: 3 hr 28 min 6 sec) 
Heartbeat CPU 3 instructions: 980000000 cycles: 1219306468 heartbeat IPC: 0.682901 cumulative IPC: 0.676773 (Simulation time: 3 hr 29 min 11 sec) 
Heartbeat CPU 1 instructions: 920000000 cycles: 1220575577 heartbeat IPC: 0.590939 cumulative IPC: 0.562463 (Simulation time: 3 hr 29 min 23 sec) 
Heartbeat CPU 0 instructions: 880000000 cycles: 1226406621 heartbeat IPC: 0.713657 cumulative IPC: 0.607775 (Simulation time: 3 hr 30 min 12 sec) 
Heartbeat CPU 3 instructions: 990000003 cycles: 1233859240 heartbeat IPC: 0.687155 cumulative IPC: 0.676909 (Simulation time: 3 hr 31 min 14 sec) 
Heartbeat CPU 1 instructions: 930000000 cycles: 1237480541 heartbeat IPC: 0.591542 cumulative IPC: 0.562906 (Simulation time: 3 hr 31 min 46 sec) 
Heartbeat CPU 2 instructions: 590000000 cycles: 1238805736 heartbeat IPC: 0.330374 cumulative IPC: 0.350909 (Simulation time: 3 hr 31 min 57 sec) 
Heartbeat CPU 0 instructions: 890000003 cycles: 1241123450 heartbeat IPC: 0.679494 cumulative IPC: 0.608722 (Simulation time: 3 hr 32 min 18 sec) 
Heartbeat CPU 3 instructions: 1000000000 cycles: 1248501674 heartbeat IPC: 0.682946 cumulative IPC: 0.676988 (Simulation time: 3 hr 33 min 22 sec) 
Heartbeat CPU 0 instructions: 900000000 cycles: 1254226339 heartbeat IPC: 0.76319 cumulative IPC: 0.610519 (Simulation time: 3 hr 34 min 12 sec) 
Heartbeat CPU 1 instructions: 940000000 cycles: 1254375128 heartbeat IPC: 0.591906 cumulative IPC: 0.563341 (Simulation time: 3 hr 34 min 14 sec) 
Heartbeat CPU 3 instructions: 1010000000 cycles: 1263102965 heartbeat IPC: 0.684871 cumulative IPC: 0.677089 (Simulation time: 3 hr 35 min 30 sec) 
Heartbeat CPU 2 instructions: 600000000 cycles: 1268482772 heartbeat IPC: 0.336961 cumulative IPC: 0.350546 (Simulation time: 3 hr 36 min 11 sec) 
Heartbeat CPU 1 instructions: 950000001 cycles: 1271272271 heartbeat IPC: 0.591816 cumulative IPC: 0.563761 (Simulation time: 3 hr 36 min 33 sec) 
Heartbeat CPU 0 instructions: 910000001 cycles: 1271805172 heartbeat IPC: 0.568866 cumulative IPC: 0.609879 (Simulation time: 3 hr 36 min 36 sec) 
Heartbeat CPU 3 instructions: 1020000000 cycles: 1277953078 heartbeat IPC: 0.673396 cumulative IPC: 0.677042 (Simulation time: 3 hr 37 min 26 sec) 
Heartbeat CPU 1 instructions: 960000000 cycles: 1288159763 heartbeat IPC: 0.592154 cumulative IPC: 0.564175 (Simulation time: 3 hr 38 min 40 sec) 
Heartbeat CPU 3 instructions: 1030000002 cycles: 1292711129 heartbeat IPC: 0.677596 cumulative IPC: 0.677049 (Simulation time: 3 hr 39 min 13 sec) 
Heartbeat CPU 0 instructions: 920000000 cycles: 1297018827 heartbeat IPC: 0.39661 cumulative IPC: 0.605281 (Simulation time: 3 hr 39 min 44 sec) 
Heartbeat CPU 2 instructions: 610000000 cycles: 1299547832 heartbeat IPC: 0.321905 cumulative IPC: 0.349787 (Simulation time: 3 hr 40 min 4 sec) 
Heartbeat CPU 1 instructions: 970000001 cycles: 1305043313 heartbeat IPC: 0.592293 cumulative IPC: 0.564578 (Simulation time: 3 hr 40 min 46 sec) 
Heartbeat CPU 3 instructions: 1040000000 cycles: 1307563199 heartbeat IPC: 0.673307 cumulative IPC: 0.677002 (Simulation time: 3 hr 41 min 4 sec) 
Heartbeat CPU 1 instructions: 980000000 cycles: 1321917396 heartbeat IPC: 0.592625 cumulative IPC: 0.564974 (Simulation time: 3 hr 42 min 55 sec) 
Heartbeat CPU 3 instructions: 1050000002 cycles: 1322350627 heartbeat IPC: 0.67625 cumulative IPC: 0.676992 (Simulation time: 3 hr 42 min 59 sec) 
Heartbeat CPU 0 instructions: 930000000 cycles: 1322525486 heartbeat IPC: 0.392054 cumulative IPC: 0.60073 (Simulation time: 3 hr 43 min 0 sec) 
Heartbeat CPU 2 instructions: 620000000 cycles: 1325108548 heartbeat IPC: 0.391225 cumulative IPC: 0.350671 (Simulation time: 3 hr 43 min 20 sec) 
Heartbeat CPU 3 instructions: 1060000000 cycles: 1337312948 heartbeat IPC: 0.668345 cumulative IPC: 0.676885 (Simulation time: 3 hr 44 min 53 sec) 
Heartbeat CPU 1 instructions: 990000000 cycles: 1338791208 heartbeat IPC: 0.592634 cumulative IPC: 0.565359 (Simulation time: 3 hr 45 min 5 sec) 
Heartbeat CPU 0 instructions: 940000000 cycles: 1345477769 heartbeat IPC: 0.435686 cumulative IPC: 0.597621 (Simulation time: 3 hr 45 min 59 sec) 
Heartbeat CPU 2 instructions: 630000000 cycles: 1350854607 heartbeat IPC: 0.388409 cumulative IPC: 0.351466 (Simulation time: 3 hr 46 min 45 sec) 
Heartbeat CPU 3 instructions: 1070000000 cycles: 1352221739 heartbeat IPC: 0.670745 cumulative IPC: 0.676811 (Simulation time: 3 hr 46 min 57 sec) 
Heartbeat CPU 1 instructions: 1000000000 cycles: 1355648515 heartbeat IPC: 0.593215 cumulative IPC: 0.565741 (Simulation time: 3 hr 47 min 27 sec) 
Heartbeat CPU 0 instructions: 950000002 cycles: 1359167307 heartbeat IPC: 0.730485 cumulative IPC: 0.599097 (Simulation time: 3 hr 47 min 59 sec) 
Heartbeat CPU 3 instructions: 1080000000 cycles: 1366761567 heartbeat IPC: 0.687766 cumulative IPC: 0.676939 (Simulation time: 3 hr 49 min 5 sec) 
Heartbeat CPU 0 instructions: 960000000 cycles: 1371316007 heartbeat IPC: 0.823133 cumulative IPC: 0.601285 (Simulation time: 3 hr 49 min 48 sec) 
Heartbeat CPU 1 instructions: 1010000000 cycles: 1372501308 heartbeat IPC: 0.593373 cumulative IPC: 0.566115 (Simulation time: 3 hr 50 min 0 sec) 
Heartbeat CPU 2 instructions: 640000000 cycles: 1381234990 heartbeat IPC: 0.32916 cumulative IPC: 0.350925 (Simulation time: 3 hr 51 min 18 sec) 
Heartbeat CPU 3 instructions: 1090000000 cycles: 1381254198 heartbeat IPC: 0.690006 cumulative IPC: 0.67709 (Simulation time: 3 hr 51 min 18 sec) 
Heartbeat CPU 0 instructions: 970000003 cycles: 1384902353 heartbeat IPC: 0.736033 cumulative IPC: 0.602741 (Simulation time: 3 hr 51 min 49 sec) 
Heartbeat CPU 1 instructions: 1020000000 cycles: 1389356276 heartbeat IPC: 0.593297 cumulative IPC: 0.566479 (Simulation time: 3 hr 52 min 28 sec) 
Heartbeat CPU 3 instructions: 1100000000 cycles: 1396029273 heartbeat IPC: 0.676816 cumulative IPC: 0.677087 (Simulation time: 3 hr 53 min 26 sec) 
Heartbeat CPU 0 instructions: 980000000 cycles: 1398736995 heartbeat IPC: 0.722823 cumulative IPC: 0.604048 (Simulation time: 3 hr 53 min 50 sec) 
Heartbeat CPU 1 instructions: 1030000001 cycles: 1406190267 heartbeat IPC: 0.594036 cumulative IPC: 0.566841 (Simulation time: 3 hr 54 min 59 sec) 
Heartbeat CPU 2 instructions: 650000002 cycles: 1408956085 heartbeat IPC: 0.360736 cumulative IPC: 0.351137 (Simulation time: 3 hr 55 min 23 sec) 
Heartbeat CPU 3 instructions: 1110000000 cycles: 1410690814 heartbeat IPC: 0.682057 cumulative IPC: 0.677144 (Simulation time: 3 hr 55 min 38 sec) 
Heartbeat CPU 0 instructions: 990000001 cycles: 1411898336 heartbeat IPC: 0.759801 cumulative IPC: 0.605644 (Simulation time: 3 hr 55 min 49 sec) 
Heartbeat CPU 1 instructions: 1040000000 cycles: 1423032246 heartbeat IPC: 0.593754 cumulative IPC: 0.567191 (Simulation time: 3 hr 57 min 24 sec) 
Heartbeat CPU 3 instructions: 1120000000 cycles: 1425461243 heartbeat IPC: 0.677028 cumulative IPC: 0.677142 (Simulation time: 3 hr 57 min 45 sec) 
Heartbeat CPU 0 instructions: 1000000000 cycles: 1425491136 heartbeat IPC: 0.735684 cumulative IPC: 0.607005 (Simulation time: 3 hr 57 min 45 sec) 
Heartbeat CPU 0 instructions: 1010000001 cycles: 1435577343 heartbeat IPC: 0.991453 cumulative IPC: 0.60997 (Simulation time: 3 hr 59 min 24 sec) 
Heartbeat CPU 1 instructions: 1050000002 cycles: 1439870139 heartbeat IPC: 0.593899 cumulative IPC: 0.567534 (Simulation time: 4 hr 0 min 4 sec) 
Heartbeat CPU 2 instructions: 660000000 cycles: 1439912599 heartbeat IPC: 0.323034 cumulative IPC: 0.350475 (Simulation time: 4 hr 0 min 4 sec) 
Heartbeat CPU 3 instructions: 1130000000 cycles: 1440136079 heartbeat IPC: 0.681439 cumulative IPC: 0.67719 (Simulation time: 4 hr 0 min 6 sec) 
Heartbeat CPU 0 instructions: 1020000000 cycles: 1448625714 heartbeat IPC: 0.766379 cumulative IPC: 0.611514 (Simulation time: 4 hr 1 min 24 sec) 
Heartbeat CPU 3 instructions: 1140000000 cycles: 1454682435 heartbeat IPC: 0.687457 cumulative IPC: 0.677303 (Simulation time: 4 hr 2 min 21 sec) 
Heartbeat CPU 1 instructions: 1060000000 cycles: 1456693874 heartbeat IPC: 0.594398 cumulative IPC: 0.567874 (Simulation time: 4 hr 2 min 41 sec) 
Heartbeat CPU 0 instructions: 1030000002 cycles: 1461092886 heartbeat IPC: 0.802107 cumulative IPC: 0.613296 (Simulation time: 4 hr 3 min 23 sec) 
Heartbeat CPU 2 instructions: 670000000 cycles: 1467784784 heartbeat IPC: 0.358781 cumulative IPC: 0.350647 (Simulation time: 4 hr 4 min 26 sec) 
Heartbeat CPU 3 instructions: 1150000001 cycles: 1469426872 heartbeat IPC: 0.678222 cumulative IPC: 0.677313 (Simulation time: 4 hr 4 min 40 sec) 
Heartbeat CPU 1 instructions: 1070000000 cycles: 1473518661 heartbeat IPC: 0.594361 cumulative IPC: 0.568205 (Simulation time: 4 hr 5 min 17 sec) 
Heartbeat CPU 0 instructions: 1040000000 cycles: 1474509679 heartbeat IPC: 0.745334 cumulative IPC: 0.614611 (Simulation time: 4 hr 5 min 26 sec) 
Heartbeat CPU 3 instructions: 1160000000 cycles: 1484108082 heartbeat IPC: 0.681143 cumulative IPC: 0.677355 (Simulation time: 4 hr 6 min 52 sec) 
Heartbeat CPU 0 instructions: 1050000001 cycles: 1487628834 heartbeat IPC: 0.762244 cumulative IPC: 0.616035 (Simulation time: 4 hr 7 min 25 sec) 
Heartbeat CPU 1 instructions: 1080000000 cycles: 1490337261 heartbeat IPC: 0.59458 cumulative IPC: 0.56853 (Simulation time: 4 hr 7 min 51 sec) 
Heartbeat CPU 2 instructions: 680000000 cycles: 1496258907 heartbeat IPC: 0.351196 cumulative IPC: 0.350659 (Simulation time: 4 hr 8 min 45 sec) 
Heartbeat CPU 3 instructions: 1170000000 cycles: 1498772603 heartbeat IPC: 0.681918 cumulative IPC: 0.677403 (Simulation time: 4 hr 9 min 10 sec) 
Heartbeat CPU 0 instructions: 1060000000 cycles: 1500185187 heartbeat IPC: 0.796409 cumulative IPC: 0.617685 (Simulation time: 4 hr 9 min 27 sec) 
Heartbeat CPU 1 instructions: 1090000002 cycles: 1507152122 heartbeat IPC: 0.594712 cumulative IPC: 0.568849 (Simulation time: 4 hr 10 min 49 sec) 
Heartbeat CPU 0 instructions: 1070000001 cycles: 1512464419 heartbeat IPC: 0.814383 cumulative IPC: 0.619429 (Simulation time: 4 hr 11 min 51 sec) 
Heartbeat CPU 3 instructions: 1180000000 cycles: 1513357571 heartbeat IPC: 0.685637 cumulative IPC: 0.67749 (Simulation time: 4 hr 11 min 59 sec) 
Heartbeat CPU 1 instructions: 1100000000 cycles: 1523960918 heartbeat IPC: 0.594926 cumulative IPC: 0.569163 (Simulation time: 4 hr 13 min 32 sec) 
Heartbeat CPU 0 instructions: 1080000000 cycles: 1527619729 heartbeat IPC: 0.659835 cumulative IPC: 0.619866 (Simulation time: 4 hr 14 min 5 sec) 
Heartbeat CPU 3 instructions: 1190000003 cycles: 1527983235 heartbeat IPC: 0.68373 cumulative IPC: 0.677555 (Simulation time: 4 hr 14 min 8 sec) 
Heartbeat CPU 2 instructions: 690000002 cycles: 1528055186 heartbeat IPC: 0.314502 cumulative IPC: 0.349838 (Simulation time: 4 hr 14 min 9 sec) 
Heartbeat CPU 1 instructions: 1110000003 cycles: 1540769700 heartbeat IPC: 0.594927 cumulative IPC: 0.56947 (Simulation time: 4 hr 16 min 6 sec) 
Heartbeat CPU 0 instructions: 1090000002 cycles: 1542399365 heartbeat IPC: 0.676607 cumulative IPC: 0.620459 (Simulation time: 4 hr 16 min 20 sec) 
Heartbeat CPU 3 instructions: 1200000000 cycles: 1542705231 heartbeat IPC: 0.679256 cumulative IPC: 0.677573 (Simulation time: 4 hr 16 min 23 sec) 
Heartbeat CPU 0 instructions: 1100000000 cycles: 1555597639 heartbeat IPC: 0.757675 cumulative IPC: 0.621727 (Simulation time: 4 hr 18 min 20 sec) 
Heartbeat CPU 3 instructions: 1210000001 cycles: 1557393086 heartbeat IPC: 0.680835 cumulative IPC: 0.677606 (Simulation time: 4 hr 18 min 37 sec) 
Heartbeat CPU 1 instructions: 1120000000 cycles: 1557565800 heartbeat IPC: 0.595376 cumulative IPC: 0.569774 (Simulation time: 4 hr 18 min 39 sec) 
Heartbeat CPU 2 instructions: 700000000 cycles: 1558233697 heartbeat IPC: 0.331362 cumulative IPC: 0.349448 (Simulation time: 4 hr 18 min 45 sec) 
Heartbeat CPU 0 instructions: 1110000000 cycles: 1569610602 heartbeat IPC: 0.713625 cumulative IPC: 0.62262 (Simulation time: 4 hr 20 min 24 sec) 
Heartbeat CPU 3 instructions: 1220000000 cycles: 1572086133 heartbeat IPC: 0.680594 cumulative IPC: 0.677637 (Simulation time: 4 hr 20 min 47 sec) 
Heartbeat CPU 1 instructions: 1130000002 cycles: 1574363195 heartbeat IPC: 0.595331 cumulative IPC: 0.570071 (Simulation time: 4 hr 21 min 8 sec) 
Heartbeat CPU 0 instructions: 1120000000 cycles: 1582998657 heartbeat IPC: 0.746934 cumulative IPC: 0.623763 (Simulation time: 4 hr 22 min 26 sec) 
Heartbeat CPU 3 instructions: 1230000002 cycles: 1586669247 heartbeat IPC: 0.685725 cumulative IPC: 0.677718 (Simulation time: 4 hr 22 min 59 sec) 
Heartbeat CPU 2 instructions: 710000000 cycles: 1588430515 heartbeat IPC: 0.331161 cumulative IPC: 0.34907 (Simulation time: 4 hr 23 min 15 sec) 
Heartbeat CPU 1 instructions: 1140000000 cycles: 1591151682 heartbeat IPC: 0.595646 cumulative IPC: 0.570364 (Simulation time: 4 hr 23 min 39 sec) 
Heartbeat CPU 0 instructions: 1130000000 cycles: 1597861560 heartbeat IPC: 0.672816 cumulative IPC: 0.624259 (Simulation time: 4 hr 24 min 39 sec) 
Heartbeat CPU 3 instructions: 1240000000 cycles: 1601341814 heartbeat IPC: 0.681544 cumulative IPC: 0.677756 (Simulation time: 4 hr 25 min 10 sec) 
Finished CPU 3 instructions: 1000000001 cycles: 1475416068 cumulative IPC: 0.677775 (Simulation time: 4 hr 25 min 23 sec) 
Heartbeat CPU 1 instructions: 1150000003 cycles: 1607934808 heartbeat IPC: 0.595837 cumulative IPC: 0.570653 (Simulation time: 4 hr 26 min 9 sec) 
Heartbeat CPU 0 instructions: 1140000000 cycles: 1611654988 heartbeat IPC: 0.724983 cumulative IPC: 0.625195 (Simulation time: 4 hr 26 min 43 sec) 
Heartbeat CPU 3 instructions: 1250000000 cycles: 1615987662 heartbeat IPC: 0.682787 cumulative IPC: 0.677805 (Simulation time: 4 hr 27 min 23 sec) 
Heartbeat CPU 2 instructions: 720000000 cycles: 1619635242 heartbeat IPC: 0.320464 cumulative IPC: 0.348472 (Simulation time: 4 hr 27 min 57 sec) 
Heartbeat CPU 0 instructions: 1150000001 cycles: 1624108960 heartbeat IPC: 0.802957 cumulative IPC: 0.626674 (Simulation time: 4 hr 28 min 39 sec) 
Heartbeat CPU 1 instructions: 1160000000 cycles: 1624723271 heartbeat IPC: 0.595647 cumulative IPC: 0.570933 (Simulation time: 4 hr 28 min 44 sec) 
Heartbeat CPU 3 instructions: 1260000000 cycles: 1630508759 heartbeat IPC: 0.688653 cumulative IPC: 0.67791 (Simulation time: 4 hr 29 min 37 sec) 
Heartbeat CPU 0 instructions: 1160000000 cycles: 1637999649 heartbeat IPC: 0.719907 cumulative IPC: 0.627531 (Simulation time: 4 hr 30 min 46 sec) 
Heartbeat CPU 1 instructions: 1170000002 cycles: 1641495817 heartbeat IPC: 0.596213 cumulative IPC: 0.571213 (Simulation time: 4 hr 31 min 20 sec) 
Heartbeat CPU 3 instructions: 1270000002 cycles: 1645185877 heartbeat IPC: 0.681333 cumulative IPC: 0.677943 (Simulation time: 4 hr 31 min 52 sec) 
Heartbeat CPU 2 instructions: 730000000 cycles: 1649545479 heartbeat IPC: 0.334334 cumulative IPC: 0.348194 (Simulation time: 4 hr 32 min 31 sec) 
Heartbeat CPU 0 instructions: 1170000000 cycles: 1651902197 heartbeat IPC: 0.719293 cumulative IPC: 0.628368 (Simulation time: 4 hr 32 min 52 sec) 
Heartbeat CPU 1 instructions: 1180000000 cycles: 1658280334 heartbeat IPC: 0.595787 cumulative IPC: 0.571482 (Simulation time: 4 hr 33 min 47 sec) 
Heartbeat CPU 3 instructions: 1280000000 cycles: 1659781864 heartbeat IPC: 0.68512 cumulative IPC: 0.678011 (Simulation time: 4 hr 34 min 1 sec) 
Heartbeat CPU 0 instructions: 1180000000 cycles: 1665194334 heartbeat IPC: 0.752324 cumulative IPC: 0.62944 (Simulation time: 4 hr 34 min 53 sec) 
Heartbeat CPU 3 instructions: 1290000001 cycles: 1674306775 heartbeat IPC: 0.688472 cumulative IPC: 0.67811 (Simulation time: 4 hr 36 min 15 sec) 
Heartbeat CPU 1 instructions: 1190000002 cycles: 1675179867 heartbeat IPC: 0.591732 cumulative IPC: 0.571703 (Simulation time: 4 hr 36 min 24 sec) 
Heartbeat CPU 2 instructions: 740000000 cycles: 1675838428 heartbeat IPC: 0.38033 cumulative IPC: 0.34874 (Simulation time: 4 hr 36 min 30 sec) 
Heartbeat CPU 0 instructions: 1190000000 cycles: 1678404065 heartbeat IPC: 0.757018 cumulative IPC: 0.630526 (Simulation time: 4 hr 36 min 54 sec) 
Heartbeat CPU 3 instructions: 1300000000 cycles: 1689030011 heartbeat IPC: 0.679198 cumulative IPC: 0.67812 (Simulation time: 4 hr 38 min 26 sec) 
Heartbeat CPU 0 instructions: 1200000000 cycles: 1691417191 heartbeat IPC: 0.768455 cumulative IPC: 0.631674 (Simulation time: 4 hr 38 min 49 sec) 
Heartbeat CPU 1 instructions: 1200000000 cycles: 1692075470 heartbeat IPC: 0.59187 cumulative IPC: 0.571921 (Simulation time: 4 hr 38 min 56 sec) 
Heartbeat CPU 2 instructions: 750000002 cycles: 1699676334 heartbeat IPC: 0.4195 cumulative IPC: 0.349813 (Simulation time: 4 hr 40 min 10 sec) 
Heartbeat CPU 3 instructions: 1310000000 cycles: 1703664668 heartbeat IPC: 0.683309 cumulative IPC: 0.678168 (Simulation time: 4 hr 40 min 47 sec) 
Heartbeat CPU 0 instructions: 1210000002 cycles: 1704570288 heartbeat IPC: 0.760277 cumulative IPC: 0.632746 (Simulation time: 4 hr 40 min 56 sec) 
Finished CPU 0 instructions: 1000000001 cycles: 1580314051 cumulative IPC: 0.632786 (Simulation time: 4 hr 41 min 25 sec) 
Heartbeat CPU 1 instructions: 1210000000 cycles: 1708966526 heartbeat IPC: 0.592029 cumulative IPC: 0.572136 (Simulation time: 4 hr 41 min 36 sec) 
Heartbeat CPU 3 instructions: 1320000000 cycles: 1718380422 heartbeat IPC: 0.679544 cumulative IPC: 0.678181 (Simulation time: 4 hr 42 min 55 sec) 
Heartbeat CPU 0 instructions: 1220000000 cycles: 1723719434 heartbeat IPC: 0.522216 cumulative IPC: 0.63142 (Simulation time: 4 hr 43 min 42 sec) 
Heartbeat CPU 2 instructions: 760000000 cycles: 1724303821 heartbeat IPC: 0.40605 cumulative IPC: 0.35068 (Simulation time: 4 hr 43 min 47 sec) 
Heartbeat CPU 1 instructions: 1220000000 cycles: 1725857501 heartbeat IPC: 0.592032 cumulative IPC: 0.572346 (Simulation time: 4 hr 44 min 1 sec) 
Heartbeat CPU 3 instructions: 1330000000 cycles: 1733204032 heartbeat IPC: 0.6746 cumulative IPC: 0.678148 (Simulation time: 4 hr 44 min 59 sec) 
Heartbeat CPU 1 instructions: 1230000000 cycles: 1742751981 heartbeat IPC: 0.591909 cumulative IPC: 0.572551 (Simulation time: 4 hr 46 min 13 sec) 
Heartbeat CPU 3 instructions: 1340000000 cycles: 1747987841 heartbeat IPC: 0.676416 cumulative IPC: 0.678132 (Simulation time: 4 hr 46 min 55 sec) 
Heartbeat CPU 0 instructions: 1230000002 cycles: 1749382519 heartbeat IPC: 0.389665 cumulative IPC: 0.627595 (Simulation time: 4 hr 47 min 6 sec) 
Heartbeat CPU 2 instructions: 770000002 cycles: 1753423371 heartbeat IPC: 0.343412 cumulative IPC: 0.35055 (Simulation time: 4 hr 47 min 39 sec) 
Heartbeat CPU 1 instructions: 1240000000 cycles: 1759633614 heartbeat IPC: 0.59236 cumulative IPC: 0.572756 (Simulation time: 4 hr 48 min 47 sec) 
Heartbeat CPU 3 instructions: 1350000002 cycles: 1762792795 heartbeat IPC: 0.67545 cumulative IPC: 0.678108 (Simulation time: 4 hr 49 min 17 sec) 
Heartbeat CPU 0 instructions: 1240000000 cycles: 1769606226 heartbeat IPC: 0.494469 cumulative IPC: 0.625956 (Simulation time: 4 hr 50 min 24 sec) 
Heartbeat CPU 1 instructions: 1250000000 cycles: 1776508878 heartbeat IPC: 0.592583 cumulative IPC: 0.572959 (Simulation time: 4 hr 51 min 22 sec) 
Heartbeat CPU 3 instructions: 1360000000 cycles: 1777516792 heartbeat IPC: 0.679163 cumulative IPC: 0.678117 (Simulation time: 4 hr 51 min 29 sec) 
Heartbeat CPU 2 instructions: 780000000 cycles: 1782386200 heartbeat IPC: 0.34527 cumulative IPC: 0.350457 (Simulation time: 4 hr 52 min 6 sec) 
Heartbeat CPU 3 instructions: 1370000003 cycles: 1792491633 heartbeat IPC: 0.667787 cumulative IPC: 0.678024 (Simulation time: 4 hr 53 min 26 sec) 
Heartbeat CPU 1 instructions: 1260000000 cycles: 1793377636 heartbeat IPC: 0.592812 cumulative IPC: 0.57316 (Simulation time: 4 hr 53 min 33 sec) 
Heartbeat CPU 0 instructions: 1250000001 cycles: 1795990789 heartbeat IPC: 0.37901 cumulative IPC: 0.622051 (Simulation time: 4 hr 53 min 55 sec) 
Heartbeat CPU 3 instructions: 1380000000 cycles: 1807229763 heartbeat IPC: 0.678512 cumulative IPC: 0.678028 (Simulation time: 4 hr 55 min 37 sec) 
Heartbeat CPU 0 instructions: 1260000000 cycles: 1809440441 heartbeat IPC: 0.743514 cumulative IPC: 0.623022 (Simulation time: 4 hr 55 min 58 sec) 
Heartbeat CPU 1 instructions: 1270000000 cycles: 1810247970 heartbeat IPC: 0.592757 cumulative IPC: 0.573356 (Simulation time: 4 hr 56 min 5 sec) 
Heartbeat CPU 2 instructions: 790000000 cycles: 1811499054 heartbeat IPC: 0.343491 cumulative IPC: 0.350337 (Simulation time: 4 hr 56 min 16 sec) 
Heartbeat CPU 3 instructions: 1390000003 cycles: 1821896421 heartbeat IPC: 0.681819 cumulative IPC: 0.678061 (Simulation time: 4 hr 57 min 53 sec) 
Heartbeat CPU 0 instructions: 1270000003 cycles: 1822398609 heartbeat IPC: 0.771714 cumulative IPC: 0.624159 (Simulation time: 4 hr 57 min 58 sec) 
Heartbeat CPU 1 instructions: 1280000000 cycles: 1827121925 heartbeat IPC: 0.592629 cumulative IPC: 0.573547 (Simulation time: 4 hr 58 min 42 sec) 
Heartbeat CPU 0 instructions: 1280000000 cycles: 1835666690 heartbeat IPC: 0.753688 cumulative IPC: 0.625165 (Simulation time: 5 hr 0 min 0 sec) 
Heartbeat CPU 3 instructions: 1400000000 cycles: 1836600952 heartbeat IPC: 0.680062 cumulative IPC: 0.678078 (Simulation time: 5 hr 0 min 9 sec) 
Heartbeat CPU 2 instructions: 800000000 cycles: 1841310446 heartbeat IPC: 0.335442 cumulative IPC: 0.350078 (Simulation time: 5 hr 0 min 52 sec) 
Heartbeat CPU 1 instructions: 1290000000 cycles: 1843984148 heartbeat IPC: 0.593042 cumulative IPC: 0.573739 (Simulation time: 5 hr 1 min 16 sec) 
Heartbeat CPU 0 instructions: 1290000000 cycles: 1849999845 heartbeat IPC: 0.697683 cumulative IPC: 0.625768 (Simulation time: 5 hr 2 min 11 sec) 
Heartbeat CPU 3 instructions: 1410000001 cycles: 1851243944 heartbeat IPC: 0.682921 cumulative IPC: 0.67812 (Simulation time: 5 hr 2 min 23 sec) 
Heartbeat CPU 1 instructions: 1300000000 cycles: 1860839737 heartbeat IPC: 0.593275 cumulative IPC: 0.573929 (Simulation time: 5 hr 3 min 49 sec) 
Heartbeat CPU 0 instructions: 1300000000 cycles: 1864454148 heartbeat IPC: 0.691836 cumulative IPC: 0.626318 (Simulation time: 5 hr 4 min 22 sec) 
Heartbeat CPU 3 instructions: 1420000000 cycles: 1865878301 heartbeat IPC: 0.683323 cumulative IPC: 0.678163 (Simulation time: 5 hr 4 min 35 sec) 
Finished CPU 1 instructions: 1000000002 cycles: 1742084711 cumulative IPC: 0.574025 (Simulation time: 5 hr 5 min 8 sec) 
Heartbeat CPU 2 instructions: 810000001 cycles: 1870940699 heartbeat IPC: 0.337493 cumulative IPC: 0.349864 (Simulation time: 5 hr 5 min 21 sec) 
Heartbeat CPU 1 instructions: 1310000002 cycles: 1877693140 heartbeat IPC: 0.593352 cumulative IPC: 0.574116 (Simulation time: 5 hr 6 min 24 sec) 
Heartbeat CPU 0 instructions: 1310000001 cycles: 1878577224 heartbeat IPC: 0.708061 cumulative IPC: 0.626977 (Simulation time: 5 hr 6 min 33 sec) 
Heartbeat CPU 3 instructions: 1430000002 cycles: 1880428739 heartbeat IPC: 0.687265 cumulative IPC: 0.678239 (Simulation time: 5 hr 6 min 50 sec) 
Heartbeat CPU 1 instructions: 1320000000 cycles: 1894547986 heartbeat IPC: 0.593301 cumulative IPC: 0.574299 (Simulation time: 5 hr 8 min 54 sec) 
Heartbeat CPU 0 instructions: 1320000000 cycles: 1895045443 heartbeat IPC: 0.60723 cumulative IPC: 0.626793 (Simulation time: 5 hr 8 min 58 sec) 
Heartbeat CPU 3 instructions: 1440000000 cycles: 1895159696 heartbeat IPC: 0.678842 cumulative IPC: 0.678244 (Simulation time: 5 hr 8 min 59 sec) 
Heartbeat CPU 2 instructions: 820000000 cycles: 1896862445 heartbeat IPC: 0.385776 cumulative IPC: 0.35039 (Simulation time: 5 hr 9 min 13 sec) 
Heartbeat CPU 3 instructions: 1450000001 cycles: 1909971361 heartbeat IPC: 0.675144 cumulative IPC: 0.678218 (Simulation time: 5 hr 10 min 58 sec) 
Heartbeat CPU 1 instructions: 1330000000 cycles: 1911397320 heartbeat IPC: 0.593495 cumulative IPC: 0.57448 (Simulation time: 5 hr 11 min 9 sec) 
Heartbeat CPU 0 instructions: 1330000002 cycles: 1919907427 heartbeat IPC: 0.402221 cumulative IPC: 0.623679 (Simulation time: 5 hr 12 min 19 sec) 
Heartbeat CPU 2 instructions: 830000000 cycles: 1924735688 heartbeat IPC: 0.358767 cumulative IPC: 0.35052 (Simulation time: 5 hr 12 min 58 sec) 
Heartbeat CPU 3 instructions: 1460000000 cycles: 1924940726 heartbeat IPC: 0.668031 cumulative IPC: 0.678133 (Simulation time: 5 hr 13 min 0 sec) 
Heartbeat CPU 1 instructions: 1340000000 cycles: 1928244594 heartbeat IPC: 0.593568 cumulative IPC: 0.574659 (Simulation time: 5 hr 13 min 25 sec) 
Heartbeat CPU 3 instructions: 1470000003 cycles: 1939833628 heartbeat IPC: 0.671461 cumulative IPC: 0.678079 (Simulation time: 5 hr 14 min 58 sec) 
Heartbeat CPU 1 instructions: 1350000002 cycles: 1945076911 heartbeat IPC: 0.594095 cumulative IPC: 0.574839 (Simulation time: 5 hr 15 min 40 sec) 
Heartbeat CPU 0 instructions: 1340000000 cycles: 1946269771 heartbeat IPC: 0.379329 cumulative IPC: 0.620137 (Simulation time: 5 hr 15 min 49 sec) 
Heartbeat CPU 2 instructions: 840000000 cycles: 1953806412 heartbeat IPC: 0.343989 cumulative IPC: 0.350416 (Simulation time: 5 hr 16 min 50 sec) 
Heartbeat CPU 3 instructions: 1480000000 cycles: 1954635511 heartbeat IPC: 0.67559 cumulative IPC: 0.678058 (Simulation time: 5 hr 16 min 57 sec) 
Heartbeat CPU 1 instructions: 1360000000 cycles: 1961913769 heartbeat IPC: 0.593935 cumulative IPC: 0.575014 (Simulation time: 5 hr 18 min 1 sec) 
Heartbeat CPU 0 instructions: 1350000000 cycles: 1964777152 heartbeat IPC: 0.540325 cumulative IPC: 0.619333 (Simulation time: 5 hr 18 min 30 sec) 
Heartbeat CPU 3 instructions: 1490000002 cycles: 1969336232 heartbeat IPC: 0.680239 cumulative IPC: 0.678076 (Simulation time: 5 hr 19 min 11 sec) 
Heartbeat CPU 2 instructions: 850000000 cycles: 1977663395 heartbeat IPC: 0.419164 cumulative IPC: 0.351303 (Simulation time: 5 hr 20 min 30 sec) 
Heartbeat CPU 1 instructions: 1370000002 cycles: 1978754185 heartbeat IPC: 0.59381 cumulative IPC: 0.575185 (Simulation time: 5 hr 20 min 41 sec) 
Heartbeat CPU 0 instructions: 1360000000 cycles: 1978921416 heartbeat IPC: 0.707 cumulative IPC: 0.620003 (Simulation time: 5 hr 20 min 43 sec) 
Heartbeat CPU 3 instructions: 1500000000 cycles: 1983929464 heartbeat IPC: 0.685249 cumulative IPC: 0.678132 (Simulation time: 5 hr 21 min 31 sec) 
Heartbeat CPU 0 instructions: 1370000001 cycles: 1992385207 heartbeat IPC: 0.742733 cumulative IPC: 0.620889 (Simulation time: 5 hr 22 min 50 sec) 
Heartbeat CPU 1 instructions: 1380000000 cycles: 1995588560 heartbeat IPC: 0.594023 cumulative IPC: 0.575355 (Simulation time: 5 hr 23 min 21 sec) 
Heartbeat CPU 3 instructions: 1510000000 cycles: 1998542109 heartbeat IPC: 0.684339 cumulative IPC: 0.678181 (Simulation time: 5 hr 23 min 50 sec) 
Heartbeat CPU 2 instructions: 860000000 cycles: 2003816552 heartbeat IPC: 0.382363 cumulative IPC: 0.351735 (Simulation time: 5 hr 24 min 40 sec) 
Heartbeat CPU 0 instructions: 1380000000 cycles: 2006240569 heartbeat IPC: 0.721742 cumulative IPC: 0.621633 (Simulation time: 5 hr 25 min 2 sec) 
Heartbeat CPU 1 instructions: 1390000002 cycles: 2012411247 heartbeat IPC: 0.594435 cumulative IPC: 0.575525 (Simulation time: 5 hr 25 min 57 sec) 
Heartbeat CPU 3 instructions: 1520000000 cycles: 2013143796 heartbeat IPC: 0.684852 cumulative IPC: 0.678232 (Simulation time: 5 hr 26 min 3 sec) 
Heartbeat CPU 0 instructions: 1390000001 cycles: 2020654557 heartbeat IPC: 0.693771 cumulative IPC: 0.622182 (Simulation time: 5 hr 27 min 11 sec) 
Heartbeat CPU 3 instructions: 1530000000 cycles: 2027825465 heartbeat IPC: 0.681121 cumulative IPC: 0.678255 (Simulation time: 5 hr 28 min 14 sec) 
Heartbeat CPU 1 instructions: 1400000000 cycles: 2029235434 heartbeat IPC: 0.594382 cumulative IPC: 0.575692 (Simulation time: 5 hr 28 min 26 sec) 
Heartbeat CPU 2 instructions: 870000000 cycles: 2031502173 heartbeat IPC: 0.361198 cumulative IPC: 0.351873 (Simulation time: 5 hr 28 min 46 sec) 
Heartbeat CPU 0 instructions: 1400000000 cycles: 2035072733 heartbeat IPC: 0.693569 cumulative IPC: 0.622721 (Simulation time: 5 hr 29 min 19 sec) 
Heartbeat CPU 3 instructions: 1540000000 cycles: 2042459780 heartbeat IPC: 0.683325 cumulative IPC: 0.678293 (Simulation time: 5 hr 30 min 23 sec) 
Heartbeat CPU 1 instructions: 1410000000 cycles: 2046061833 heartbeat IPC: 0.594304 cumulative IPC: 0.575855 (Simulation time: 5 hr 30 min 55 sec) 
Heartbeat CPU 0 instructions: 1410000002 cycles: 2049434571 heartbeat IPC: 0.69629 cumulative IPC: 0.623271 (Simulation time: 5 hr 31 min 26 sec) 
Heartbeat CPU 3 instructions: 1550000002 cycles: 2057075755 heartbeat IPC: 0.684183 cumulative IPC: 0.678338 (Simulation time: 5 hr 32 min 28 sec) 
Heartbeat CPU 2 instructions: 880000000 cycles: 2057174940 heartbeat IPC: 0.389518 cumulative IPC: 0.352374 (Simulation time: 5 hr 32 min 29 sec) 
Heartbeat CPU 1 instructions: 1420000000 cycles: 2062877273 heartbeat IPC: 0.594692 cumulative IPC: 0.576019 (Simulation time: 5 hr 33 min 12 sec) 
Heartbeat CPU 3 instructions: 1560000000 cycles: 2072032856 heartbeat IPC: 0.668579 cumulative IPC: 0.678263 (Simulation time: 5 hr 34 min 22 sec) 
Heartbeat CPU 0 instructions: 1420000000 cycles: 2073715213 heartbeat IPC: 0.411851 cumulative IPC: 0.620634 (Simulation time: 5 hr 34 min 34 sec) 
Heartbeat CPU 1 instructions: 1430000002 cycles: 2079690205 heartbeat IPC: 0.59478 cumulative IPC: 0.57618 (Simulation time: 5 hr 35 min 20 sec) 
Heartbeat CPU 2 instructions: 890000001 cycles: 2083809755 heartbeat IPC: 0.375448 cumulative IPC: 0.352688 (Simulation time: 5 hr 35 min 52 sec) 
Heartbeat CPU 3 instructions: 1570000002 cycles: 2086724711 heartbeat IPC: 0.680649 cumulative IPC: 0.678281 (Simulation time: 5 hr 36 min 15 sec) 
Heartbeat CPU 1 instructions: 1440000000 cycles: 2096498249 heartbeat IPC: 0.594953 cumulative IPC: 0.576341 (Simulation time: 5 hr 37 min 36 sec) 
Heartbeat CPU 0 instructions: 1430000000 cycles: 2096870388 heartbeat IPC: 0.431869 cumulative IPC: 0.618414 (Simulation time: 5 hr 37 min 39 sec) 
Heartbeat CPU 3 instructions: 1580000000 cycles: 2101364605 heartbeat IPC: 0.683065 cumulative IPC: 0.678316 (Simulation time: 5 hr 38 min 15 sec) 
Heartbeat CPU 2 instructions: 900000000 cycles: 2111137538 heartbeat IPC: 0.365928 cumulative IPC: 0.35287 (Simulation time: 5 hr 39 min 25 sec) 
Heartbeat CPU 1 instructions: 1450000001 cycles: 2113303525 heartbeat IPC: 0.595051 cumulative IPC: 0.576499 (Simulation time: 5 hr 39 min 42 sec) 
Heartbeat CPU 3 instructions: 1590000000 cycles: 2116416094 heartbeat IPC: 0.664386 cumulative IPC: 0.678211 (Simulation time: 5 hr 40 min 5 sec) 
Heartbeat CPU 0 instructions: 1440000000 cycles: 2124319905 heartbeat IPC: 0.364305 cumulative IPC: 0.614921 (Simulation time: 5 hr 41 min 8 sec) 
Heartbeat CPU 1 instructions: 1460000000 cycles: 2130113433 heartbeat IPC: 0.594887 cumulative IPC: 0.576653 (Simulation time: 5 hr 41 min 58 sec) 
[...]
Heartbeat CPU 1 instructions: 1830000002 cycles: 2752104235 heartbeat IPC: 0.594142 cumulative IPC: 0.580969 (Simulation time: 7 hr 12 min 56 sec) 
Heartbeat CPU 2 instructions: 1140000000 cycles: 2758886475 heartbeat IPC: 0.354589 cumulative IPC: 0.357213 (Simulation time: 7 hr 13 min 52 sec) 
Heartbeat CPU 3 instructions: 2030000003 cycles: 2760096568 heartbeat IPC: 0.672515 cumulative IPC: 0.679521 (Simulation time: 7 hr 14 min 3 sec) 
Heartbeat CPU 1 instructions: 1840000000 cycles: 2768914532 heartbeat IPC: 0.594873 cumulative IPC: 0.581057 (Simulation time: 7 hr 15 min 5 sec) 
Heartbeat CPU 0 instructions: 1900000000 cycles: 2773015895 heartbeat IPC: 0.454098 cumulative IPC: 0.638017 (Simulation time: 7 hr 15 min 33 sec) 
Heartbeat CPU 3 instructions: 2040000000 cycles: 2775067245 heartbeat IPC: 0.667972 cumulative IPC: 0.679456 (Simulation time: 7 hr 15 min 48 sec) 
Heartbeat CPU 1 instructions: 1850000000 cycles: 2785749639 heartbeat IPC: 0.593997 cumulative IPC: 0.581139 (Simulation time: 7 hr 17 min 13 sec) 
Heartbeat CPU 2 instructions: 1150000000 cycles: 2787818789 heartbeat IPC: 0.345634 cumulative IPC: 0.357087 (Simulation time: 7 hr 17 min 29 sec) 
Heartbeat CPU 3 instructions: 2050000003 cycles: 2789862135 heartbeat IPC: 0.675909 cumulative IPC: 0.679436 (Simulation time: 7 hr 17 min 43 sec) 
Heartbeat CPU 0 instructions: 1910000002 cycles: 2793568361 heartbeat IPC: 0.48656 cumulative IPC: 0.63685 (Simulation time: 7 hr 18 min 10 sec) 
Heartbeat CPU 1 instructions: 1860000000 cycles: 2802558595 heartbeat IPC: 0.594921 cumulative IPC: 0.581226 (Simulation time: 7 hr 19 min 16 sec) 
Heartbeat CPU 3 instructions: 2060000000 cycles: 2804769918 heartbeat IPC: 0.67079 cumulative IPC: 0.679388 (Simulation time: 7 hr 19 min 31 sec) 
Heartbeat CPU 2 instructions: 1160000000 cycles: 2816514693 heartbeat IPC: 0.348482 cumulative IPC: 0.356996 (Simulation time: 7 hr 20 min 56 sec) 
Heartbeat CPU 1 instructions: 1870000000 cycles: 2819370816 heartbeat IPC: 0.594805 cumulative IPC: 0.581311 (Simulation time: 7 hr 21 min 17 sec) 
Heartbeat CPU 3 instructions: 2070000001 cycles: 2819656675 heartbeat IPC: 0.671738 cumulative IPC: 0.679345 (Simulation time: 7 hr 21 min 20 sec) 
Heartbeat CPU 0 instructions: 1920000000 cycles: 2820425531 heartbeat IPC: 0.37234 cumulative IPC: 0.634212 (Simulation time: 7 hr 21 min 26 sec) 
Heartbeat CPU 3 instructions: 2080000000 cycles: 2834586850 heartbeat IPC: 0.669784 cumulative IPC: 0.679293 (Simulation time: 7 hr 23 min 18 sec) 
Heartbeat CPU 0 instructions: 1930000001 cycles: 2835628931 heartbeat IPC: 0.657748 cumulative IPC: 0.634344 (Simulation time: 7 hr 23 min 28 sec) 
Heartbeat CPU 1 instructions: 1880000000 cycles: 2836180138 heartbeat IPC: 0.594908 cumulative IPC: 0.581395 (Simulation time: 7 hr 23 min 32 sec) 
Heartbeat CPU 2 instructions: 1170000000 cycles: 2845423558 heartbeat IPC: 0.345915 cumulative IPC: 0.356878 (Simulation time: 7 hr 24 min 50 sec) 
Heartbeat CPU 3 instructions: 2090000000 cycles: 2849256983 heartbeat IPC: 0.681657 cumulative IPC: 0.679305 (Simulation time: 7 hr 25 min 23 sec) 
Heartbeat CPU 0 instructions: 1940000000 cycles: 2849923765 heartbeat IPC: 0.699553 cumulative IPC: 0.634686 (Simulation time: 7 hr 25 min 29 sec) 
Heartbeat CPU 1 instructions: 1890000001 cycles: 2852979020 heartbeat IPC: 0.595278 cumulative IPC: 0.581481 (Simulation time: 7 hr 25 min 56 sec) 
Heartbeat CPU 0 instructions: 1950000001 cycles: 2862272197 heartbeat IPC: 0.80982 cumulative IPC: 0.635477 (Simulation time: 7 hr 27 min 16 sec) 
Heartbeat CPU 3 instructions: 2100000000 cycles: 2864073092 heartbeat IPC: 0.674941 cumulative IPC: 0.679282 (Simulation time: 7 hr 27 min 31 sec) 
Heartbeat CPU 1 instructions: 1900000000 cycles: 2869802664 heartbeat IPC: 0.594401 cumulative IPC: 0.58156 (Simulation time: 7 hr 28 min 20 sec) 
Heartbeat CPU 2 instructions: 1180000000 cycles: 2873724346 heartbeat IPC: 0.353347 cumulative IPC: 0.356841 (Simulation time: 7 hr 28 min 55 sec) 
Heartbeat CPU 0 instructions: 1960000000 cycles: 2875944994 heartbeat IPC: 0.731379 cumulative IPC: 0.635954 (Simulation time: 7 hr 29 min 13 sec) 
Heartbeat CPU 3 instructions: 2110000000 cycles: 2878677123 heartbeat IPC: 0.684742 cumulative IPC: 0.679311 (Simulation time: 7 hr 29 min 35 sec) 
Heartbeat CPU 1 instructions: 1910000001 cycles: 2886626055 heartbeat IPC: 0.594411 cumulative IPC: 0.581638 (Simulation time: 7 hr 30 min 42 sec) 
Heartbeat CPU 0 instructions: 1970000002 cycles: 2889175650 heartbeat IPC: 0.755821 cumulative IPC: 0.636528 (Simulation time: 7 hr 31 min 4 sec) 
Heartbeat CPU 3 instructions: 2120000000 cycles: 2893498718 heartbeat IPC: 0.674691 cumulative IPC: 0.679286 (Simulation time: 7 hr 31 min 42 sec) 
Heartbeat CPU 2 instructions: 1190000001 cycles: 2903016210 heartbeat IPC: 0.341392 cumulative IPC: 0.356678 (Simulation time: 7 hr 33 min 1 sec) 
Heartbeat CPU 1 instructions: 1920000000 cycles: 2903430282 heartbeat IPC: 0.595088 cumulative IPC: 0.58172 (Simulation time: 7 hr 33 min 4 sec) 
Heartbeat CPU 0 instructions: 1980000000 cycles: 2903923684 heartbeat IPC: 0.678056 cumulative IPC: 0.636749 (Simulation time: 7 hr 33 min 8 sec) 
Heartbeat CPU 3 instructions: 2130000003 cycles: 2908289935 heartbeat IPC: 0.676077 cumulative IPC: 0.679269 (Simulation time: 7 hr 33 min 44 sec) 
Heartbeat CPU 0 instructions: 1990000003 cycles: 2917907223 heartbeat IPC: 0.715127 cumulative IPC: 0.637142 (Simulation time: 7 hr 35 min 5 sec) 
Heartbeat CPU 1 instructions: 1930000000 cycles: 2920228180 heartbeat IPC: 0.595313 cumulative IPC: 0.581801 (Simulation time: 7 hr 35 min 26 sec) 
Heartbeat CPU 3 instructions: 2140000000 cycles: 2922914490 heartbeat IPC: 0.683781 cumulative IPC: 0.679293 (Simulation time: 7 hr 35 min 47 sec) 
Heartbeat CPU 2 instructions: 1200000000 cycles: 2932911248 heartbeat IPC: 0.334504 cumulative IPC: 0.356442 (Simulation time: 7 hr 37 min 8 sec) 
Finished CPU 2 instructions: 1000000003 cycles: 2805505002 cumulative IPC: 0.356442 (Simulation time: 7 hr 37 min 8 sec) 

CPU 0 Branch Prediction Accuracy: 97.6425% MPKI: 3.14519

CPU 1 Branch Prediction Accuracy: 99.9549% MPKI: 0.107894

CPU 2 Branch Prediction Accuracy: 91.1518% MPKI: 15.9207

CPU 3 Branch Prediction Accuracy: 99.9709% MPKI: 0.00712254

ChampSim completed all CPUs

Total Simulation Statistics (not including warmup)

CPU 0 cumulative IPC: 0.637267 instructions: 1787855637 cycles: 2805505002
L1D TOTAL     ACCESS:  669265192  HIT:  666619302  MISS:    2645890
L1D LOAD      ACCESS:  298257531  HIT:  295844555  MISS:    2412976
L1D RFO       ACCESS:  371007661  HIT:  370774747  MISS:     232914
L1D PREFETCH  ACCESS:          0  HIT:          0  MISS:          0
L1D WRITEBACK ACCESS:          0  HIT:          0  MISS:          0
L1I TOTAL     ACCESS:  485410524  HIT:  482261022  MISS:    3149502
L1I LOAD      ACCESS:  485410524  HIT:  482261022  MISS:    3149502
L1I RFO       ACCESS:          0  HIT:          0  MISS:          0
L1I PREFETCH  ACCESS:          0  HIT:          0  MISS:          0
L1I WRITEBACK ACCESS:          0  HIT:          0  MISS:          0
L2C TOTAL     ACCESS:    6530302  HIT:    4937122  MISS:    1593180
L2C LOAD      ACCESS:    5562422  HIT:    4065588  MISS:    1496834
L2C RFO       ACCESS:     232912  HIT:     144734  MISS:      88178
L2C PREFETCH  ACCESS:          0  HIT:          0  MISS:          0
L2C WRITEBACK ACCESS:     734968  HIT:     726800  MISS:       8168
LLC TOTAL     ACCESS:    1887596  HIT:     755140  MISS:    1132456
LLC LOAD      ACCESS:    1496832  HIT:     478130  MISS:    1018702
LLC RFO       ACCESS:      88175  HIT:      28833  MISS:      59342
LLC PREFETCH  ACCESS:          0  HIT:          0  MISS:          0
LLC WRITEBACK ACCESS:     302589  HIT:     248177  MISS:      54412

CPU 1 cumulative IPC: 0.581861 instructions: 1632413865 cycles: 2805505002
L1D TOTAL     ACCESS:  328398569  HIT:  284209959  MISS:   44188610
L1D LOAD      ACCESS:  295423018  HIT:  251234409  MISS:   44188609
L1D RFO       ACCESS:   32975551  HIT:   32975550  MISS:          1
L1D PREFETCH  ACCESS:          0  HIT:          0  MISS:          0
L1D WRITEBACK ACCESS:          0  HIT:          0  MISS:          0
L1I TOTAL     ACCESS:  563906698  HIT:  563906687  MISS:         11
L1I LOAD      ACCESS:  563906698  HIT:  563906687  MISS:         11
L1I RFO       ACCESS:          0  HIT:          0  MISS:          0
L1I PREFETCH  ACCESS:          0  HIT:          0  MISS:          0
L1I WRITEBACK ACCESS:          0  HIT:          0  MISS:          0
L2C TOTAL     ACCESS:   44191427  HIT:     760391  MISS:   43431036
L2C LOAD      ACCESS:   44188620  HIT:     757585  MISS:   43431035
L2C RFO       ACCESS:          1  HIT:          0  MISS:          1
L2C PREFETCH  ACCESS:          0  HIT:          0  MISS:          0
L2C WRITEBACK ACCESS:       2806  HIT:       2806  MISS:          0
LLC TOTAL     ACCESS:   43433680  HIT:   42063409  MISS:    1370271
LLC LOAD      ACCESS:   43431035  HIT:   42060767  MISS:    1370268
LLC RFO       ACCESS:          1  HIT:          0  MISS:          1
LLC PREFETCH  ACCESS:          0  HIT:          0  MISS:          0
LLC WRITEBACK ACCESS:       2644  HIT:       2642  MISS:          2

CPU 2 cumulative IPC: 0.356442 instructions: 1000000003 cycles: 2805505002
L1D TOTAL     ACCESS:  349324543  HIT:  339447036  MISS:    9877507
L1D LOAD      ACCESS:  214169293  HIT:  205496704  MISS:    8672589
L1D RFO       ACCESS:  135155250  HIT:  133950332  MISS:    1204918
L1D PREFETCH  ACCESS:          0  HIT:          0  MISS:          0
L1D WRITEBACK ACCESS:          0  HIT:          0  MISS:          0
L1I TOTAL     ACCESS:  272261483  HIT:  267517178  MISS:    4744305
L1I LOAD      ACCESS:  272261483  HIT:  267517178  MISS:    4744305
L1I RFO       ACCESS:          0  HIT:          0  MISS:          0
L1I PREFETCH  ACCESS:          0  HIT:          0  MISS:          0
L1I WRITEBACK ACCESS:          0  HIT:          0  MISS:          0
L2C TOTAL     ACCESS:   17184851  HIT:   12948098  MISS:    4236753
L2C LOAD      ACCESS:   13416783  HIT:    9886487  MISS:    3530296
L2C RFO       ACCESS:    1204868  HIT:     514558  MISS:     690310
L2C PREFETCH  ACCESS:          0  HIT:          0  MISS:          0
L2C WRITEBACK ACCESS:    2563200  HIT:    2547053  MISS:      16147
LLC TOTAL     ACCESS:    5434758  HIT:    3336659  MISS:    2098099
LLC LOAD      ACCESS:    3530277  HIT:    2028729  MISS:    1501548
LLC RFO       ACCESS:     690297  HIT:     245390  MISS:     444907
LLC PREFETCH  ACCESS:          0  HIT:          0  MISS:          0
LLC WRITEBACK ACCESS:    1214184  HIT:    1062540  MISS:     151644

CPU 3 cumulative IPC: 0.679288 instructions: 1905745511 cycles: 2805505003
L1D TOTAL     ACCESS:  721505929  HIT:  681883411  MISS:   39622518
L1D LOAD      ACCESS:  614487278  HIT:  576112968  MISS:   38374310
L1D RFO       ACCESS:  107018651  HIT:  105770443  MISS:    1248208
L1D PREFETCH  ACCESS:          0  HIT:          0  MISS:          0
L1D WRITEBACK ACCESS:          0  HIT:          0  MISS:          0
L1I TOTAL     ACCESS:  487046494  HIT:  487046494  MISS:          0
L1I LOAD      ACCESS:  487046494  HIT:  487046494  MISS:          0
L1I RFO       ACCESS:          0  HIT:          0  MISS:          0
L1I PREFETCH  ACCESS:          0  HIT:          0  MISS:          0
L1I WRITEBACK ACCESS:          0  HIT:          0  MISS:          0
L2C TOTAL     ACCESS:   40947074  HIT:    4689490  MISS:   36257584
L2C LOAD      ACCESS:   38365800  HIT:    3045019  MISS:   35320781
L2C RFO       ACCESS:    1226344  HIT:     297781  MISS:     928563
L2C PREFETCH  ACCESS:          0  HIT:          0  MISS:          0
L2C WRITEBACK ACCESS:    1354930  HIT:    1346690  MISS:       8240
LLC TOTAL     ACCESS:   37186742  HIT:     970953  MISS:   36215789
LLC LOAD      ACCESS:   35320781  HIT:      34856  MISS:   35285925
LLC RFO       ACCESS:     928563  HIT:          0  MISS:     928563
LLC PREFETCH  ACCESS:          0  HIT:          0  MISS:          0
LLC WRITEBACK ACCESS:     937398  HIT:     936097  MISS:       1301

Region of Interest Statistics

CPU 0 cumulative IPC: 0.632786 instructions: 1000000001 cycles: 1580314051
L1D TOTAL     ACCESS:  374559526  HIT:  373080002  MISS:    1479524
L1D LOAD      ACCESS:  167617524  HIT:  166262800  MISS:    1354724
L1D RFO       ACCESS:  206942002  HIT:  206817202  MISS:     124800
L1D PREFETCH  ACCESS:          0  HIT:          0  MISS:          0
L1D WRITEBACK ACCESS:          0  HIT:          0  MISS:          0
L1D PREFETCH  REQUESTED:          0  ISSUED:          0  USEFUL:          0  USELESS:          0
L1I TOTAL     ACCESS:  270986257  HIT:  269229207  MISS:    1757050
L1I LOAD      ACCESS:  270986257  HIT:  269229207  MISS:    1757050
L1I RFO       ACCESS:          0  HIT:          0  MISS:          0
L1I PREFETCH  ACCESS:          0  HIT:          0  MISS:          0
L1I WRITEBACK ACCESS:          0  HIT:          0  MISS:          0
L1I PREFETCH  REQUESTED:          0  ISSUED:          0  USEFUL:          0  USELESS:          0
L2C TOTAL     ACCESS:    3642815  HIT:    2737836  MISS:     904979
L2C LOAD      ACCESS:    3111732  HIT:    2261972  MISS:     849760
L2C RFO       ACCESS:     124799  HIT:      74339  MISS:      50460
L2C PREFETCH  ACCESS:          0  HIT:          0  MISS:          0
L2C WRITEBACK ACCESS:     406284  HIT:     401525  MISS:       4759
L2C PREFETCH  REQUESTED:          0  ISSUED:          0  USEFUL:          0  USELESS:          0
LLC TOTAL     ACCESS:    1071764  HIT:     436950  MISS:     634814
LLC LOAD      ACCESS:     849758  HIT:     280604  MISS:     569154
LLC RFO       ACCESS:      50459  HIT:      16882  MISS:      33577
LLC PREFETCH  ACCESS:          0  HIT:          0  MISS:          0
LLC WRITEBACK ACCESS:     171547  HIT:     139464  MISS:      32083
LLC PREFETCH  REQUESTED:          0  ISSUED:          0  USEFUL:          0  USELESS:          0
Major fault: 0 Minor fault: 6186

CPU 1 cumulative IPC: 0.574025 instructions: 1000000002 cycles: 1742084711
L1D TOTAL     ACCESS:  202102489  HIT:  174873596  MISS:   27228893
L1D LOAD      ACCESS:  182012237  HIT:  154783345  MISS:   27228892
L1D RFO       ACCESS:   20090252  HIT:   20090251  MISS:          1
L1D PREFETCH  ACCESS:          0  HIT:          0  MISS:          0
L1D WRITEBACK ACCESS:          0  HIT:          0  MISS:          0
L1D PREFETCH  REQUESTED:          0  ISSUED:          0  USEFUL:          0  USELESS:          0
L1I TOTAL     ACCESS:  345031846  HIT:  345031835  MISS:         11
L1I LOAD      ACCESS:  345031846  HIT:  345031835  MISS:         11
L1I RFO       ACCESS:          0  HIT:          0  MISS:          0
L1I PREFETCH  ACCESS:          0  HIT:          0  MISS:          0
L1I WRITEBACK ACCESS:          0  HIT:          0  MISS:          0
L1I PREFETCH  REQUESTED:          0  ISSUED:          0  USEFUL:          0  USELESS:          0
L2C TOTAL     ACCESS:   27231057  HIT:     757703  MISS:   26473354
L2C LOAD      ACCESS:   27228903  HIT:     755550  MISS:   26473353
L2C RFO       ACCESS:          1  HIT:          0  MISS:          1
L2C PREFETCH  ACCESS:          0  HIT:          0  MISS:          0
L2C WRITEBACK ACCESS:       2153  HIT:       2153  MISS:          0
L2C PREFETCH  REQUESTED:          0  ISSUED:          0  USEFUL:          0  USELESS:          0
LLC TOTAL     ACCESS:   26475345  HIT:   25117576  MISS:    1357769
LLC LOAD      ACCESS:   26473353  HIT:   25115587  MISS:    1357766
LLC RFO       ACCESS:          1  HIT:          0  MISS:          1
LLC PREFETCH  ACCESS:          0  HIT:          0  MISS:          0
LLC WRITEBACK ACCESS:       1991  HIT:       1989  MISS:          2
LLC PREFETCH  REQUESTED:          0  ISSUED:          0  USEFUL:          0  USELESS:          0
Major fault: 0 Minor fault: 5662

CPU 2 cumulative IPC: 0.356442 instructions: 1000000003 cycles: 2805505002
L1D TOTAL     ACCESS:  349324543  HIT:  339447036  MISS:    9877507
L1D LOAD      ACCESS:  214169293  HIT:  205496704  MISS:    8672589
L1D RFO       ACCESS:  135155250  HIT:  133950332  MISS:    1204918
L1D PREFETCH  ACCESS:          0  HIT:          0  MISS:          0
L1D WRITEBACK ACCESS:          0  HIT:          0  MISS:          0
L1D PREFETCH  REQUESTED:          0  ISSUED:          0  USEFUL:          0  USELESS:          0
L1I TOTAL     ACCESS:  272261483  HIT:  267517178  MISS:    4744305
L1I LOAD      ACCESS:  272261483  HIT:  267517178  MISS:    4744305
L1I RFO       ACCESS:          0  HIT:          0  MISS:          0
L1I PREFETCH  ACCESS:          0  HIT:          0  MISS:          0
L1I WRITEBACK ACCESS:          0  HIT:          0  MISS:          0
L1I PREFETCH  REQUESTED:          0  ISSUED:          0  USEFUL:          0  USELESS:          0
L2C TOTAL     ACCESS:   17184851  HIT:   12948098  MISS:    4236753
L2C LOAD      ACCESS:   13416783  HIT:    9886487  MISS:    3530296
L2C RFO       ACCESS:    1204868  HIT:     514558  MISS:     690310
L2C PREFETCH  ACCESS:          0  HIT:          0  MISS:          0
L2C WRITEBACK ACCESS:    2563200  HIT:    2547053  MISS:      16147
L2C PREFETCH  REQUESTED:          0  ISSUED:          0  USEFUL:          0  USELESS:          0
LLC TOTAL     ACCESS:    5434758  HIT:    3336659  MISS:    2098099
LLC LOAD      ACCESS:    3530277  HIT:    2028729  MISS:    1501548
LLC RFO       ACCESS:     690297  HIT:     245390  MISS:     444907
LLC PREFETCH  ACCESS:          0  HIT:          0  MISS:          0
LLC WRITEBACK ACCESS:    1214184  HIT:    1062540  MISS:     151644
LLC PREFETCH  REQUESTED:          0  ISSUED:          0  USEFUL:          0  USELESS:          0
Major fault: 0 Minor fault: 28350

CPU 3 cumulative IPC: 0.677775 instructions: 1000000001 cycles: 1475416068
L1D TOTAL     ACCESS:  378589437  HIT:  357798380  MISS:   20791057
L1D LOAD      ACCESS:  322436857  HIT:  302300778  MISS:   20136079
L1D RFO       ACCESS:   56152580  HIT:   55497602  MISS:     654978
L1D PREFETCH  ACCESS:          0  HIT:          0  MISS:          0
L1D WRITEBACK ACCESS:          0  HIT:          0  MISS:          0
L1D PREFETCH  REQUESTED:          0  ISSUED:          0  USEFUL:          0  USELESS:          0
L1I TOTAL     ACCESS:  255569154  HIT:  255569154  MISS:          0
L1I LOAD      ACCESS:  255569154  HIT:  255569154  MISS:          0
L1I RFO       ACCESS:          0  HIT:          0  MISS:          0
L1I PREFETCH  ACCESS:          0  HIT:          0  MISS:          0
L1I WRITEBACK ACCESS:          0  HIT:          0  MISS:          0
L1I PREFETCH  REQUESTED:          0  ISSUED:          0  USEFUL:          0  USELESS:          0
L2C TOTAL     ACCESS:   21486097  HIT:    2459405  MISS:   19026692
L2C LOAD      ACCESS:   20131624  HIT:    1596549  MISS:   18535075
L2C RFO       ACCESS:     643489  HIT:     156245  MISS:     487244
L2C PREFETCH  ACCESS:          0  HIT:          0  MISS:          0
L2C WRITEBACK ACCESS:     710984  HIT:     706611  MISS:       4373
L2C PREFETCH  REQUESTED:          0  ISSUED:          0  USEFUL:          0  USELESS:          0
LLC TOTAL     ACCESS:   19514306  HIT:     510958  MISS:   19003348
LLC LOAD      ACCESS:   18535075  HIT:      19621  MISS:   18515454
LLC RFO       ACCESS:     487244  HIT:          0  MISS:     487244
LLC PREFETCH  ACCESS:          0  HIT:          0  MISS:          0
LLC WRITEBACK ACCESS:     491987  HIT:     491337  MISS:        650
LLC PREFETCH  REQUESTED:          0  ISSUED:          0  USEFUL:          0  USELESS:          0
Major fault: 0 Minor fault: 563665

DRAM Statistics
 CHANNEL 0
 RQ ROW_BUFFER_HIT:   16587137  ROW_BUFFER_MISS:    3730872
 DBUS_CONGESTED:    6132861
 WQ ROW_BUFFER_HIT:     120673  ROW_BUFFER_MISS:     831729  FULL:          0

 CHANNEL 1
 RQ ROW_BUFFER_HIT:   16572109  ROW_BUFFER_MISS:    3714515
 DBUS_CONGESTED:    6132861
 WQ ROW_BUFFER_HIT:     112007  ROW_BUFFER_MISS:     836102  FULL:          0

 AVG_CONGESTED_CYCLE: 12
