
*** ChampSim Multicore Out-of-Order Simulator ***

Warmup Instructions: 200000000
Simulation Instructions: 1000000000
Number of CPUs: 4
LLC sets: 8192
LLC ways: 16
Off-chip DRAM Size: 8192 MB Channels: 2 Width: 64-bit Data Rate: 1600 MT/s

CPU 0 runs /scratch/user/djimenez/champsim-traces/speccpu2017/xz/619.lbm_s/619.lbm_s-2676B.champsimtrace.xz
CPU 1 runs /scratch/user/djimenez/champsim-traces/speccpu2017/xz/605.mcf_s/605.mcf_s-782B.champsimtrace.xz
CPU 2 runs /scratch/user/djimenez/champsim-traces/speccpu2017/xz/648.exchange2_s/648.exchange2_s-584B.champsimtrace.xz
CPU 3 runs /scratch/user/djimenez/champsim-traces/speccpu2017/xz/605.mcf_s/605.mcf_s-994B.champsimtrace.xz
Heartbeat CPU 2 instructions: 10000001 cycles: 4404329 heartbeat IPC: 2.27049 cumulative IPC: 2.27049 (Simulation time: 0 hr 2 min 9 sec) 
Heartbeat CPU 0 instructions: 10000000 cycles: 4844168 heartbeat IPC: 2.06434 cumulative IPC: 2.06434 (Simulation time: 0 hr 2 min 22 sec) 
Heartbeat CPU 3 instructions: 10000000 cycles: 5625106 heartbeat IPC: 1.77774 cumulative IPC: 1.77774 (Simulation time: 0 hr 2 min 45 sec) 
Heartbeat CPU 1 instructions: 10000001 cycles: 6232123 heartbeat IPC: 1.60459 cumulative IPC: 1.60459 (Simulation time: 0 hr 3 min 3 sec) 
Heartbeat CPU 2 instructions: 20000000 cycles: 8824583 heartbeat IPC: 2.26231 cumulative IPC: 2.2664 (Simulation time: 0 hr 4 min 19 sec) 
Heartbeat CPU 0 instructions: 20000000 cycles: 9666840 heartbeat IPC: 2.07354 cumulative IPC: 2.06893 (Simulation time: 0 hr 4 min 44 sec) 
Heartbeat CPU 3 instructions: 20000000 cycles: 11318469 heartbeat IPC: 1.75643 cumulative IPC: 1.76702 (Simulation time: 0 hr 5 min 32 sec) 
Heartbeat CPU 1 instructions: 20000000 cycles: 12373484 heartbeat IPC: 1.6283 cumulative IPC: 1.61636 (Simulation time: 0 hr 6 min 3 sec) 
Heartbeat CPU 2 instructions: 30000001 cycles: 13237314 heartbeat IPC: 2.26617 cumulative IPC: 2.26632 (Simulation time: 0 hr 6 min 29 sec) 
Heartbeat CPU 0 instructions: 30000003 cycles: 14463490 heartbeat IPC: 2.08479 cumulative IPC: 2.07419 (Simulation time: 0 hr 7 min 5 sec) 
Heartbeat CPU 3 instructions: 30000000 cycles: 17054907 heartbeat IPC: 1.74324 cumulative IPC: 1.75902 (Simulation time: 0 hr 8 min 22 sec) 
Heartbeat CPU 2 instructions: 40000000 cycles: 17687542 heartbeat IPC: 2.24708 cumulative IPC: 2.26148 (Simulation time: 0 hr 8 min 41 sec) 
Heartbeat CPU 1 instructions: 30000000 cycles: 18662382 heartbeat IPC: 1.5901 cumulative IPC: 1.60751 (Simulation time: 0 hr 9 min 10 sec) 
Heartbeat CPU 0 instructions: 40000000 cycles: 19208188 heartbeat IPC: 2.10761 cumulative IPC: 2.08245 (Simulation time: 0 hr 9 min 26 sec) 
Heartbeat CPU 2 instructions: 50000003 cycles: 22146048 heartbeat IPC: 2.2429 cumulative IPC: 2.25774 (Simulation time: 0 hr 10 min 53 sec) 
Heartbeat CPU 3 instructions: 40000000 cycles: 22740025 heartbeat IPC: 1.75898 cumulative IPC: 1.75901 (Simulation time: 0 hr 11 min 11 sec) 
Heartbeat CPU 0 instructions: 50000002 cycles: 23907029 heartbeat IPC: 2.12818 cumulative IPC: 2.09144 (Simulation time: 0 hr 11 min 46 sec) 
Heartbeat CPU 1 instructions: 40000000 cycles: 24900629 heartbeat IPC: 1.60301 cumulative IPC: 1.60639 (Simulation time: 0 hr 12 min 15 sec) 
Heartbeat CPU 2 instructions: 60000000 cycles: 26580739 heartbeat IPC: 2.25495 cumulative IPC: 2.25727 (Simulation time: 0 hr 13 min 4 sec) 
Heartbeat CPU 0 instructions: 60000000 cycles: 28556841 heartbeat IPC: 2.15062 cumulative IPC: 2.10107 (Simulation time: 0 hr 14 min 1 sec) 
Heartbeat CPU 3 instructions: 50000000 cycles: 29302426 heartbeat IPC: 1.52383 cumulative IPC: 1.70634 (Simulation time: 0 hr 14 min 23 sec) 
Heartbeat CPU 2 instructions: 70000000 cycles: 31027088 heartbeat IPC: 2.24904 cumulative IPC: 2.25609 (Simulation time: 0 hr 15 min 15 sec) 
Heartbeat CPU 1 instructions: 50000000 cycles: 31135863 heartbeat IPC: 1.60379 cumulative IPC: 1.60587 (Simulation time: 0 hr 15 min 18 sec) 
Heartbeat CPU 0 instructions: 70000000 cycles: 33163467 heartbeat IPC: 2.17079 cumulative IPC: 2.11076 (Simulation time: 0 hr 16 min 19 sec) 
Heartbeat CPU 3 instructions: 60000000 cycles: 35118303 heartbeat IPC: 1.71943 cumulative IPC: 1.70851 (Simulation time: 0 hr 17 min 16 sec) 
Heartbeat CPU 2 instructions: 80000000 cycles: 35480536 heartbeat IPC: 2.24545 cumulative IPC: 2.25476 (Simulation time: 0 hr 17 min 26 sec) 
Heartbeat CPU 1 instructions: 60000000 cycles: 37318078 heartbeat IPC: 1.61754 cumulative IPC: 1.6078 (Simulation time: 0 hr 18 min 16 sec) 
Heartbeat CPU 0 instructions: 80000000 cycles: 37692774 heartbeat IPC: 2.20784 cumulative IPC: 2.12242 (Simulation time: 0 hr 18 min 26 sec) 
Heartbeat CPU 2 instructions: 90000002 cycles: 39834414 heartbeat IPC: 2.2968 cumulative IPC: 2.25935 (Simulation time: 0 hr 19 min 35 sec) 
Heartbeat CPU 3 instructions: 70000002 cycles: 41007712 heartbeat IPC: 1.69796 cumulative IPC: 1.707 (Simulation time: 0 hr 20 min 12 sec) 
Heartbeat CPU 0 instructions: 90000000 cycles: 42219502 heartbeat IPC: 2.2091 cumulative IPC: 2.13172 (Simulation time: 0 hr 20 min 47 sec) 
Heartbeat CPU 1 instructions: 70000001 cycles: 43506402 heartbeat IPC: 1.61595 cumulative IPC: 1.60896 (Simulation time: 0 hr 21 min 24 sec) 
Heartbeat CPU 2 instructions: 100000000 cycles: 44165714 heartbeat IPC: 2.30878 cumulative IPC: 2.2642 (Simulation time: 0 hr 21 min 43 sec) 
Heartbeat CPU 3 instructions: 80000000 cycles: 46675523 heartbeat IPC: 1.76435 cumulative IPC: 1.71396 (Simulation time: 0 hr 22 min 56 sec) 
Heartbeat CPU 0 instructions: 100000000 cycles: 46698795 heartbeat IPC: 2.2325 cumulative IPC: 2.14138 (Simulation time: 0 hr 22 min 57 sec) 
Heartbeat CPU 2 instructions: 110000003 cycles: 48657690 heartbeat IPC: 2.22619 cumulative IPC: 2.26069 (Simulation time: 0 hr 23 min 54 sec) 
Heartbeat CPU 1 instructions: 80000000 cycles: 49699625 heartbeat IPC: 1.61467 cumulative IPC: 1.60967 (Simulation time: 0 hr 24 min 25 sec) 
Heartbeat CPU 0 instructions: 110000001 cycles: 51161798 heartbeat IPC: 2.24064 cumulative IPC: 2.15004 (Simulation time: 0 hr 25 min 8 sec) 
Heartbeat CPU 3 instructions: 90000001 cycles: 52261796 heartbeat IPC: 1.7901 cumulative IPC: 1.7221 (Simulation time: 0 hr 25 min 40 sec) 
Heartbeat CPU 2 instructions: 120000000 cycles: 53124834 heartbeat IPC: 2.23857 cumulative IPC: 2.25883 (Simulation time: 0 hr 26 min 5 sec) 
Heartbeat CPU 0 instructions: 120000000 cycles: 55589060 heartbeat IPC: 2.25873 cumulative IPC: 2.1587 (Simulation time: 0 hr 27 min 15 sec) 
Heartbeat CPU 1 instructions: 90000003 cycles: 55974959 heartbeat IPC: 1.59354 cumulative IPC: 1.60786 (Simulation time: 0 hr 27 min 26 sec) 
Heartbeat CPU 2 instructions: 130000000 cycles: 57433829 heartbeat IPC: 2.32073 cumulative IPC: 2.26347 (Simulation time: 0 hr 28 min 7 sec) 
Heartbeat CPU 3 instructions: 100000000 cycles: 57922414 heartbeat IPC: 1.76659 cumulative IPC: 1.72645 (Simulation time: 0 hr 28 min 26 sec) 
Heartbeat CPU 0 instructions: 130000001 cycles: 59988069 heartbeat IPC: 2.27324 cumulative IPC: 2.1671 (Simulation time: 0 hr 29 min 26 sec) 
Heartbeat CPU 2 instructions: 140000000 cycles: 61821184 heartbeat IPC: 2.27928 cumulative IPC: 2.2646 (Simulation time: 0 hr 30 min 21 sec) 
Heartbeat CPU 1 instructions: 100000000 cycles: 62277178 heartbeat IPC: 1.58674 cumulative IPC: 1.60572 (Simulation time: 0 hr 30 min 35 sec) 
Heartbeat CPU 3 instructions: 110000003 cycles: 63785267 heartbeat IPC: 1.70565 cumulative IPC: 1.72454 (Simulation time: 0 hr 31 min 20 sec) 
Heartbeat CPU 0 instructions: 140000000 cycles: 64379715 heartbeat IPC: 2.27705 cumulative IPC: 2.1746 (Simulation time: 0 hr 31 min 37 sec) 
Heartbeat CPU 2 instructions: 150000003 cycles: 66328046 heartbeat IPC: 2.21884 cumulative IPC: 2.26149 (Simulation time: 0 hr 32 min 35 sec) 
Heartbeat CPU 1 instructions: 110000002 cycles: 68603828 heartbeat IPC: 1.58062 cumulative IPC: 1.60341 (Simulation time: 0 hr 33 min 48 sec) 
Heartbeat CPU 0 instructions: 150000002 cycles: 68745358 heartbeat IPC: 2.29061 cumulative IPC: 2.18197 (Simulation time: 0 hr 33 min 52 sec) 
Heartbeat CPU 3 instructions: 120000000 cycles: 69547016 heartbeat IPC: 1.73558 cumulative IPC: 1.72545 (Simulation time: 0 hr 34 min 18 sec) 
Heartbeat CPU 2 instructions: 160000000 cycles: 70798844 heartbeat IPC: 2.23674 cumulative IPC: 2.25992 (Simulation time: 0 hr 35 min 0 sec) 
Heartbeat CPU 0 instructions: 160000000 cycles: 73084868 heartbeat IPC: 2.30441 cumulative IPC: 2.18924 (Simulation time: 0 hr 36 min 7 sec) 
Heartbeat CPU 1 instructions: 120000000 cycles: 74907451 heartbeat IPC: 1.58639 cumulative IPC: 1.60198 (Simulation time: 0 hr 37 min 4 sec) 
Heartbeat CPU 2 instructions: 170000002 cycles: 75092795 heartbeat IPC: 2.32886 cumulative IPC: 2.26387 (Simulation time: 0 hr 37 min 9 sec) 
Heartbeat CPU 3 instructions: 130000001 cycles: 75222199 heartbeat IPC: 1.76206 cumulative IPC: 1.72821 (Simulation time: 0 hr 37 min 13 sec) 
Heartbeat CPU 0 instructions: 170000003 cycles: 77419818 heartbeat IPC: 2.30683 cumulative IPC: 2.19582 (Simulation time: 0 hr 38 min 16 sec) 
Heartbeat CPU 2 instructions: 180000000 cycles: 79519699 heartbeat IPC: 2.25891 cumulative IPC: 2.26359 (Simulation time: 0 hr 39 min 17 sec) 
Heartbeat CPU 1 instructions: 130000000 cycles: 81089692 heartbeat IPC: 1.61754 cumulative IPC: 1.60316 (Simulation time: 0 hr 40 min 1 sec) 
Heartbeat CPU 3 instructions: 140000000 cycles: 81232366 heartbeat IPC: 1.66385 cumulative IPC: 1.72345 (Simulation time: 0 hr 40 min 5 sec) 
Heartbeat CPU 0 instructions: 180000000 cycles: 81753787 heartbeat IPC: 2.30735 cumulative IPC: 2.20173 (Simulation time: 0 hr 40 min 19 sec) 
Heartbeat CPU 2 instructions: 190000000 cycles: 84020328 heartbeat IPC: 2.22191 cumulative IPC: 2.26136 (Simulation time: 0 hr 41 min 25 sec) 
Heartbeat CPU 0 instructions: 190000002 cycles: 86066555 heartbeat IPC: 2.3187 cumulative IPC: 2.20759 (Simulation time: 0 hr 42 min 26 sec) 
Heartbeat CPU 1 instructions: 140000000 cycles: 87268627 heartbeat IPC: 1.6184 cumulative IPC: 1.60424 (Simulation time: 0 hr 43 min 0 sec) 
Heartbeat CPU 3 instructions: 150000002 cycles: 87335960 heartbeat IPC: 1.63838 cumulative IPC: 1.71751 (Simulation time: 0 hr 43 min 2 sec) 
Heartbeat CPU 2 instructions: 200000000 cycles: 88443726 heartbeat IPC: 2.26071 cumulative IPC: 2.26132 (Simulation time: 0 hr 43 min 34 sec) 
Heartbeat CPU 0 instructions: 200000000 cycles: 90374628 heartbeat IPC: 2.32122 cumulative IPC: 2.21301 (Simulation time: 0 hr 44 min 30 sec) 
Heartbeat CPU 2 instructions: 210000001 cycles: 92739182 heartbeat IPC: 2.32804 cumulative IPC: 0.107829 (Simulation time: 0 hr 45 min 37 sec) 
Heartbeat CPU 3 instructions: 160000000 cycles: 92953051 heartbeat IPC: 1.78028 cumulative IPC: 1.7213 (Simulation time: 0 hr 45 min 43 sec) 
Heartbeat CPU 1 instructions: 150000003 cycles: 93445246 heartbeat IPC: 1.61901 cumulative IPC: 1.60522 (Simulation time: 0 hr 45 min 57 sec) 
Heartbeat CPU 0 instructions: 210000000 cycles: 94668614 heartbeat IPC: 2.32884 cumulative IPC: 0.105632 (Simulation time: 0 hr 46 min 33 sec) 
Heartbeat CPU 2 instructions: 220000000 cycles: 97201786 heartbeat IPC: 2.24084 cumulative IPC: 0.205758 (Simulation time: 0 hr 47 min 46 sec) 
Heartbeat CPU 3 instructions: 170000000 cycles: 98468386 heartbeat IPC: 1.81313 cumulative IPC: 1.72644 (Simulation time: 0 hr 48 min 28 sec) 
Heartbeat CPU 0 instructions: 220000000 cycles: 98965823 heartbeat IPC: 2.32709 cumulative IPC: 0.20209 (Simulation time: 0 hr 48 min 43 sec) 
Heartbeat CPU 1 instructions: 160000000 cycles: 99668960 heartbeat IPC: 1.60676 cumulative IPC: 1.60531 (Simulation time: 0 hr 49 min 4 sec) 
Heartbeat CPU 2 instructions: 230000000 cycles: 101693813 heartbeat IPC: 2.22617 cumulative IPC: 0.295003 (Simulation time: 0 hr 50 min 2 sec) 
Heartbeat CPU 0 instructions: 230000001 cycles: 103252788 heartbeat IPC: 2.33265 cumulative IPC: 0.290549 (Simulation time: 0 hr 50 min 50 sec) 
Heartbeat CPU 3 instructions: 180000000 cycles: 104848928 heartbeat IPC: 1.56727 cumulative IPC: 1.71676 (Simulation time: 0 hr 51 min 38 sec) 
Heartbeat CPU 1 instructions: 170000000 cycles: 105884776 heartbeat IPC: 1.6088 cumulative IPC: 1.60552 (Simulation time: 0 hr 52 min 9 sec) 
Heartbeat CPU 2 instructions: 240000000 cycles: 106054985 heartbeat IPC: 2.29296 cumulative IPC: 0.377163 (Simulation time: 0 hr 52 min 14 sec) 
Heartbeat CPU 0 instructions: 240000000 cycles: 107545237 heartbeat IPC: 2.32967 cumulative IPC: 0.371937 (Simulation time: 0 hr 52 min 59 sec) 
Heartbeat CPU 2 instructions: 250000003 cycles: 110233517 heartbeat IPC: 2.39319 cumulative IPC: 0.453583 (Simulation time: 0 hr 54 min 21 sec) 
Heartbeat CPU 3 instructions: 190000001 cycles: 110376713 heartbeat IPC: 1.80904 cumulative IPC: 1.72138 (Simulation time: 0 hr 54 min 26 sec) 
Heartbeat CPU 0 instructions: 250000002 cycles: 111833103 heartbeat IPC: 2.33216 cumulative IPC: 0.447095 (Simulation time: 0 hr 55 min 10 sec) 
Heartbeat CPU 1 instructions: 180000000 cycles: 112079752 heartbeat IPC: 1.61421 cumulative IPC: 1.606 (Simulation time: 0 hr 55 min 17 sec) 
Heartbeat CPU 2 instructions: 260000000 cycles: 114422077 heartbeat IPC: 2.38745 cumulative IPC: 0.524374 (Simulation time: 0 hr 56 min 27 sec) 
Heartbeat CPU 3 instructions: 200000000 cycles: 116101321 heartbeat IPC: 1.74684 cumulative IPC: 1.72263 (Simulation time: 0 hr 57 min 17 sec) 
Heartbeat CPU 0 instructions: 260000000 cycles: 116120400 heartbeat IPC: 2.33247 cumulative IPC: 0.516705 (Simulation time: 0 hr 57 min 18 sec) 
Heartbeat CPU 1 instructions: 190000002 cycles: 118367710 heartbeat IPC: 1.59034 cumulative IPC: 1.60517 (Simulation time: 0 hr 58 min 27 sec) 
Heartbeat CPU 2 instructions: 270000002 cycles: 118562488 heartbeat IPC: 2.41522 cumulative IPC: 0.590406 (Simulation time: 0 hr 58 min 33 sec) 
Heartbeat CPU 0 instructions: 270000003 cycles: 120398337 heartbeat IPC: 2.33758 cumulative IPC: 0.581403 (Simulation time: 0 hr 59 min 27 sec) 
Heartbeat CPU 3 instructions: 210000003 cycles: 121961366 heartbeat IPC: 1.70647 cumulative IPC: 0.0819932 (Simulation time: 1 hr 0 min 14 sec) 
Heartbeat CPU 2 instructions: 280000000 cycles: 122784834 heartbeat IPC: 2.36835 cumulative IPC: 0.651546 (Simulation time: 1 hr 0 min 38 sec) 
Heartbeat CPU 1 instructions: 200000000 cycles: 124674958 heartbeat IPC: 1.58548 cumulative IPC: 1.60417 (Simulation time: 1 hr 1 min 34 sec) 

Warmup complete CPU 0 instructions: 279988725 cycles: 124674959 (Simulation time: 1 hr 1 min 34 sec) 
Warmup complete CPU 1 instructions: 200000001 cycles: 124674959 (Simulation time: 1 hr 1 min 34 sec) 
Warmup complete CPU 2 instructions: 284601616 cycles: 124674958 (Simulation time: 1 hr 1 min 34 sec) 
Warmup complete CPU 3 instructions: 214465984 cycles: 124674958 (Simulation time: 1 hr 1 min 34 sec) 

Heartbeat CPU 0 instructions: 280000000 cycles: 124688637 heartbeat IPC: 2.33084 cumulative IPC: 0.824316 (Simulation time: 1 hr 1 min 34 sec) 
Heartbeat CPU 2 instructions: 290000001 cycles: 128714933 heartbeat IPC: 1.68631 cumulative IPC: 1.33624 (Simulation time: 1 hr 2 min 19 sec) 
Heartbeat CPU 2 instructions: 300000000 cycles: 135795593 heartbeat IPC: 1.4123 cumulative IPC: 1.38467 (Simulation time: 1 hr 3 min 37 sec) 
Heartbeat CPU 0 instructions: 290000002 cycles: 139136394 heartbeat IPC: 0.692149 cumulative IPC: 0.692274 (Simulation time: 1 hr 4 min 15 sec) 
Heartbeat CPU 2 instructions: 310000003 cycles: 142110778 heartbeat IPC: 1.58349 cumulative IPC: 1.45668 (Simulation time: 1 hr 4 min 49 sec) 
Heartbeat CPU 2 instructions: 320000000 cycles: 148553708 heartbeat IPC: 1.55209 cumulative IPC: 1.48242 (Simulation time: 1 hr 6 min 15 sec) 
Heartbeat CPU 0 instructions: 300000000 cycles: 153962933 heartbeat IPC: 0.674466 cumulative IPC: 0.683259 (Simulation time: 1 hr 7 min 14 sec) 
Heartbeat CPU 2 instructions: 330000003 cycles: 154911735 heartbeat IPC: 1.57282 cumulative IPC: 1.50143 (Simulation time: 1 hr 7 min 27 sec) 
Heartbeat CPU 2 instructions: 340000000 cycles: 161320910 heartbeat IPC: 1.56026 cumulative IPC: 1.51172 (Simulation time: 1 hr 8 min 57 sec) 
Heartbeat CPU 3 instructions: 220000000 cycles: 162738866 heartbeat IPC: 0.245233 cumulative IPC: 0.145387 (Simulation time: 1 hr 9 min 20 sec) 
Heartbeat CPU 2 instructions: 350000000 cycles: 167616783 heartbeat IPC: 1.58834 cumulative IPC: 1.52295 (Simulation time: 1 hr 10 min 20 sec) 
Heartbeat CPU 0 instructions: 310000002 cycles: 168668525 heartbeat IPC: 0.680014 cumulative IPC: 0.682174 (Simulation time: 1 hr 10 min 33 sec) 
Heartbeat CPU 2 instructions: 360000000 cycles: 174575022 heartbeat IPC: 1.43715 cumulative IPC: 1.51099 (Simulation time: 1 hr 11 min 48 sec) 
Heartbeat CPU 2 instructions: 370000003 cycles: 180952686 heartbeat IPC: 1.56797 cumulative IPC: 1.51745 (Simulation time: 1 hr 13 min 4 sec) 
Heartbeat CPU 0 instructions: 320000000 cycles: 183695981 heartbeat IPC: 0.665448 cumulative IPC: 0.677916 (Simulation time: 1 hr 13 min 35 sec) 
Heartbeat CPU 2 instructions: 380000000 cycles: 187297330 heartbeat IPC: 1.57613 cumulative IPC: 1.52339 (Simulation time: 1 hr 14 min 17 sec) 
Heartbeat CPU 2 instructions: 390000000 cycles: 193713987 heartbeat IPC: 1.55844 cumulative IPC: 1.52665 (Simulation time: 1 hr 15 min 47 sec) 
Heartbeat CPU 0 instructions: 330000003 cycles: 198427040 heartbeat IPC: 0.678838 cumulative IPC: 0.6781 (Simulation time: 1 hr 16 min 45 sec) 
Heartbeat CPU 2 instructions: 400000000 cycles: 200159321 heartbeat IPC: 1.55151 cumulative IPC: 1.52877 (Simulation time: 1 hr 17 min 8 sec) 
Heartbeat CPU 3 instructions: 230000001 cycles: 201144497 heartbeat IPC: 0.260379 cumulative IPC: 0.20314 (Simulation time: 1 hr 17 min 20 sec) 
Heartbeat CPU 2 instructions: 410000002 cycles: 207176198 heartbeat IPC: 1.42514 cumulative IPC: 1.51996 (Simulation time: 1 hr 18 min 26 sec) 
Heartbeat CPU 0 instructions: 340000000 cycles: 213418459 heartbeat IPC: 0.667048 cumulative IPC: 0.676233 (Simulation time: 1 hr 19 min 38 sec) 
Heartbeat CPU 2 instructions: 420000000 cycles: 213544604 heartbeat IPC: 1.57025 cumulative IPC: 1.52356 (Simulation time: 1 hr 19 min 40 sec) 
Heartbeat CPU 1 instructions: 210000002 cycles: 215654689 heartbeat IPC: 0.109915 cumulative IPC: 0.109915 (Simulation time: 1 hr 20 min 6 sec) 
Heartbeat CPU 2 instructions: 430000000 cycles: 219922600 heartbeat IPC: 1.56789 cumulative IPC: 1.52653 (Simulation time: 1 hr 20 min 59 sec) 
Heartbeat CPU 2 instructions: 440000000 cycles: 226383788 heartbeat IPC: 1.5477 cumulative IPC: 1.52788 (Simulation time: 1 hr 22 min 16 sec) 
Heartbeat CPU 0 instructions: 350000000 cycles: 228063094 heartbeat IPC: 0.682844 cumulative IPC: 0.677169 (Simulation time: 1 hr 22 min 38 sec) 
Heartbeat CPU 2 instructions: 450000000 cycles: 232802507 heartbeat IPC: 1.55794 cumulative IPC: 1.52966 (Simulation time: 1 hr 23 min 37 sec) 
Heartbeat CPU 2 instructions: 460000000 cycles: 239174433 heartbeat IPC: 1.56938 cumulative IPC: 1.53187 (Simulation time: 1 hr 24 min 49 sec) 
Heartbeat CPU 3 instructions: 240000000 cycles: 241764284 heartbeat IPC: 0.246185 cumulative IPC: 0.218073 (Simulation time: 1 hr 25 min 19 sec) 
Heartbeat CPU 0 instructions: 360000000 cycles: 243034625 heartbeat IPC: 0.667934 cumulative IPC: 0.676001 (Simulation time: 1 hr 25 min 33 sec) 
Heartbeat CPU 2 instructions: 470000001 cycles: 245558809 heartbeat IPC: 1.56632 cumulative IPC: 1.53369 (Simulation time: 1 hr 26 min 3 sec) 
Heartbeat CPU 2 instructions: 480000000 cycles: 251957897 heartbeat IPC: 1.56272 cumulative IPC: 1.53515 (Simulation time: 1 hr 27 min 24 sec) 
Heartbeat CPU 0 instructions: 370000002 cycles: 257582348 heartbeat IPC: 0.687393 cumulative IPC: 0.677248 (Simulation time: 1 hr 28 min 34 sec) 
Heartbeat CPU 2 instructions: 490000000 cycles: 258321639 heartbeat IPC: 1.5714 cumulative IPC: 1.53688 (Simulation time: 1 hr 28 min 43 sec) 
Heartbeat CPU 2 instructions: 500000000 cycles: 264834226 heartbeat IPC: 1.53549 cumulative IPC: 1.53681 (Simulation time: 1 hr 30 min 5 sec) 
Heartbeat CPU 3 instructions: 250000002 cycles: 270528709 heartbeat IPC: 0.347652 cumulative IPC: 0.243628 (Simulation time: 1 hr 31 min 17 sec) 
Heartbeat CPU 2 instructions: 510000000 cycles: 271268733 heartbeat IPC: 1.55412 cumulative IPC: 1.53757 (Simulation time: 1 hr 31 min 27 sec) 
Heartbeat CPU 0 instructions: 380000000 cycles: 272355264 heartbeat IPC: 0.676914 cumulative IPC: 0.677215 (Simulation time: 1 hr 31 min 41 sec) 
Heartbeat CPU 2 instructions: 520000000 cycles: 277710561 heartbeat IPC: 1.55235 cumulative IPC: 1.53819 (Simulation time: 1 hr 32 min 45 sec) 
Heartbeat CPU 2 instructions: 530000001 cycles: 284199035 heartbeat IPC: 1.54119 cumulative IPC: 1.53832 (Simulation time: 1 hr 33 min 57 sec) 
Heartbeat CPU 0 instructions: 390000001 cycles: 287466870 heartbeat IPC: 0.661743 cumulative IPC: 0.675779 (Simulation time: 1 hr 34 min 34 sec) 
Heartbeat CPU 2 instructions: 540000000 cycles: 290741553 heartbeat IPC: 1.52846 cumulative IPC: 1.53793 (Simulation time: 1 hr 35 min 11 sec) 
Heartbeat CPU 2 instructions: 550000001 cycles: 297236291 heartbeat IPC: 1.53971 cumulative IPC: 1.53799 (Simulation time: 1 hr 36 min 27 sec) 
Heartbeat CPU 0 instructions: 400000000 cycles: 302458494 heartbeat IPC: 0.667039 cumulative IPC: 0.675042 (Simulation time: 1 hr 37 min 26 sec) 
Heartbeat CPU 2 instructions: 560000000 cycles: 303683016 heartbeat IPC: 1.55117 cumulative IPC: 1.53847 (Simulation time: 1 hr 37 min 40 sec) 
Heartbeat CPU 1 instructions: 220000000 cycles: 305450313 heartbeat IPC: 0.111364 cumulative IPC: 0.110635 (Simulation time: 1 hr 37 min 59 sec) 
Heartbeat CPU 2 instructions: 570000000 cycles: 310210061 heartbeat IPC: 1.53209 cumulative IPC: 1.53824 (Simulation time: 1 hr 38 min 49 sec) 
Heartbeat CPU 2 instructions: 580000000 cycles: 316670872 heartbeat IPC: 1.54779 cumulative IPC: 1.53857 (Simulation time: 1 hr 39 min 55 sec) 
Heartbeat CPU 0 instructions: 410000003 cycles: 317567068 heartbeat IPC: 0.661876 cumulative IPC: 0.67401 (Simulation time: 1 hr 40 min 4 sec) 
Heartbeat CPU 2 instructions: 590000002 cycles: 323217358 heartbeat IPC: 1.52754 cumulative IPC: 1.5382 (Simulation time: 1 hr 41 min 1 sec) 
Heartbeat CPU 2 instructions: 600000000 cycles: 329742313 heartbeat IPC: 1.53258 cumulative IPC: 1.53802 (Simulation time: 1 hr 42 min 8 sec) 
Heartbeat CPU 0 instructions: 420000000 cycles: 332560120 heartbeat IPC: 0.666975 cumulative IPC: 0.673503 (Simulation time: 1 hr 42 min 36 sec) 
Heartbeat CPU 2 instructions: 610000003 cycles: 336306285 heartbeat IPC: 1.52347 cumulative IPC: 1.53757 (Simulation time: 1 hr 43 min 14 sec) 
Heartbeat CPU 2 instructions: 620000000 cycles: 342754302 heartbeat IPC: 1.55086 cumulative IPC: 1.53796 (Simulation time: 1 hr 44 min 20 sec) 
Heartbeat CPU 0 instructions: 430000002 cycles: 347752974 heartbeat IPC: 0.658204 cumulative IPC: 0.672461 (Simulation time: 1 hr 45 min 11 sec) 
Heartbeat CPU 2 instructions: 630000000 cycles: 349244784 heartbeat IPC: 1.54072 cumulative IPC: 1.53804 (Simulation time: 1 hr 45 min 26 sec) 
Heartbeat CPU 2 instructions: 640000000 cycles: 355696362 heartbeat IPC: 1.55001 cumulative IPC: 1.53838 (Simulation time: 1 hr 46 min 32 sec) 
Heartbeat CPU 2 instructions: 650000001 cycles: 362102392 heartbeat IPC: 1.56103 cumulative IPC: 1.53899 (Simulation time: 1 hr 47 min 38 sec) 
Heartbeat CPU 0 instructions: 440000000 cycles: 362853538 heartbeat IPC: 0.662227 cumulative IPC: 0.671812 (Simulation time: 1 hr 47 min 45 sec) 
Heartbeat CPU 3 instructions: 260000000 cycles: 364634117 heartbeat IPC: 0.106264 cumulative IPC: 0.189757 (Simulation time: 1 hr 48 min 3 sec) 
Heartbeat CPU 2 instructions: 660000000 cycles: 368587827 heartbeat IPC: 1.54192 cumulative IPC: 1.53907 (Simulation time: 1 hr 48 min 43 sec) 
Heartbeat CPU 2 instructions: 670000002 cycles: 375127842 heartbeat IPC: 1.52905 cumulative IPC: 1.53881 (Simulation time: 1 hr 49 min 53 sec) 
Heartbeat CPU 0 instructions: 450000002 cycles: 377970090 heartbeat IPC: 0.661527 cumulative IPC: 0.671198 (Simulation time: 1 hr 50 min 24 sec) 
Heartbeat CPU 2 instructions: 680000000 cycles: 381662714 heartbeat IPC: 1.53025 cumulative IPC: 1.53859 (Simulation time: 1 hr 51 min 4 sec) 
Heartbeat CPU 2 instructions: 690000001 cycles: 388156743 heartbeat IPC: 1.53988 cumulative IPC: 1.53862 (Simulation time: 1 hr 52 min 16 sec) 
Heartbeat CPU 0 instructions: 460000000 cycles: 392985013 heartbeat IPC: 0.666004 cumulative IPC: 0.670908 (Simulation time: 1 hr 53 min 9 sec) 
Heartbeat CPU 2 instructions: 700000000 cycles: 394588148 heartbeat IPC: 1.55487 cumulative IPC: 1.53901 (Simulation time: 1 hr 53 min 27 sec) 
Heartbeat CPU 1 instructions: 230000000 cycles: 395789084 heartbeat IPC: 0.110694 cumulative IPC: 0.110655 (Simulation time: 1 hr 53 min 40 sec) 
Heartbeat CPU 2 instructions: 710000000 cycles: 401066369 heartbeat IPC: 1.54363 cumulative IPC: 1.53912 (Simulation time: 1 hr 54 min 38 sec) 
Heartbeat CPU 2 instructions: 720000000 cycles: 407471820 heartbeat IPC: 1.56117 cumulative IPC: 1.53962 (Simulation time: 1 hr 55 min 49 sec) 
Heartbeat CPU 0 instructions: 470000001 cycles: 408132432 heartbeat IPC: 0.660179 cumulative IPC: 0.670334 (Simulation time: 1 hr 55 min 56 sec) 
Heartbeat CPU 2 instructions: 730000003 cycles: 413965528 heartbeat IPC: 1.53995 cumulative IPC: 1.53962 (Simulation time: 1 hr 57 min 1 sec) 
Heartbeat CPU 2 instructions: 740000000 cycles: 420370788 heartbeat IPC: 1.56122 cumulative IPC: 1.54009 (Simulation time: 1 hr 58 min 12 sec) 
Heartbeat CPU 0 instructions: 480000000 cycles: 422989942 heartbeat IPC: 0.67306 cumulative IPC: 0.67047 (Simulation time: 1 hr 58 min 41 sec) 
Heartbeat CPU 2 instructions: 750000000 cycles: 426809721 heartbeat IPC: 1.55305 cumulative IPC: 1.54037 (Simulation time: 1 hr 59 min 24 sec) 
Heartbeat CPU 2 instructions: 760000000 cycles: 433219118 heartbeat IPC: 1.56021 cumulative IPC: 1.54078 (Simulation time: 2 hr 0 min 35 sec) 
Heartbeat CPU 0 instructions: 490000001 cycles: 437912110 heartbeat IPC: 0.670144 cumulative IPC: 0.670455 (Simulation time: 2 hr 1 min 28 sec) 
Heartbeat CPU 2 instructions: 770000000 cycles: 439588370 heartbeat IPC: 1.57004 cumulative IPC: 1.54137 (Simulation time: 2 hr 1 min 47 sec) 
Heartbeat CPU 2 instructions: 780000000 cycles: 446043938 heartbeat IPC: 1.54905 cumulative IPC: 1.54153 (Simulation time: 2 hr 2 min 57 sec) 
Heartbeat CPU 2 instructions: 790000001 cycles: 452435337 heartbeat IPC: 1.5646 cumulative IPC: 1.54198 (Simulation time: 2 hr 4 min 6 sec) 
Heartbeat CPU 2 instructions: 800000000 cycles: 458879390 heartbeat IPC: 1.55182 cumulative IPC: 1.54217 (Simulation time: 2 hr 5 min 6 sec) 
Heartbeat CPU 0 instructions: 500000000 cycles: 462465278 heartbeat IPC: 0.407279 cumulative IPC: 0.651325 (Simulation time: 2 hr 5 min 40 sec) 
Heartbeat CPU 2 instructions: 810000001 cycles: 465303590 heartbeat IPC: 1.55661 cumulative IPC: 1.54244 (Simulation time: 2 hr 6 min 6 sec) 
Heartbeat CPU 2 instructions: 820000000 cycles: 471744261 heartbeat IPC: 1.55263 cumulative IPC: 1.54263 (Simulation time: 2 hr 7 min 7 sec) 
Heartbeat CPU 2 instructions: 830000002 cycles: 478928863 heartbeat IPC: 1.39187 cumulative IPC: 1.53957 (Simulation time: 2 hr 8 min 22 sec) 
Heartbeat CPU 2 instructions: 840000000 cycles: 487754417 heartbeat IPC: 1.13307 cumulative IPC: 1.52969 (Simulation time: 2 hr 9 min 51 sec) 
Heartbeat CPU 1 instructions: 240000000 cycles: 491174748 heartbeat IPC: 0.104838 cumulative IPC: 0.109141 (Simulation time: 2 hr 10 min 30 sec) 
Heartbeat CPU 3 instructions: 270000000 cycles: 492186392 heartbeat IPC: 0.0783992 cumulative IPC: 0.151108 (Simulation time: 2 hr 10 min 41 sec) 
Heartbeat CPU 0 instructions: 510000001 cycles: 494781350 heartbeat IPC: 0.309444 cumulative IPC: 0.621473 (Simulation time: 2 hr 11 min 10 sec) 
Heartbeat CPU 2 instructions: 850000003 cycles: 495022169 heartbeat IPC: 1.37594 cumulative IPC: 1.52667 (Simulation time: 2 hr 11 min 12 sec) 
Heartbeat CPU 2 instructions: 860000000 cycles: 501853825 heartbeat IPC: 1.46377 cumulative IPC: 1.52553 (Simulation time: 2 hr 12 min 29 sec) 
Heartbeat CPU 2 instructions: 870000000 cycles: 508519036 heartbeat IPC: 1.50033 cumulative IPC: 1.52509 (Simulation time: 2 hr 13 min 43 sec) 
Heartbeat CPU 0 instructions: 520000000 cycles: 509781345 heartbeat IPC: 0.666667 cumulative IPC: 0.623234 (Simulation time: 2 hr 13 min 57 sec) 
Heartbeat CPU 2 instructions: 880000000 cycles: 515167564 heartbeat IPC: 1.50409 cumulative IPC: 1.52474 (Simulation time: 2 hr 15 min 4 sec) 
Heartbeat CPU 2 instructions: 890000000 cycles: 522457544 heartbeat IPC: 1.37175 cumulative IPC: 1.52193 (Simulation time: 2 hr 16 min 30 sec) 
Heartbeat CPU 0 instructions: 530000001 cycles: 524491344 heartbeat IPC: 0.67981 cumulative IPC: 0.625315 (Simulation time: 2 hr 16 min 59 sec) 
Heartbeat CPU 2 instructions: 900000000 cycles: 529168665 heartbeat IPC: 1.49006 cumulative IPC: 1.5214 (Simulation time: 2 hr 18 min 2 sec) 
Heartbeat CPU 2 instructions: 910000003 cycles: 535936631 heartbeat IPC: 1.47755 cumulative IPC: 1.52068 (Simulation time: 2 hr 19 min 30 sec) 
Heartbeat CPU 0 instructions: 540000000 cycles: 539308971 heartbeat IPC: 0.674872 cumulative IPC: 0.627086 (Simulation time: 2 hr 20 min 17 sec) 
Heartbeat CPU 3 instructions: 280000000 cycles: 542457006 heartbeat IPC: 0.198923 cumulative IPC: 0.156862 (Simulation time: 2 hr 21 min 1 sec) 
Heartbeat CPU 2 instructions: 920000000 cycles: 542659893 heartbeat IPC: 1.48737 cumulative IPC: 1.52015 (Simulation time: 2 hr 21 min 4 sec) 
Heartbeat CPU 2 instructions: 930000002 cycles: 549446157 heartbeat IPC: 1.47357 cumulative IPC: 1.5194 (Simulation time: 2 hr 22 min 36 sec) 
Heartbeat CPU 0 instructions: 550000003 cycles: 553854724 heartbeat IPC: 0.687486 cumulative IPC: 0.629133 (Simulation time: 2 hr 23 min 37 sec) 
Heartbeat CPU 2 instructions: 940000000 cycles: 556229334 heartbeat IPC: 1.47424 cumulative IPC: 1.51869 (Simulation time: 2 hr 24 min 3 sec) 
Heartbeat CPU 2 instructions: 950000003 cycles: 563031358 heartbeat IPC: 1.47015 cumulative IPC: 1.51794 (Simulation time: 2 hr 25 min 17 sec) 
Heartbeat CPU 0 instructions: 560000000 cycles: 568808663 heartbeat IPC: 0.66872 cumulative IPC: 0.630466 (Simulation time: 2 hr 26 min 27 sec) 
Heartbeat CPU 2 instructions: 960000000 cycles: 569891230 heartbeat IPC: 1.45775 cumulative IPC: 1.51701 (Simulation time: 2 hr 26 min 38 sec) 
Heartbeat CPU 2 instructions: 970000000 cycles: 576713057 heartbeat IPC: 1.46588 cumulative IPC: 1.51624 (Simulation time: 2 hr 28 min 2 sec) 
Heartbeat CPU 1 instructions: 250000002 cycles: 577798544 heartbeat IPC: 0.115442 cumulative IPC: 0.110345 (Simulation time: 2 hr 28 min 16 sec) 
Heartbeat CPU 2 instructions: 980000000 cycles: 583461962 heartbeat IPC: 1.48172 cumulative IPC: 1.51573 (Simulation time: 2 hr 29 min 21 sec) 
Heartbeat CPU 0 instructions: 570000003 cycles: 583573475 heartbeat IPC: 0.677286 cumulative IPC: 0.631973 (Simulation time: 2 hr 29 min 23 sec) 
Heartbeat CPU 2 instructions: 990000001 cycles: 590250428 heartbeat IPC: 1.47309 cumulative IPC: 1.51511 (Simulation time: 2 hr 30 min 44 sec) 
Heartbeat CPU 2 instructions: 1000000000 cycles: 597055218 heartbeat IPC: 1.46955 cumulative IPC: 1.51445 (Simulation time: 2 hr 32 min 4 sec) 
Heartbeat CPU 3 instructions: 290000000 cycles: 597426156 heartbeat IPC: 0.18192 cumulative IPC: 0.159775 (Simulation time: 2 hr 32 min 8 sec) 
Heartbeat CPU 0 instructions: 580000000 cycles: 598521030 heartbeat IPC: 0.669006 cumulative IPC: 0.633141 (Simulation time: 2 hr 32 min 22 sec) 
Heartbeat CPU 2 instructions: 1010000003 cycles: 604503661 heartbeat IPC: 1.34256 cumulative IPC: 1.51179 (Simulation time: 2 hr 33 min 33 sec) 
Heartbeat CPU 2 instructions: 1020000000 cycles: 611472578 heartbeat IPC: 1.43494 cumulative IPC: 1.51069 (Simulation time: 2 hr 34 min 54 sec) 
Heartbeat CPU 0 instructions: 590000000 cycles: 613216911 heartbeat IPC: 0.680463 cumulative IPC: 0.634564 (Simulation time: 2 hr 35 min 13 sec) 
Heartbeat CPU 2 instructions: 1030000001 cycles: 618481681 heartbeat IPC: 1.42672 cumulative IPC: 1.50949 (Simulation time: 2 hr 36 min 9 sec) 
Heartbeat CPU 2 instructions: 1040000000 cycles: 625512263 heartbeat IPC: 1.42236 cumulative IPC: 1.50827 (Simulation time: 2 hr 37 min 24 sec) 
Heartbeat CPU 0 instructions: 600000000 cycles: 628196826 heartbeat IPC: 0.667561 cumulative IPC: 0.635546 (Simulation time: 2 hr 37 min 52 sec) 
Heartbeat CPU 2 instructions: 1050000000 cycles: 632610228 heartbeat IPC: 1.40885 cumulative IPC: 1.50688 (Simulation time: 2 hr 38 min 40 sec) 
Heartbeat CPU 2 instructions: 1060000000 cycles: 639122309 heartbeat IPC: 1.53561 cumulative IPC: 1.50725 (Simulation time: 2 hr 39 min 52 sec) 
Heartbeat CPU 0 instructions: 610000002 cycles: 643044708 heartbeat IPC: 0.673497 cumulative IPC: 0.636633 (Simulation time: 2 hr 40 min 36 sec) 
Heartbeat CPU 2 instructions: 1070000001 cycles: 645701798 heartbeat IPC: 1.51988 cumulative IPC: 1.5074 (Simulation time: 2 hr 41 min 5 sec) 
Heartbeat CPU 2 instructions: 1080000000 cycles: 652273757 heartbeat IPC: 1.52162 cumulative IPC: 1.50758 (Simulation time: 2 hr 42 min 25 sec) 
Heartbeat CPU 3 instructions: 300000000 cycles: 653974649 heartbeat IPC: 0.176839 cumulative IPC: 0.161598 (Simulation time: 2 hr 42 min 45 sec) 
Heartbeat CPU 0 instructions: 620000000 cycles: 657904163 heartbeat IPC: 0.672972 cumulative IPC: 0.637646 (Simulation time: 2 hr 43 min 43 sec) 
Heartbeat CPU 2 instructions: 1090000002 cycles: 658982139 heartbeat IPC: 1.49067 cumulative IPC: 1.50737 (Simulation time: 2 hr 43 min 57 sec) 
Heartbeat CPU 1 instructions: 260000000 cycles: 662790516 heartbeat IPC: 0.117658 cumulative IPC: 0.1115 (Simulation time: 2 hr 44 min 49 sec) 
Heartbeat CPU 2 instructions: 1100000000 cycles: 665581706 heartbeat IPC: 1.51525 cumulative IPC: 1.50747 (Simulation time: 2 hr 45 min 25 sec) 
Heartbeat CPU 2 instructions: 1110000003 cycles: 672256230 heartbeat IPC: 1.49823 cumulative IPC: 1.50735 (Simulation time: 2 hr 46 min 37 sec) 
Heartbeat CPU 0 instructions: 630000001 cycles: 672529992 heartbeat IPC: 0.683722 cumulative IPC: 0.638876 (Simulation time: 2 hr 46 min 40 sec) 
Heartbeat CPU 2 instructions: 1120000000 cycles: 678911706 heartbeat IPC: 1.50252 cumulative IPC: 1.5073 (Simulation time: 2 hr 47 min 56 sec) 
Heartbeat CPU 2 instructions: 1130000000 cycles: 686033573 heartbeat IPC: 1.40413 cumulative IPC: 1.50599 (Simulation time: 2 hr 49 min 23 sec) 
Heartbeat CPU 0 instructions: 640000000 cycles: 687103667 heartbeat IPC: 0.686169 cumulative IPC: 0.640101 (Simulation time: 2 hr 49 min 34 sec) 
Heartbeat CPU 3 instructions: 310000001 cycles: 691824907 heartbeat IPC: 0.264199 cumulative IPC: 0.168446 (Simulation time: 2 hr 50 min 27 sec) 
Heartbeat CPU 2 instructions: 1140000000 cycles: 692698052 heartbeat IPC: 1.50049 cumulative IPC: 1.50592 (Simulation time: 2 hr 50 min 39 sec) 
Heartbeat CPU 2 instructions: 1150000000 cycles: 699381868 heartbeat IPC: 1.49615 cumulative IPC: 1.50581 (Simulation time: 2 hr 52 min 3 sec) 
Heartbeat CPU 0 instructions: 650000003 cycles: 701861228 heartbeat IPC: 0.677619 cumulative IPC: 0.64106 (Simulation time: 2 hr 52 min 34 sec) 
Heartbeat CPU 2 instructions: 1160000000 cycles: 705996075 heartbeat IPC: 1.5119 cumulative IPC: 1.50588 (Simulation time: 2 hr 53 min 25 sec) 
Heartbeat CPU 2 instructions: 1170000000 cycles: 714115212 heartbeat IPC: 1.23166 cumulative IPC: 1.5021 (Simulation time: 2 hr 54 min 49 sec) 
Heartbeat CPU 0 instructions: 660000000 cycles: 716470054 heartbeat IPC: 0.684518 cumulative IPC: 0.642133 (Simulation time: 2 hr 55 min 15 sec) 
Heartbeat CPU 2 instructions: 1180000000 cycles: 720674852 heartbeat IPC: 1.52447 cumulative IPC: 1.50235 (Simulation time: 2 hr 56 min 9 sec) 
Heartbeat CPU 2 instructions: 1190000001 cycles: 727278912 heartbeat IPC: 1.51422 cumulative IPC: 1.50248 (Simulation time: 2 hr 57 min 30 sec) 
Heartbeat CPU 0 instructions: 670000002 cycles: 731138819 heartbeat IPC: 0.681721 cumulative IPC: 0.643091 (Simulation time: 2 hr 58 min 12 sec) 
Heartbeat CPU 3 instructions: 320000000 cycles: 731213071 heartbeat IPC: 0.253883 cumulative IPC: 0.173994 (Simulation time: 2 hr 58 min 13 sec) 
Heartbeat CPU 2 instructions: 1200000000 cycles: 733985524 heartbeat IPC: 1.49107 cumulative IPC: 1.50235 (Simulation time: 2 hr 58 min 47 sec) 
Heartbeat CPU 2 instructions: 1210000002 cycles: 740503699 heartbeat IPC: 1.53417 cumulative IPC: 1.50269 (Simulation time: 3 hr 0 min 6 sec) 
Heartbeat CPU 1 instructions: 270000001 cycles: 745853992 heartbeat IPC: 0.12039 cumulative IPC: 0.112689 (Simulation time: 3 hr 1 min 6 sec) 
Heartbeat CPU 0 instructions: 680000000 cycles: 746429124 heartbeat IPC: 0.654009 cumulative IPC: 0.643359 (Simulation time: 3 hr 1 min 12 sec) 
Heartbeat CPU 2 instructions: 1220000000 cycles: 747542725 heartbeat IPC: 1.42065 cumulative IPC: 1.50176 (Simulation time: 3 hr 1 min 24 sec) 
Heartbeat CPU 2 instructions: 1230000000 cycles: 753823838 heartbeat IPC: 1.59207 cumulative IPC: 1.50266 (Simulation time: 3 hr 2 min 29 sec) 
Heartbeat CPU 2 instructions: 1240000000 cycles: 760143423 heartbeat IPC: 1.58238 cumulative IPC: 1.50346 (Simulation time: 3 hr 3 min 34 sec) 
Heartbeat CPU 0 instructions: 690000001 cycles: 763186194 heartbeat IPC: 0.596763 cumulative IPC: 0.642136 (Simulation time: 3 hr 4 min 5 sec) 
Heartbeat CPU 2 instructions: 1250000001 cycles: 766526929 heartbeat IPC: 1.56654 cumulative IPC: 1.50408 (Simulation time: 3 hr 4 min 39 sec) 
Heartbeat CPU 2 instructions: 1260000000 cycles: 773257668 heartbeat IPC: 1.48572 cumulative IPC: 1.50389 (Simulation time: 3 hr 5 min 52 sec) 
Heartbeat CPU 2 instructions: 1270000000 cycles: 779791371 heartbeat IPC: 1.53053 cumulative IPC: 1.50416 (Simulation time: 3 hr 7 min 2 sec) 
Heartbeat CPU 0 instructions: 700000000 cycles: 780996783 heartbeat IPC: 0.561464 cumulative IPC: 0.639947 (Simulation time: 3 hr 7 min 14 sec) 
Heartbeat CPU 2 instructions: 1280000000 cycles: 786233104 heartbeat IPC: 1.55238 cumulative IPC: 1.50463 (Simulation time: 3 hr 8 min 11 sec) 
Finished CPU 2 instructions: 1000000002 cycles: 664640487 cumulative IPC: 1.50457 (Simulation time: 3 hr 8 min 44 sec) 
Heartbeat CPU 2 instructions: 1290000001 cycles: 792972419 heartbeat IPC: 1.48383 cumulative IPC: 1.50442 (Simulation time: 3 hr 9 min 22 sec) 
Heartbeat CPU 2 instructions: 1300000000 cycles: 799518696 heartbeat IPC: 1.52759 cumulative IPC: 1.50464 (Simulation time: 3 hr 10 min 36 sec) 
Heartbeat CPU 3 instructions: 330000000 cycles: 799744123 heartbeat IPC: 0.145919 cumulative IPC: 0.171144 (Simulation time: 3 hr 10 min 39 sec) 
Heartbeat CPU 0 instructions: 710000002 cycles: 800678371 heartbeat IPC: 0.508089 cumulative IPC: 0.636108 (Simulation time: 3 hr 10 min 51 sec) 
Heartbeat CPU 2 instructions: 1310000002 cycles: 805838799 heartbeat IPC: 1.58225 cumulative IPC: 1.50536 (Simulation time: 3 hr 11 min 45 sec) 
Heartbeat CPU 2 instructions: 1320000000 cycles: 812781606 heartbeat IPC: 1.44034 cumulative IPC: 1.50471 (Simulation time: 3 hr 13 min 12 sec) 
Heartbeat CPU 2 instructions: 1330000003 cycles: 819117568 heartbeat IPC: 1.57829 cumulative IPC: 1.50538 (Simulation time: 3 hr 14 min 33 sec) 
Heartbeat CPU 0 instructions: 720000000 cycles: 823631357 heartbeat IPC: 0.435673 cumulative IPC: 0.629526 (Simulation time: 3 hr 15 min 30 sec) 
Heartbeat CPU 2 instructions: 1340000000 cycles: 825605848 heartbeat IPC: 1.54124 cumulative IPC: 1.50571 (Simulation time: 3 hr 15 min 51 sec) 
Heartbeat CPU 2 instructions: 1350000001 cycles: 831953787 heartbeat IPC: 1.57531 cumulative IPC: 1.50633 (Simulation time: 3 hr 16 min 59 sec) 
Heartbeat CPU 3 instructions: 340000000 cycles: 836578269 heartbeat IPC: 0.271487 cumulative IPC: 0.176336 (Simulation time: 3 hr 17 min 48 sec) 
Heartbeat CPU 2 instructions: 1360000000 cycles: 839129402 heartbeat IPC: 1.39361 cumulative IPC: 1.5052 (Simulation time: 3 hr 18 min 19 sec) 
Heartbeat CPU 1 instructions: 280000000 cycles: 839300743 heartbeat IPC: 0.107013 cumulative IPC: 0.111947 (Simulation time: 3 hr 18 min 21 sec) 
Heartbeat CPU 2 instructions: 1370000000 cycles: 845660261 heartbeat IPC: 1.53119 cumulative IPC: 1.50544 (Simulation time: 3 hr 19 min 35 sec) 
Heartbeat CPU 0 instructions: 730000002 cycles: 850732063 heartbeat IPC: 0.368994 cumulative IPC: 0.619802 (Simulation time: 3 hr 20 min 30 sec) 
Heartbeat CPU 2 instructions: 1380000000 cycles: 852232096 heartbeat IPC: 1.52165 cumulative IPC: 1.50558 (Simulation time: 3 hr 20 min 45 sec) 
Heartbeat CPU 2 instructions: 1390000001 cycles: 860397337 heartbeat IPC: 1.2247 cumulative IPC: 1.50247 (Simulation time: 3 hr 22 min 18 sec) 
Heartbeat CPU 3 instructions: 350000000 cycles: 865026011 heartbeat IPC: 0.351522 cumulative IPC: 0.183067 (Simulation time: 3 hr 23 min 16 sec) 
Heartbeat CPU 2 instructions: 1400000000 cycles: 867145791 heartbeat IPC: 1.48182 cumulative IPC: 1.50228 (Simulation time: 3 hr 23 min 39 sec) 
Heartbeat CPU 2 instructions: 1410000000 cycles: 874289721 heartbeat IPC: 1.39979 cumulative IPC: 1.5013 (Simulation time: 3 hr 24 min 56 sec) 
Heartbeat CPU 0 instructions: 740000000 cycles: 880492744 heartbeat IPC: 0.336014 cumulative IPC: 0.608627 (Simulation time: 3 hr 25 min 58 sec) 
Heartbeat CPU 2 instructions: 1420000000 cycles: 880766793 heartbeat IPC: 1.54391 cumulative IPC: 1.50167 (Simulation time: 3 hr 26 min 1 sec) 
Heartbeat CPU 2 instructions: 1430000000 cycles: 887335079 heartbeat IPC: 1.52247 cumulative IPC: 1.50185 (Simulation time: 3 hr 27 min 6 sec) 
Heartbeat CPU 2 instructions: 1440000000 cycles: 893953110 heartbeat IPC: 1.51102 cumulative IPC: 1.50193 (Simulation time: 3 hr 28 min 10 sec) 
Heartbeat CPU 2 instructions: 1450000003 cycles: 900501324 heartbeat IPC: 1.52713 cumulative IPC: 1.50214 (Simulation time: 3 hr 29 min 16 sec) 
Heartbeat CPU 2 instructions: 1460000000 cycles: 907683880 heartbeat IPC: 1.39226 cumulative IPC: 1.50113 (Simulation time: 3 hr 30 min 25 sec) 
Heartbeat CPU 0 instructions: 750000000 cycles: 910744354 heartbeat IPC: 0.330561 cumulative IPC: 0.597926 (Simulation time: 3 hr 30 min 55 sec) 
Heartbeat CPU 2 instructions: 1470000003 cycles: 914142228 heartbeat IPC: 1.54838 cumulative IPC: 1.50152 (Simulation time: 3 hr 31 min 30 sec) 
Heartbeat CPU 2 instructions: 1480000000 cycles: 920670191 heartbeat IPC: 1.53187 cumulative IPC: 1.50177 (Simulation time: 3 hr 32 min 41 sec) 
Heartbeat CPU 2 instructions: 1490000000 cycles: 927192733 heartbeat IPC: 1.53314 cumulative IPC: 1.50202 (Simulation time: 3 hr 33 min 57 sec) 
Heartbeat CPU 3 instructions: 360000000 cycles: 931329360 heartbeat IPC: 0.150822 cumulative IPC: 0.180417 (Simulation time: 3 hr 34 min 41 sec) 
Heartbeat CPU 2 instructions: 1500000000 cycles: 933712820 heartbeat IPC: 1.53372 cumulative IPC: 1.50228 (Simulation time: 3 hr 35 min 9 sec) 
Heartbeat CPU 1 instructions: 290000001 cycles: 935268741 heartbeat IPC: 0.104201 cumulative IPC: 0.11103 (Simulation time: 3 hr 35 min 26 sec) 
Heartbeat CPU 0 instructions: 760000000 cycles: 939479943 heartbeat IPC: 0.348001 cumulative IPC: 0.589112 (Simulation time: 3 hr 36 min 14 sec) 
Heartbeat CPU 2 instructions: 1510000001 cycles: 940297055 heartbeat IPC: 1.51878 cumulative IPC: 1.50241 (Simulation time: 3 hr 36 min 23 sec) 
Heartbeat CPU 2 instructions: 1520000000 cycles: 947325941 heartbeat IPC: 1.4227 cumulative IPC: 1.50173 (Simulation time: 3 hr 37 min 35 sec) 
Heartbeat CPU 2 instructions: 1530000001 cycles: 953845749 heartbeat IPC: 1.53379 cumulative IPC: 1.50198 (Simulation time: 3 hr 38 min 44 sec) 
Heartbeat CPU 2 instructions: 1540000000 cycles: 960264811 heartbeat IPC: 1.55786 cumulative IPC: 1.50241 (Simulation time: 3 hr 40 min 0 sec) 
Heartbeat CPU 2 instructions: 1550000001 cycles: 966752513 heartbeat IPC: 1.54138 cumulative IPC: 1.50271 (Simulation time: 3 hr 41 min 19 sec) 
Heartbeat CPU 0 instructions: 770000000 cycles: 967037697 heartbeat IPC: 0.362874 cumulative IPC: 0.581711 (Simulation time: 3 hr 41 min 22 sec) 
Heartbeat CPU 3 instructions: 370000001 cycles: 972836174 heartbeat IPC: 0.240924 cumulative IPC: 0.183378 (Simulation time: 3 hr 42 min 30 sec) 
Heartbeat CPU 2 instructions: 1560000000 cycles: 973177089 heartbeat IPC: 1.55652 cumulative IPC: 1.50312 (Simulation time: 3 hr 42 min 34 sec) 
Heartbeat CPU 2 instructions: 1570000001 cycles: 979584759 heartbeat IPC: 1.56063 cumulative IPC: 1.50355 (Simulation time: 3 hr 44 min 2 sec) 
Heartbeat CPU 2 instructions: 1580000000 cycles: 986099020 heartbeat IPC: 1.53509 cumulative IPC: 1.50379 (Simulation time: 3 hr 45 min 19 sec) 
Heartbeat CPU 0 instructions: 780000000 cycles: 992456510 heartbeat IPC: 0.393409 cumulative IPC: 0.576195 (Simulation time: 3 hr 46 min 51 sec) 
Heartbeat CPU 2 instructions: 1590000002 cycles: 992618757 heartbeat IPC: 1.5338 cumulative IPC: 1.50401 (Simulation time: 3 hr 46 min 53 sec) 
Heartbeat CPU 2 instructions: 1600000000 cycles: 999065979 heartbeat IPC: 1.55106 cumulative IPC: 1.50436 (Simulation time: 3 hr 48 min 15 sec) 
Heartbeat CPU 2 instructions: 1610000000 cycles: 1005816239 heartbeat IPC: 1.48142 cumulative IPC: 1.50418 (Simulation time: 3 hr 49 min 33 sec) 
Heartbeat CPU 3 instructions: 380000000 cycles: 1007493180 heartbeat IPC: 0.288542 cumulative IPC: 0.187506 (Simulation time: 3 hr 49 min 53 sec) 
Heartbeat CPU 2 instructions: 1620000000 cycles: 1013055659 heartbeat IPC: 1.38133 cumulative IPC: 1.50318 (Simulation time: 3 hr 50 min 55 sec) 
Heartbeat CPU 0 instructions: 790000003 cycles: 1017521918 heartbeat IPC: 0.398956 cumulative IPC: 0.571219 (Simulation time: 3 hr 51 min 46 sec) 
Heartbeat CPU 2 instructions: 1630000002 cycles: 1019702604 heartbeat IPC: 1.50445 cumulative IPC: 1.50319 (Simulation time: 3 hr 52 min 9 sec) 
Heartbeat CPU 2 instructions: 1640000000 cycles: 1026116250 heartbeat IPC: 1.55918 cumulative IPC: 1.50359 (Simulation time: 3 hr 53 min 23 sec) 
Heartbeat CPU 1 instructions: 300000000 cycles: 1028613228 heartbeat IPC: 0.10713 cumulative IPC: 0.110627 (Simulation time: 3 hr 53 min 48 sec) 
Heartbeat CPU 2 instructions: 1650000001 cycles: 1032606152 heartbeat IPC: 1.54086 cumulative IPC: 1.50386 (Simulation time: 3 hr 54 min 29 sec) 
Heartbeat CPU 2 instructions: 1660000000 cycles: 1039097595 heartbeat IPC: 1.54049 cumulative IPC: 1.50412 (Simulation time: 3 hr 55 min 40 sec) 
Heartbeat CPU 0 instructions: 800000000 cycles: 1042258415 heartbeat IPC: 0.404261 cumulative IPC: 0.566718 (Simulation time: 3 hr 56 min 17 sec) 
Heartbeat CPU 2 instructions: 1670000000 cycles: 1045528496 heartbeat IPC: 1.55499 cumulative IPC: 1.50447 (Simulation time: 3 hr 56 min 52 sec) 
Heartbeat CPU 2 instructions: 1680000000 cycles: 1051977248 heartbeat IPC: 1.55069 cumulative IPC: 1.50479 (Simulation time: 3 hr 58 min 6 sec) 
Heartbeat CPU 2 instructions: 1690000003 cycles: 1058427441 heartbeat IPC: 1.55034 cumulative IPC: 1.50511 (Simulation time: 3 hr 59 min 21 sec) 
Heartbeat CPU 2 instructions: 1700000000 cycles: 1064939419 heartbeat IPC: 1.53563 cumulative IPC: 1.50532 (Simulation time: 4 hr 0 min 44 sec) 
Heartbeat CPU 0 instructions: 810000001 cycles: 1066364928 heartbeat IPC: 0.414826 cumulative IPC: 0.56283 (Simulation time: 4 hr 0 min 59 sec) 
Heartbeat CPU 2 instructions: 1710000000 cycles: 1071475493 heartbeat IPC: 1.52997 cumulative IPC: 1.50549 (Simulation time: 4 hr 1 min 51 sec) 
Heartbeat CPU 2 instructions: 1720000000 cycles: 1077863143 heartbeat IPC: 1.56552 cumulative IPC: 1.50589 (Simulation time: 4 hr 3 min 1 sec) 
Heartbeat CPU 2 instructions: 1730000001 cycles: 1084226337 heartbeat IPC: 1.57154 cumulative IPC: 1.50633 (Simulation time: 4 hr 4 min 12 sec) 
Heartbeat CPU 3 instructions: 390000000 cycles: 1085301663 heartbeat IPC: 0.128521 cumulative IPC: 0.182729 (Simulation time: 4 hr 4 min 24 sec) 
Heartbeat CPU 0 instructions: 820000000 cycles: 1090402525 heartbeat IPC: 0.416015 cumulative IPC: 0.559176 (Simulation time: 4 hr 5 min 17 sec) 
Heartbeat CPU 2 instructions: 1740000000 cycles: 1090710568 heartbeat IPC: 1.5422 cumulative IPC: 1.50657 (Simulation time: 4 hr 5 min 20 sec) 
Heartbeat CPU 2 instructions: 1750000000 cycles: 1097199077 heartbeat IPC: 1.54119 cumulative IPC: 1.5068 (Simulation time: 4 hr 6 min 41 sec) 
Heartbeat CPU 2 instructions: 1760000000 cycles: 1103667570 heartbeat IPC: 1.54596 cumulative IPC: 1.50706 (Simulation time: 4 hr 7 min 57 sec) 
Heartbeat CPU 2 instructions: 1770000002 cycles: 1110140412 heartbeat IPC: 1.54492 cumulative IPC: 1.50731 (Simulation time: 4 hr 9 min 5 sec) 
Heartbeat CPU 0 instructions: 830000000 cycles: 1114417542 heartbeat IPC: 0.416406 cumulative IPC: 0.555711 (Simulation time: 4 hr 9 min 50 sec) 
Heartbeat CPU 2 instructions: 1780000000 cycles: 1116665033 heartbeat IPC: 1.53266 cumulative IPC: 1.50747 (Simulation time: 4 hr 10 min 14 sec) 
Heartbeat CPU 1 instructions: 310000001 cycles: 1121326187 heartbeat IPC: 0.10786 cumulative IPC: 0.11037 (Simulation time: 4 hr 11 min 0 sec) 
Heartbeat CPU 2 instructions: 1790000000 cycles: 1124855390 heartbeat IPC: 1.22095 cumulative IPC: 1.50513 (Simulation time: 4 hr 11 min 35 sec) 
Heartbeat CPU 2 instructions: 1800000000 cycles: 1131545186 heartbeat IPC: 1.49481 cumulative IPC: 1.50506 (Simulation time: 4 hr 12 min 46 sec) 
Heartbeat CPU 2 instructions: 1810000003 cycles: 1138195276 heartbeat IPC: 1.50374 cumulative IPC: 1.50505 (Simulation time: 4 hr 14 min 1 sec) 
Heartbeat CPU 0 instructions: 840000000 cycles: 1138535622 heartbeat IPC: 0.414627 cumulative IPC: 0.552355 (Simulation time: 4 hr 14 min 5 sec) 
Heartbeat CPU 2 instructions: 1820000000 cycles: 1144811780 heartbeat IPC: 1.51137 cumulative IPC: 1.50509 (Simulation time: 4 hr 15 min 14 sec) 
Heartbeat CPU 2 instructions: 1830000002 cycles: 1151449341 heartbeat IPC: 1.50658 cumulative IPC: 1.5051 (Simulation time: 4 hr 16 min 31 sec) 
Heartbeat CPU 2 instructions: 1840000000 cycles: 1158083304 heartbeat IPC: 1.50739 cumulative IPC: 1.50512 (Simulation time: 4 hr 17 min 41 sec) 
Heartbeat CPU 0 instructions: 850000001 cycles: 1161889918 heartbeat IPC: 0.428187 cumulative IPC: 0.549559 (Simulation time: 4 hr 18 min 25 sec) 
Heartbeat CPU 2 instructions: 1850000002 cycles: 1164802932 heartbeat IPC: 1.48818 cumulative IPC: 1.50501 (Simulation time: 4 hr 18 min 59 sec) 
Heartbeat CPU 3 instructions: 400000000 cycles: 1168630768 heartbeat IPC: 0.120006 cumulative IPC: 0.177722 (Simulation time: 4 hr 19 min 42 sec) 
Heartbeat CPU 2 instructions: 1860000000 cycles: 1171980834 heartbeat IPC: 1.39316 cumulative IPC: 1.50424 (Simulation time: 4 hr 20 min 19 sec) 
Heartbeat CPU 2 instructions: 1870000000 cycles: 1178565896 heartbeat IPC: 1.51859 cumulative IPC: 1.50433 (Simulation time: 4 hr 21 min 31 sec) 
Heartbeat CPU 2 instructions: 1880000000 cycles: 1185180842 heartbeat IPC: 1.51173 cumulative IPC: 1.50437 (Simulation time: 4 hr 22 min 39 sec) 
Heartbeat CPU 0 instructions: 860000000 cycles: 1185924608 heartbeat IPC: 0.416065 cumulative IPC: 0.546536 (Simulation time: 4 hr 22 min 47 sec) 
Heartbeat CPU 2 instructions: 1890000003 cycles: 1191738816 heartbeat IPC: 1.52486 cumulative IPC: 1.5045 (Simulation time: 4 hr 23 min 44 sec) 
Heartbeat CPU 2 instructions: 1900000000 cycles: 1198335556 heartbeat IPC: 1.5159 cumulative IPC: 1.50457 (Simulation time: 4 hr 24 min 56 sec) 
Heartbeat CPU 2 instructions: 1910000002 cycles: 1204853074 heartbeat IPC: 1.53433 cumulative IPC: 1.50475 (Simulation time: 4 hr 26 min 14 sec) 
Heartbeat CPU 3 instructions: 410000003 cycles: 1206744008 heartbeat IPC: 0.262376 cumulative IPC: 0.180704 (Simulation time: 4 hr 26 min 36 sec) 
Heartbeat CPU 0 instructions: 870000003 cycles: 1210505780 heartbeat IPC: 0.406816 cumulative IPC: 0.543373 (Simulation time: 4 hr 27 min 22 sec) 
Heartbeat CPU 1 instructions: 320000000 cycles: 1211374592 heartbeat IPC: 0.111051 cumulative IPC: 0.110426 (Simulation time: 4 hr 27 min 32 sec) 
Heartbeat CPU 2 instructions: 1920000000 cycles: 1211458575 heartbeat IPC: 1.51389 cumulative IPC: 1.50481 (Simulation time: 4 hr 27 min 33 sec) 
Heartbeat CPU 2 instructions: 1930000002 cycles: 1218054628 heartbeat IPC: 1.51606 cumulative IPC: 1.50487 (Simulation time: 4 hr 28 min 44 sec) 
Heartbeat CPU 2 instructions: 1940000000 cycles: 1224676964 heartbeat IPC: 1.51004 cumulative IPC: 1.5049 (Simulation time: 4 hr 30 min 5 sec) 
Heartbeat CPU 2 instructions: 1950000002 cycles: 1231172795 heartbeat IPC: 1.53945 cumulative IPC: 1.50511 (Simulation time: 4 hr 31 min 18 sec) 
Heartbeat CPU 0 instructions: 880000000 cycles: 1235014865 heartbeat IPC: 0.408012 cumulative IPC: 0.540385 (Simulation time: 4 hr 31 min 58 sec) 
Heartbeat CPU 3 instructions: 420000000 cycles: 1236746817 heartbeat IPC: 0.333302 cumulative IPC: 0.184821 (Simulation time: 4 hr 32 min 15 sec) 
Heartbeat CPU 2 instructions: 1960000000 cycles: 1238285216 heartbeat IPC: 1.40599 cumulative IPC: 1.50447 (Simulation time: 4 hr 32 min 30 sec) 
Heartbeat CPU 2 instructions: 1970000002 cycles: 1244827521 heartbeat IPC: 1.52851 cumulative IPC: 1.50462 (Simulation time: 4 hr 33 min 43 sec) 
Heartbeat CPU 2 instructions: 1980000000 cycles: 1251290125 heartbeat IPC: 1.54736 cumulative IPC: 1.50486 (Simulation time: 4 hr 34 min 52 sec) 
Heartbeat CPU 2 instructions: 1990000000 cycles: 1257868639 heartbeat IPC: 1.5201 cumulative IPC: 1.50495 (Simulation time: 4 hr 36 min 5 sec) 
Heartbeat CPU 0 instructions: 890000002 cycles: 1259498626 heartbeat IPC: 0.408434 cumulative IPC: 0.537538 (Simulation time: 4 hr 36 min 23 sec) 
*** Reached end of trace for Core: 2 Repeating trace: /scratch/user/djimenez/champsim-traces/speccpu2017/xz/648.exchange2_s/648.exchange2_s-584B.champsimtrace.xz
Heartbeat CPU 2 instructions: 2000000000 cycles: 1264415451 heartbeat IPC: 1.52746 cumulative IPC: 1.50508 (Simulation time: 4 hr 37 min 17 sec) 
Heartbeat CPU 2 instructions: 2010000003 cycles: 1270933025 heartbeat IPC: 1.53431 cumulative IPC: 1.50524 (Simulation time: 4 hr 38 min 25 sec) 
Heartbeat CPU 2 instructions: 2020000000 cycles: 1277490921 heartbeat IPC: 1.52488 cumulative IPC: 1.50536 (Simulation time: 4 hr 39 min 34 sec) 
Heartbeat CPU 3 instructions: 430000000 cycles: 1278326119 heartbeat IPC: 0.240504 cumulative IPC: 0.186828 (Simulation time: 4 hr 39 min 42 sec) 
Heartbeat CPU 0 instructions: 900000000 cycles: 1284365014 heartbeat IPC: 0.402149 cumulative IPC: 0.534635 (Simulation time: 4 hr 40 min 42 sec) 
Heartbeat CPU 2 instructions: 2030000002 cycles: 1284696121 heartbeat IPC: 1.38789 cumulative IPC: 1.50463 (Simulation time: 4 hr 40 min 46 sec) 
Heartbeat CPU 2 instructions: 2040000000 cycles: 1291289186 heartbeat IPC: 1.51674 cumulative IPC: 1.50469 (Simulation time: 4 hr 41 min 55 sec) 
Heartbeat CPU 2 instructions: 2050000003 cycles: 1297865933 heartbeat IPC: 1.52051 cumulative IPC: 1.50478 (Simulation time: 4 hr 43 min 11 sec) 
Heartbeat CPU 1 instructions: 330000000 cycles: 1301593331 heartbeat IPC: 0.110842 cumulative IPC: 0.110458 (Simulation time: 4 hr 43 min 56 sec) 
Heartbeat CPU 2 instructions: 2060000000 cycles: 1304460402 heartbeat IPC: 1.51642 cumulative IPC: 1.50485 (Simulation time: 4 hr 44 min 31 sec) 
Heartbeat CPU 0 instructions: 910000003 cycles: 1308702950 heartbeat IPC: 0.410881 cumulative IPC: 0.532092 (Simulation time: 4 hr 45 min 16 sec) 
Heartbeat CPU 2 instructions: 2070000002 cycles: 1310968154 heartbeat IPC: 1.53663 cumulative IPC: 1.50502 (Simulation time: 4 hr 45 min 42 sec) 
Heartbeat CPU 2 instructions: 2080000000 cycles: 1317487970 heartbeat IPC: 1.53379 cumulative IPC: 1.50518 (Simulation time: 4 hr 46 min 56 sec) 
Heartbeat CPU 2 instructions: 2090000002 cycles: 1324807712 heartbeat IPC: 1.36617 cumulative IPC: 1.50433 (Simulation time: 4 hr 48 min 18 sec) 
Heartbeat CPU 2 instructions: 2100000000 cycles: 1331586863 heartbeat IPC: 1.47511 cumulative IPC: 1.50417 (Simulation time: 4 hr 49 min 35 sec) 
Heartbeat CPU 0 instructions: 920000000 cycles: 1333298863 heartbeat IPC: 0.406571 cumulative IPC: 0.529537 (Simulation time: 4 hr 49 min 54 sec) 
Heartbeat CPU 2 instructions: 2110000000 cycles: 1338550806 heartbeat IPC: 1.43597 cumulative IPC: 1.50378 (Simulation time: 4 hr 50 min 50 sec) 
Heartbeat CPU 2 instructions: 2120000000 cycles: 1345458266 heartbeat IPC: 1.44771 cumulative IPC: 1.50346 (Simulation time: 4 hr 52 min 5 sec) 
Heartbeat CPU 2 instructions: 2130000001 cycles: 1352215375 heartbeat IPC: 1.47992 cumulative IPC: 1.50333 (Simulation time: 4 hr 53 min 22 sec) 
Heartbeat CPU 0 instructions: 930000000 cycles: 1358581548 heartbeat IPC: 0.395528 cumulative IPC: 0.526791 (Simulation time: 4 hr 54 min 32 sec) 
Heartbeat CPU 2 instructions: 2140000000 cycles: 1359008769 heartbeat IPC: 1.47202 cumulative IPC: 1.50316 (Simulation time: 4 hr 54 min 38 sec) 
Heartbeat CPU 2 instructions: 2150000003 cycles: 1366000178 heartbeat IPC: 1.43033 cumulative IPC: 1.50275 (Simulation time: 4 hr 55 min 51 sec) 
Heartbeat CPU 3 instructions: 440000000 cycles: 1372178903 heartbeat IPC: 0.10655 cumulative IPC: 0.180788 (Simulation time: 4 hr 57 min 7 sec) 
Heartbeat CPU 2 instructions: 2160000000 cycles: 1372869442 heartbeat IPC: 1.45576 cumulative IPC: 1.50249 (Simulation time: 4 hr 57 min 15 sec) 
Heartbeat CPU 2 instructions: 2170000000 cycles: 1379621344 heartbeat IPC: 1.48106 cumulative IPC: 1.50237 (Simulation time: 4 hr 58 min 37 sec) 
Heartbeat CPU 0 instructions: 940000000 cycles: 1382666783 heartbeat IPC: 0.415192 cumulative IPC: 0.524655 (Simulation time: 4 hr 59 min 14 sec) 
Heartbeat CPU 2 instructions: 2180000000 cycles: 1386504198 heartbeat IPC: 1.45289 cumulative IPC: 1.5021 (Simulation time: 4 hr 59 min 56 sec) 
Heartbeat CPU 2 instructions: 2190000000 cycles: 1393484225 heartbeat IPC: 1.43266 cumulative IPC: 1.50172 (Simulation time: 5 hr 1 min 21 sec) 
Heartbeat CPU 1 instructions: 340000000 cycles: 1398735696 heartbeat IPC: 0.102942 cumulative IPC: 0.109885 (Simulation time: 5 hr 2 min 18 sec) 
Heartbeat CPU 2 instructions: 2200000000 cycles: 1400366001 heartbeat IPC: 1.45311 cumulative IPC: 1.50146 (Simulation time: 5 hr 2 min 44 sec) 
Heartbeat CPU 3 instructions: 450000002 cycles: 1401000814 heartbeat IPC: 0.346958 cumulative IPC: 0.184541 (Simulation time: 5 hr 2 min 52 sec) 
Heartbeat CPU 0 instructions: 950000001 cycles: 1406747778 heartbeat IPC: 0.415265 cumulative IPC: 0.5226 (Simulation time: 5 hr 3 min 58 sec) 
Heartbeat CPU 2 instructions: 2210000002 cycles: 1407082695 heartbeat IPC: 1.48883 cumulative IPC: 1.50139 (Simulation time: 5 hr 4 min 3 sec) 
Heartbeat CPU 2 instructions: 2220000000 cycles: 1413993776 heartbeat IPC: 1.44695 cumulative IPC: 1.5011 (Simulation time: 5 hr 6 min 17 sec) 
Heartbeat CPU 2 instructions: 2230000002 cycles: 1420904964 heartbeat IPC: 1.44693 cumulative IPC: 1.50081 (Simulation time: 5 hr 7 min 29 sec) 
Heartbeat CPU 2 instructions: 2240000000 cycles: 1428526365 heartbeat IPC: 1.31209 cumulative IPC: 1.49971 (Simulation time: 5 hr 8 min 46 sec) 
Heartbeat CPU 0 instructions: 960000000 cycles: 1431000772 heartbeat IPC: 0.41232 cumulative IPC: 0.520553 (Simulation time: 5 hr 9 min 11 sec) 
Heartbeat CPU 2 instructions: 2250000003 cycles: 1435045650 heartbeat IPC: 1.53391 cumulative IPC: 1.49988 (Simulation time: 5 hr 9 min 56 sec) 
Heartbeat CPU 2 instructions: 2260000000 cycles: 1441429315 heartbeat IPC: 1.5665 cumulative IPC: 1.5002 (Simulation time: 5 hr 11 min 7 sec) 
Heartbeat CPU 3 instructions: 460000000 cycles: 1446799384 heartbeat IPC: 0.218347 cumulative IPC: 0.185712 (Simulation time: 5 hr 12 min 12 sec) 
Heartbeat CPU 2 instructions: 2270000002 cycles: 1447719936 heartbeat IPC: 1.58967 cumulative IPC: 1.50063 (Simulation time: 5 hr 12 min 33 sec) 
Heartbeat CPU 2 instructions: 2280000000 cycles: 1454716489 heartbeat IPC: 1.42927 cumulative IPC: 1.50025 (Simulation time: 5 hr 14 min 8 sec) 
Heartbeat CPU 0 instructions: 970000001 cycles: 1454976170 heartbeat IPC: 0.417094 cumulative IPC: 0.518688 (Simulation time: 5 hr 14 min 11 sec) 
Heartbeat CPU 2 instructions: 2290000001 cycles: 1461626012 heartbeat IPC: 1.44728 cumulative IPC: 1.49998 (Simulation time: 5 hr 15 min 30 sec) 
Heartbeat CPU 2 instructions: 2300000000 cycles: 1468699224 heartbeat IPC: 1.41378 cumulative IPC: 1.49953 (Simulation time: 5 hr 16 min 48 sec) 
Heartbeat CPU 2 instructions: 2310000003 cycles: 1475012904 heartbeat IPC: 1.58386 cumulative IPC: 1.49992 (Simulation time: 5 hr 18 min 7 sec) 
Heartbeat CPU 3 instructions: 470000000 cycles: 1477441173 heartbeat IPC: 0.326352 cumulative IPC: 0.188897 (Simulation time: 5 hr 18 min 34 sec) 
Heartbeat CPU 0 instructions: 980000000 cycles: 1479401178 heartbeat IPC: 0.409416 cumulative IPC: 0.516718 (Simulation time: 5 hr 19 min 0 sec) 
Heartbeat CPU 2 instructions: 2320000000 cycles: 1481455090 heartbeat IPC: 1.55227 cumulative IPC: 1.50017 (Simulation time: 5 hr 19 min 25 sec) 
Heartbeat CPU 2 instructions: 2330000003 cycles: 1487811194 heartbeat IPC: 1.57329 cumulative IPC: 1.50051 (Simulation time: 5 hr 20 min 44 sec) 
Heartbeat CPU 1 instructions: 350000000 cycles: 1490230985 heartbeat IPC: 0.109295 cumulative IPC: 0.109845 (Simulation time: 5 hr 21 min 13 sec) 
Heartbeat CPU 2 instructions: 2340000000 cycles: 1494219950 heartbeat IPC: 1.56036 cumulative IPC: 1.50079 (Simulation time: 5 hr 21 min 55 sec) 
Heartbeat CPU 2 instructions: 2350000000 cycles: 1500513095 heartbeat IPC: 1.58903 cumulative IPC: 1.50119 (Simulation time: 5 hr 23 min 5 sec) 
Heartbeat CPU 0 instructions: 990000000 cycles: 1503828203 heartbeat IPC: 0.409383 cumulative IPC: 0.514817 (Simulation time: 5 hr 23 min 46 sec) 
Heartbeat CPU 2 instructions: 2360000000 cycles: 1507468893 heartbeat IPC: 1.43765 cumulative IPC: 1.50087 (Simulation time: 5 hr 24 min 26 sec) 
Heartbeat CPU 3 instructions: 480000000 cycles: 1512534371 heartbeat IPC: 0.284956 cumulative IPC: 0.191326 (Simulation time: 5 hr 25 min 22 sec) 
Heartbeat CPU 2 instructions: 2370000003 cycles: 1513842900 heartbeat IPC: 1.56887 cumulative IPC: 1.50119 (Simulation time: 5 hr 25 min 38 sec) 
Heartbeat CPU 2 instructions: 2380000000 cycles: 1520187574 heartbeat IPC: 1.57612 cumulative IPC: 1.50153 (Simulation time: 5 hr 26 min 53 sec) 
Heartbeat CPU 2 instructions: 2390000000 cycles: 1526601708 heartbeat IPC: 1.55906 cumulative IPC: 1.50179 (Simulation time: 5 hr 28 min 0 sec) 
Heartbeat CPU 0 instructions: 1000000000 cycles: 1528386583 heartbeat IPC: 0.407193 cumulative IPC: 0.512934 (Simulation time: 5 hr 28 min 19 sec) 
Heartbeat CPU 2 instructions: 2400000000 cycles: 1533046907 heartbeat IPC: 1.55154 cumulative IPC: 1.50202 (Simulation time: 5 hr 29 min 7 sec) 
Heartbeat CPU 2 instructions: 2410000002 cycles: 1540062150 heartbeat IPC: 1.42547 cumulative IPC: 1.50164 (Simulation time: 5 hr 30 min 18 sec) 
Heartbeat CPU 2 instructions: 2420000000 cycles: 1546431968 heartbeat IPC: 1.5699 cumulative IPC: 1.50194 (Simulation time: 5 hr 31 min 25 sec) 
Heartbeat CPU 2 instructions: 2430000000 cycles: 1552813735 heartbeat IPC: 1.56696 cumulative IPC: 1.50223 (Simulation time: 5 hr 32 min 31 sec) 
Heartbeat CPU 0 instructions: 1010000001 cycles: 1552954179 heartbeat IPC: 0.40704 cumulative IPC: 0.511112 (Simulation time: 5 hr 32 min 33 sec) 
Heartbeat CPU 2 instructions: 2440000000 cycles: 1559275406 heartbeat IPC: 1.54759 cumulative IPC: 1.50244 (Simulation time: 5 hr 33 min 39 sec) 
Heartbeat CPU 2 instructions: 2450000000 cycles: 1565693774 heartbeat IPC: 1.55803 cumulative IPC: 1.50269 (Simulation time: 5 hr 34 min 46 sec) 
Heartbeat CPU 2 instructions: 2460000000 cycles: 1572064257 heartbeat IPC: 1.56974 cumulative IPC: 1.50298 (Simulation time: 5 hr 35 min 51 sec) 
Heartbeat CPU 0 instructions: 1020000000 cycles: 1576972806 heartbeat IPC: 0.416343 cumulative IPC: 0.509545 (Simulation time: 5 hr 36 min 43 sec) 
Heartbeat CPU 2 instructions: 2470000001 cycles: 1578449483 heartbeat IPC: 1.56612 cumulative IPC: 1.50326 (Simulation time: 5 hr 36 min 58 sec) 
Heartbeat CPU 1 instructions: 360000000 cycles: 1581553904 heartbeat IPC: 0.109502 cumulative IPC: 0.109824 (Simulation time: 5 hr 37 min 30 sec) 
Heartbeat CPU 2 instructions: 2480000000 cycles: 1584847737 heartbeat IPC: 1.56293 cumulative IPC: 1.50352 (Simulation time: 5 hr 38 min 5 sec) 
Heartbeat CPU 2 instructions: 2490000000 cycles: 1591210950 heartbeat IPC: 1.57153 cumulative IPC: 1.50381 (Simulation time: 5 hr 39 min 10 sec) 
Heartbeat CPU 3 instructions: 490000001 cycles: 1593834327 heartbeat IPC: 0.123001 cumulative IPC: 0.187545 (Simulation time: 5 hr 39 min 40 sec) 
Heartbeat CPU 2 instructions: 2500000000 cycles: 1597724679 heartbeat IPC: 1.53522 cumulative IPC: 1.50395 (Simulation time: 5 hr 40 min 27 sec) 
Heartbeat CPU 0 instructions: 1030000002 cycles: 1601177343 heartbeat IPC: 0.413146 cumulative IPC: 0.507965 (Simulation time: 5 hr 41 min 3 sec) 
Heartbeat CPU 2 instructions: 2510000000 cycles: 1604160367 heartbeat IPC: 1.55384 cumulative IPC: 1.50417 (Simulation time: 5 hr 41 min 37 sec) 
Heartbeat CPU 2 instructions: 2520000000 cycles: 1610602915 heartbeat IPC: 1.55218 cumulative IPC: 1.50438 (Simulation time: 5 hr 42 min 49 sec) 
Heartbeat CPU 2 instructions: 2530000001 cycles: 1617091467 heartbeat IPC: 1.54118 cumulative IPC: 1.50454 (Simulation time: 5 hr 44 min 7 sec) 
Heartbeat CPU 2 instructions: 2540000000 cycles: 1623633237 heartbeat IPC: 1.52864 cumulative IPC: 1.50464 (Simulation time: 5 hr 45 min 23 sec) 
Heartbeat CPU 0 instructions: 1040000000 cycles: 1625221889 heartbeat IPC: 0.415895 cumulative IPC: 0.50649 (Simulation time: 5 hr 45 min 41 sec) 
Heartbeat CPU 2 instructions: 2550000001 cycles: 1630128651 heartbeat IPC: 1.53955 cumulative IPC: 1.50479 (Simulation time: 5 hr 46 min 39 sec) 
Heartbeat CPU 3 instructions: 500000000 cycles: 1631040251 heartbeat IPC: 0.268774 cumulative IPC: 0.189552 (Simulation time: 5 hr 46 min 50 sec) 
Heartbeat CPU 2 instructions: 2560000000 cycles: 1636576290 heartbeat IPC: 1.55096 cumulative IPC: 1.50499 (Simulation time: 5 hr 47 min 53 sec) 
Heartbeat CPU 2 instructions: 2570000000 cycles: 1643101872 heartbeat IPC: 1.53243 cumulative IPC: 1.50511 (Simulation time: 5 hr 49 min 6 sec) 
Heartbeat CPU 2 instructions: 2580000000 cycles: 1649563604 heartbeat IPC: 1.54757 cumulative IPC: 1.50529 (Simulation time: 5 hr 50 min 25 sec) 
Heartbeat CPU 0 instructions: 1050000003 cycles: 1649619889 heartbeat IPC: 0.40987 cumulative IPC: 0.504944 (Simulation time: 5 hr 50 min 26 sec) 
Heartbeat CPU 2 instructions: 2590000002 cycles: 1656109507 heartbeat IPC: 1.52767 cumulative IPC: 1.50538 (Simulation time: 5 hr 51 min 44 sec) 
Heartbeat CPU 2 instructions: 2600000000 cycles: 1662632367 heartbeat IPC: 1.53307 cumulative IPC: 1.5055 (Simulation time: 5 hr 53 min 3 sec) 
Heartbeat CPU 2 instructions: 2610000003 cycles: 1669195445 heartbeat IPC: 1.52368 cumulative IPC: 1.50558 (Simulation time: 5 hr 54 min 28 sec) 
Heartbeat CPU 3 instructions: 510000003 cycles: 1671953871 heartbeat IPC: 0.244417 cumulative IPC: 0.191002 (Simulation time: 5 hr 55 min 6 sec) 
Heartbeat CPU 1 instructions: 370000001 cycles: 1672059414 heartbeat IPC: 0.110491 cumulative IPC: 0.109863 (Simulation time: 5 hr 55 min 7 sec) 
Heartbeat CPU 0 instructions: 1060000000 cycles: 1674399000 heartbeat IPC: 0.403566 cumulative IPC: 0.503323 (Simulation time: 5 hr 55 min 36 sec) 
Heartbeat CPU 2 instructions: 2620000000 cycles: 1675643562 heartbeat IPC: 1.55084 cumulative IPC: 1.50577 (Simulation time: 5 hr 55 min 53 sec) 
Heartbeat CPU 2 instructions: 2630000000 cycles: 1682132544 heartbeat IPC: 1.54107 cumulative IPC: 1.50591 (Simulation time: 5 hr 57 min 23 sec) 
Heartbeat CPU 2 instructions: 2640000000 cycles: 1688586022 heartbeat IPC: 1.54955 cumulative IPC: 1.50609 (Simulation time: 5 hr 58 min 42 sec) 
Heartbeat CPU 2 instructions: 2650000001 cycles: 1694990489 heartbeat IPC: 1.56141 cumulative IPC: 1.50632 (Simulation time: 5 hr 59 min 56 sec) 
Heartbeat CPU 0 instructions: 1070000003 cycles: 1698622712 heartbeat IPC: 0.412819 cumulative IPC: 0.50193 (Simulation time: 6 hr 0 min 34 sec) 
Heartbeat CPU 2 instructions: 2660000000 cycles: 1701475290 heartbeat IPC: 1.54207 cumulative IPC: 1.50647 (Simulation time: 6 hr 1 min 9 sec) 
Heartbeat CPU 3 instructions: 520000000 cycles: 1702497177 heartbeat IPC: 0.327404 cumulative IPC: 0.193643 (Simulation time: 6 hr 1 min 24 sec) 
Heartbeat CPU 2 instructions: 2670000002 cycles: 1708013359 heartbeat IPC: 1.5295 cumulative IPC: 1.50656 (Simulation time: 6 hr 2 min 29 sec) 
Heartbeat CPU 2 instructions: 2680000000 cycles: 1714550133 heartbeat IPC: 1.52981 cumulative IPC: 1.50666 (Simulation time: 6 hr 3 min 48 sec) 
Heartbeat CPU 2 instructions: 2690000001 cycles: 1721043710 heartbeat IPC: 1.53998 cumulative IPC: 1.50679 (Simulation time: 6 hr 5 min 12 sec) 
Heartbeat CPU 0 instructions: 1080000000 cycles: 1722983226 heartbeat IPC: 0.4105 cumulative IPC: 0.500536 (Simulation time: 6 hr 5 min 34 sec) 
Heartbeat CPU 2 instructions: 2700000000 cycles: 1727474823 heartbeat IPC: 1.55494 cumulative IPC: 1.50699 (Simulation time: 6 hr 6 min 26 sec) 
Heartbeat CPU 2 instructions: 2710000000 cycles: 1733950132 heartbeat IPC: 1.54433 cumulative IPC: 1.50714 (Simulation time: 6 hr 7 min 46 sec) 
Heartbeat CPU 2 instructions: 2720000000 cycles: 1740356322 heartbeat IPC: 1.56099 cumulative IPC: 1.50735 (Simulation time: 6 hr 8 min 53 sec) 
Heartbeat CPU 3 instructions: 530000000 cycles: 1740941292 heartbeat IPC: 0.260118 cumulative IPC: 0.195224 (Simulation time: 6 hr 9 min 0 sec) 
Heartbeat CPU 2 instructions: 2730000003 cycles: 1746851039 heartbeat IPC: 1.53971 cumulative IPC: 1.50748 (Simulation time: 6 hr 10 min 6 sec) 
Heartbeat CPU 0 instructions: 1090000000 cycles: 1747848199 heartbeat IPC: 0.402172 cumulative IPC: 0.499029 (Simulation time: 6 hr 10 min 18 sec) 
Heartbeat CPU 2 instructions: 2740000000 cycles: 1753257124 heartbeat IPC: 1.56102 cumulative IPC: 1.50769 (Simulation time: 6 hr 11 min 23 sec) 
Heartbeat CPU 2 instructions: 2750000001 cycles: 1759697206 heartbeat IPC: 1.55278 cumulative IPC: 1.50787 (Simulation time: 6 hr 12 min 30 sec) 
Heartbeat CPU 2 instructions: 2760000000 cycles: 1766105725 heartbeat IPC: 1.56042 cumulative IPC: 1.50807 (Simulation time: 6 hr 13 min 38 sec) 
Heartbeat CPU 1 instructions: 380000000 cycles: 1769316226 heartbeat IPC: 0.102821 cumulative IPC: 0.109446 (Simulation time: 6 hr 14 min 11 sec) 
Heartbeat CPU 2 instructions: 2770000000 cycles: 1772476660 heartbeat IPC: 1.56963 cumulative IPC: 1.50831 (Simulation time: 6 hr 14 min 44 sec) 
Heartbeat CPU 0 instructions: 1100000000 cycles: 1772718008 heartbeat IPC: 0.402094 cumulative IPC: 0.497567 (Simulation time: 6 hr 14 min 46 sec) 
Heartbeat CPU 2 instructions: 2780000000 cycles: 1778931093 heartbeat IPC: 1.54932 cumulative IPC: 1.50847 (Simulation time: 6 hr 15 min 51 sec) 
Heartbeat CPU 2 instructions: 2790000001 cycles: 1785323355 heartbeat IPC: 1.56439 cumulative IPC: 1.50869 (Simulation time: 6 hr 17 min 2 sec) 
Heartbeat CPU 2 instructions: 2800000000 cycles: 1791767058 heartbeat IPC: 1.5519 cumulative IPC: 1.50885 (Simulation time: 6 hr 18 min 14 sec) 
Heartbeat CPU 0 instructions: 1110000001 cycles: 1797841973 heartbeat IPC: 0.398026 cumulative IPC: 0.496072 (Simulation time: 6 hr 19 min 21 sec) 
Heartbeat CPU 2 instructions: 2810000001 cycles: 1798192764 heartbeat IPC: 1.55625 cumulative IPC: 1.50904 (Simulation time: 6 hr 19 min 24 sec) 
Heartbeat CPU 2 instructions: 2820000000 cycles: 1804632724 heartbeat IPC: 1.5528 cumulative IPC: 1.5092 (Simulation time: 6 hr 20 min 39 sec) 
Heartbeat CPU 2 instructions: 2830000002 cycles: 1811809744 heartbeat IPC: 1.39334 cumulative IPC: 1.50871 (Simulation time: 6 hr 22 min 0 sec) 
Heartbeat CPU 2 instructions: 2840000000 cycles: 1820627634 heartbeat IPC: 1.13406 cumulative IPC: 1.50676 (Simulation time: 6 hr 23 min 23 sec) 
Heartbeat CPU 3 instructions: 540000000 cycles: 1822228134 heartbeat IPC: 0.123021 cumulative IPC: 0.191767 (Simulation time: 6 hr 23 min 38 sec) 
Heartbeat CPU 0 instructions: 1120000000 cycles: 1822797826 heartbeat IPC: 0.400708 cumulative IPC: 0.49467 (Simulation time: 6 hr 23 min 44 sec) 
Heartbeat CPU 2 instructions: 2850000003 cycles: 1827897475 heartbeat IPC: 1.37555 cumulative IPC: 1.5062 (Simulation time: 6 hr 24 min 36 sec) 
Heartbeat CPU 2 instructions: 2860000000 cycles: 1834728960 heartbeat IPC: 1.46381 cumulative IPC: 1.50603 (Simulation time: 6 hr 25 min 45 sec) 
Heartbeat CPU 2 instructions: 2870000000 cycles: 1841395480 heartbeat IPC: 1.50003 cumulative IPC: 1.50601 (Simulation time: 6 hr 26 min 53 sec) 
Heartbeat CPU 0 instructions: 1130000002 cycles: 1847633616 heartbeat IPC: 0.402645 cumulative IPC: 0.493344 (Simulation time: 6 hr 27 min 57 sec) 
Heartbeat CPU 2 instructions: 2880000000 cycles: 1848038593 heartbeat IPC: 1.50532 cumulative IPC: 1.50601 (Simulation time: 6 hr 28 min 1 sec) 
Heartbeat CPU 2 instructions: 2890000000 cycles: 1855326374 heartbeat IPC: 1.37216 cumulative IPC: 1.50544 (Simulation time: 6 hr 29 min 13 sec) 
Heartbeat CPU 2 instructions: 2900000000 cycles: 1862039473 heartbeat IPC: 1.48962 cumulative IPC: 1.50538 (Simulation time: 6 hr 30 min 22 sec) 
Heartbeat CPU 1 instructions: 390000001 cycles: 1864673941 heartbeat IPC: 0.104868 cumulative IPC: 0.109195 (Simulation time: 6 hr 30 min 49 sec) 
Heartbeat CPU 2 instructions: 2910000003 cycles: 1868806969 heartbeat IPC: 1.47765 cumulative IPC: 1.50528 (Simulation time: 6 hr 31 min 33 sec) 
Heartbeat CPU 0 instructions: 1140000000 cycles: 1872758300 heartbeat IPC: 0.398015 cumulative IPC: 0.491974 (Simulation time: 6 hr 32 min 14 sec) 
Heartbeat CPU 2 instructions: 2920000000 cycles: 1875530219 heartbeat IPC: 1.48738 cumulative IPC: 1.50521 (Simulation time: 6 hr 32 min 43 sec) 
Heartbeat CPU 2 instructions: 2930000002 cycles: 1882314957 heartbeat IPC: 1.4739 cumulative IPC: 1.50509 (Simulation time: 6 hr 33 min 53 sec) 
Heartbeat CPU 2 instructions: 2940000000 cycles: 1889097232 heartbeat IPC: 1.47443 cumulative IPC: 1.50497 (Simulation time: 6 hr 35 min 4 sec) 
Heartbeat CPU 2 instructions: 2950000003 cycles: 1895897623 heartbeat IPC: 1.4705 cumulative IPC: 1.50484 (Simulation time: 6 hr 36 min 12 sec) 
Heartbeat CPU 0 instructions: 1150000000 cycles: 1897810036 heartbeat IPC: 0.399174 cumulative IPC: 0.490663 (Simulation time: 6 hr 36 min 31 sec) 
Heartbeat CPU 2 instructions: 2960000000 cycles: 1902757471 heartbeat IPC: 1.45776 cumulative IPC: 1.50465 (Simulation time: 6 hr 37 min 17 sec) 
Heartbeat CPU 2 instructions: 2970000000 cycles: 1909576606 heartbeat IPC: 1.46646 cumulative IPC: 1.50451 (Simulation time: 6 hr 38 min 23 sec) 
Heartbeat CPU 2 instructions: 2980000000 cycles: 1916327356 heartbeat IPC: 1.48132 cumulative IPC: 1.50442 (Simulation time: 6 hr 39 min 28 sec) 
Heartbeat CPU 0 instructions: 1160000000 cycles: 1922601111 heartbeat IPC: 0.403371 cumulative IPC: 0.489459 (Simulation time: 6 hr 40 min 27 sec) 
Heartbeat CPU 2 instructions: 2990000001 cycles: 1923118898 heartbeat IPC: 1.47242 cumulative IPC: 1.5043 (Simulation time: 6 hr 40 min 32 sec) 
Heartbeat CPU 3 instructions: 550000000 cycles: 1927052093 heartbeat IPC: 0.095398 cumulative IPC: 0.186162 (Simulation time: 6 hr 41 min 10 sec) 
Heartbeat CPU 2 instructions: 3000000000 cycles: 1929920890 heartbeat IPC: 1.47016 cumulative IPC: 1.50417 (Simulation time: 6 hr 41 min 45 sec) 
Heartbeat CPU 2 instructions: 3010000003 cycles: 1937368420 heartbeat IPC: 1.34273 cumulative IPC: 1.50351 (Simulation time: 6 hr 43 min 1 sec) 
Heartbeat CPU 2 instructions: 3020000000 cycles: 1944336926 heartbeat IPC: 1.43503 cumulative IPC: 1.50325 (Simulation time: 6 hr 44 min 27 sec) 
Heartbeat CPU 0 instructions: 1170000000 cycles: 1947110418 heartbeat IPC: 0.408008 cumulative IPC: 0.488364 (Simulation time: 6 hr 45 min 1 sec) 
Heartbeat CPU 1 instructions: 400000000 cycles: 1951158499 heartbeat IPC: 0.115628 cumulative IPC: 0.1095 (Simulation time: 6 hr 45 min 42 sec) 
Heartbeat CPU 2 instructions: 3030000001 cycles: 1951347448 heartbeat IPC: 1.42643 cumulative IPC: 1.50295 (Simulation time: 6 hr 45 min 44 sec) 
Heartbeat CPU 2 instructions: 3040000000 cycles: 1958376878 heartbeat IPC: 1.42259 cumulative IPC: 1.50264 (Simulation time: 6 hr 46 min 55 sec) 
Heartbeat CPU 2 instructions: 3050000002 cycles: 1965474126 heartbeat IPC: 1.409 cumulative IPC: 1.50228 (Simulation time: 6 hr 48 min 6 sec) 
Heartbeat CPU 0 instructions: 1180000000 cycles: 1971104506 heartbeat IPC: 0.416769 cumulative IPC: 0.487433 (Simulation time: 6 hr 49 min 4 sec) 
Heartbeat CPU 2 instructions: 3060000000 cycles: 1971988121 heartbeat IPC: 1.53516 cumulative IPC: 1.5024 (Simulation time: 6 hr 49 min 13 sec) 
Heartbeat CPU 2 instructions: 3070000001 cycles: 1978564477 heartbeat IPC: 1.5206 cumulative IPC: 1.50246 (Simulation time: 6 hr 50 min 21 sec) 
Heartbeat CPU 2 instructions: 3080000000 cycles: 1985138816 heartbeat IPC: 1.52107 cumulative IPC: 1.50253 (Simulation time: 6 hr 51 min 30 sec) 
Heartbeat CPU 2 instructions: 3090000002 cycles: 1991846948 heartbeat IPC: 1.49073 cumulative IPC: 1.50249 (Simulation time: 6 hr 52 min 49 sec) 
Heartbeat CPU 0 instructions: 1190000002 cycles: 1995825857 heartbeat IPC: 0.404509 cumulative IPC: 0.486338 (Simulation time: 6 hr 53 min 34 sec) 
Heartbeat CPU 2 instructions: 3100000000 cycles: 1998445095 heartbeat IPC: 1.51558 cumulative IPC: 1.50253 (Simulation time: 6 hr 54 min 1 sec) 
Heartbeat CPU 2 instructions: 3110000003 cycles: 2005119995 heartbeat IPC: 1.49815 cumulative IPC: 1.50252 (Simulation time: 6 hr 55 min 9 sec) 
Heartbeat CPU 2 instructions: 3120000000 cycles: 2011773797 heartbeat IPC: 1.5029 cumulative IPC: 1.50252 (Simulation time: 6 hr 56 min 17 sec) 
Heartbeat CPU 2 instructions: 3130000000 cycles: 2018892309 heartbeat IPC: 1.40479 cumulative IPC: 1.50215 (Simulation time: 6 hr 57 min 26 sec) 
Heartbeat CPU 0 instructions: 1200000000 cycles: 2020277840 heartbeat IPC: 0.408965 cumulative IPC: 0.48534 (Simulation time: 6 hr 57 min 39 sec) 
Heartbeat CPU 2 instructions: 3140000000 cycles: 2025557707 heartbeat IPC: 1.50029 cumulative IPC: 1.50214 (Simulation time: 6 hr 58 min 31 sec) 
Heartbeat CPU 3 instructions: 560000000 cycles: 2030841349 heartbeat IPC: 0.0963491 cumulative IPC: 0.181272 (Simulation time: 6 hr 59 min 21 sec) 
Heartbeat CPU 2 instructions: 3150000000 cycles: 2032242768 heartbeat IPC: 1.49587 cumulative IPC: 1.50212 (Simulation time: 6 hr 59 min 34 sec) 
Heartbeat CPU 2 instructions: 3160000000 cycles: 2038856244 heartbeat IPC: 1.51206 cumulative IPC: 1.50216 (Simulation time: 7 hr 0 min 37 sec) 
Heartbeat CPU 1 instructions: 410000002 cycles: 2042575200 heartbeat IPC: 0.109389 cumulative IPC: 0.109495 (Simulation time: 7 hr 1 min 12 sec) 
Heartbeat CPU 0 instructions: 1210000001 cycles: 2044875944 heartbeat IPC: 0.406535 cumulative IPC: 0.48433 (Simulation time: 7 hr 1 min 31 sec) 
Heartbeat CPU 2 instructions: 3170000000 cycles: 2046967694 heartbeat IPC: 1.23283 cumulative IPC: 1.50102 (Simulation time: 7 hr 1 min 48 sec) 
Heartbeat CPU 2 instructions: 3180000000 cycles: 2053526032 heartbeat IPC: 1.52478 cumulative IPC: 1.5011 (Simulation time: 7 hr 2 min 51 sec) 
Heartbeat CPU 2 instructions: 3190000001 cycles: 2060127688 heartbeat IPC: 1.51477 cumulative IPC: 1.50115 (Simulation time: 7 hr 3 min 53 sec) 
Heartbeat CPU 2 instructions: 3200000000 cycles: 2066833557 heartbeat IPC: 1.49123 cumulative IPC: 1.50111 (Simulation time: 7 hr 4 min 57 sec) 
Heartbeat CPU 0 instructions: 1220000000 cycles: 2069785653 heartbeat IPC: 0.40145 cumulative IPC: 0.483269 (Simulation time: 7 hr 5 min 25 sec) 
Heartbeat CPU 2 instructions: 3210000002 cycles: 2073351045 heartbeat IPC: 1.53433 cumulative IPC: 1.50122 (Simulation time: 7 hr 6 min 0 sec) 
Heartbeat CPU 2 instructions: 3220000000 cycles: 2080389577 heartbeat IPC: 1.42075 cumulative IPC: 1.50093 (Simulation time: 7 hr 7 min 5 sec) 
Heartbeat CPU 2 instructions: 3230000000 cycles: 2086671919 heartbeat IPC: 1.59176 cumulative IPC: 1.50122 (Simulation time: 7 hr 8 min 6 sec) 
Heartbeat CPU 2 instructions: 3240000000 cycles: 2092991347 heartbeat IPC: 1.58242 cumulative IPC: 1.50149 (Simulation time: 7 hr 9 min 8 sec) 
[...]
Heartbeat CPU 2 instructions: 14150000003 cycles: 9362862670 heartbeat IPC: 1.43087 cumulative IPC: 1.50088 (Simulation time: 21 hr 14 min 16 sec) 
Heartbeat CPU 2 instructions: 14160000000 cycles: 9369732939 heartbeat IPC: 1.45555 cumulative IPC: 1.50084 (Simulation time: 21 hr 15 min 0 sec) 
Heartbeat CPU 0 instructions: 4490000001 cycles: 9375228216 heartbeat IPC: 0.640552 cumulative IPC: 0.455109 (Simulation time: 21 hr 15 min 40 sec) 
Heartbeat CPU 2 instructions: 14170000000 cycles: 9376486640 heartbeat IPC: 1.48067 cumulative IPC: 1.50083 (Simulation time: 21 hr 15 min 49 sec) 
Heartbeat CPU 3 instructions: 1800000000 cycles: 9380597187 heartbeat IPC: 0.152657 cumulative IPC: 0.171299 (Simulation time: 21 hr 16 min 18 sec) 
Heartbeat CPU 2 instructions: 14180000000 cycles: 9383369632 heartbeat IPC: 1.45286 cumulative IPC: 1.50079 (Simulation time: 21 hr 16 min 37 sec) 
Heartbeat CPU 2 instructions: 14190000000 cycles: 9390346724 heartbeat IPC: 1.43326 cumulative IPC: 1.50074 (Simulation time: 21 hr 17 min 24 sec) 
Heartbeat CPU 2 instructions: 14200000000 cycles: 9397225945 heartbeat IPC: 1.45365 cumulative IPC: 1.50071 (Simulation time: 21 hr 18 min 5 sec) 
Heartbeat CPU 0 instructions: 4500000000 cycles: 9400554082 heartbeat IPC: 0.394853 cumulative IPC: 0.454945 (Simulation time: 21 hr 18 min 26 sec) 
Heartbeat CPU 2 instructions: 14210000002 cycles: 9403941267 heartbeat IPC: 1.48913 cumulative IPC: 1.5007 (Simulation time: 21 hr 18 min 45 sec) 
Heartbeat CPU 2 instructions: 14220000000 cycles: 9410852486 heartbeat IPC: 1.44692 cumulative IPC: 1.50066 (Simulation time: 21 hr 19 min 27 sec) 
Heartbeat CPU 3 instructions: 1810000002 cycles: 9416127457 heartbeat IPC: 0.28145 cumulative IPC: 0.171721 (Simulation time: 21 hr 19 min 59 sec) 
Heartbeat CPU 2 instructions: 14230000002 cycles: 9417763899 heartbeat IPC: 1.44688 cumulative IPC: 1.50062 (Simulation time: 21 hr 20 min 9 sec) 
Heartbeat CPU 2 instructions: 14240000000 cycles: 9425383912 heartbeat IPC: 1.31233 cumulative IPC: 1.50047 (Simulation time: 21 hr 20 min 58 sec) 
Heartbeat CPU 1 instructions: 1190000002 cycles: 9431360169 heartbeat IPC: 0.10699 cumulative IPC: 0.106375 (Simulation time: 21 hr 21 min 38 sec) 
Heartbeat CPU 2 instructions: 14250000003 cycles: 9431903550 heartbeat IPC: 1.53383 cumulative IPC: 1.50049 (Simulation time: 21 hr 21 min 42 sec) 
Heartbeat CPU 0 instructions: 4510000001 cycles: 9433864365 heartbeat IPC: 0.300208 cumulative IPC: 0.454391 (Simulation time: 21 hr 21 min 55 sec) 
Heartbeat CPU 2 instructions: 14260000000 cycles: 9438287440 heartbeat IPC: 1.56644 cumulative IPC: 1.50053 (Simulation time: 21 hr 22 min 25 sec) 
Heartbeat CPU 2 instructions: 14270000002 cycles: 9444577498 heartbeat IPC: 1.58981 cumulative IPC: 1.50059 (Simulation time: 21 hr 23 min 8 sec) 
Heartbeat CPU 0 instructions: 4520000000 cycles: 9449815997 heartbeat IPC: 0.626895 cumulative IPC: 0.454686 (Simulation time: 21 hr 23 min 40 sec) 
Heartbeat CPU 2 instructions: 14280000000 cycles: 9451573416 heartbeat IPC: 1.4294 cumulative IPC: 1.50054 (Simulation time: 21 hr 23 min 52 sec) 
Heartbeat CPU 2 instructions: 14290000001 cycles: 9458482805 heartbeat IPC: 1.44731 cumulative IPC: 1.5005 (Simulation time: 21 hr 24 min 36 sec) 
Heartbeat CPU 0 instructions: 4530000001 cycles: 9465499157 heartbeat IPC: 0.637627 cumulative IPC: 0.454993 (Simulation time: 21 hr 25 min 21 sec) 
Heartbeat CPU 2 instructions: 14300000000 cycles: 9465556722 heartbeat IPC: 1.41364 cumulative IPC: 1.50044 (Simulation time: 21 hr 25 min 22 sec) 
Heartbeat CPU 2 instructions: 14310000003 cycles: 9471871755 heartbeat IPC: 1.58352 cumulative IPC: 1.50049 (Simulation time: 21 hr 26 min 4 sec) 
Heartbeat CPU 2 instructions: 14320000000 cycles: 9478314295 heartbeat IPC: 1.55218 cumulative IPC: 1.50053 (Simulation time: 21 hr 26 min 47 sec) 
Heartbeat CPU 3 instructions: 1820000000 cycles: 9480300480 heartbeat IPC: 0.155829 cumulative IPC: 0.171612 (Simulation time: 21 hr 27 min 1 sec) 
Heartbeat CPU 0 instructions: 4540000000 cycles: 9481147691 heartbeat IPC: 0.639037 cumulative IPC: 0.455301 (Simulation time: 21 hr 27 min 7 sec) 
Heartbeat CPU 2 instructions: 14330000003 cycles: 9484673355 heartbeat IPC: 1.57256 cumulative IPC: 1.50058 (Simulation time: 21 hr 27 min 34 sec) 
Heartbeat CPU 2 instructions: 14340000000 cycles: 9491080443 heartbeat IPC: 1.56077 cumulative IPC: 1.50062 (Simulation time: 21 hr 28 min 17 sec) 
Heartbeat CPU 0 instructions: 4550000003 cycles: 9496702609 heartbeat IPC: 0.642884 cumulative IPC: 0.455612 (Simulation time: 21 hr 28 min 55 sec) 
Heartbeat CPU 2 instructions: 14350000000 cycles: 9497373746 heartbeat IPC: 1.58899 cumulative IPC: 1.50068 (Simulation time: 21 hr 29 min 0 sec) 
Heartbeat CPU 2 instructions: 14360000000 cycles: 9504327850 heartbeat IPC: 1.438 cumulative IPC: 1.50063 (Simulation time: 21 hr 29 min 50 sec) 
Heartbeat CPU 2 instructions: 14370000003 cycles: 9510703989 heartbeat IPC: 1.56835 cumulative IPC: 1.50068 (Simulation time: 21 hr 30 min 36 sec) 
Heartbeat CPU 3 instructions: 1830000001 cycles: 9511603132 heartbeat IPC: 0.319462 cumulative IPC: 0.172105 (Simulation time: 21 hr 30 min 42 sec) 
Heartbeat CPU 0 instructions: 4560000000 cycles: 9512106186 heartbeat IPC: 0.6492 cumulative IPC: 0.45593 (Simulation time: 21 hr 30 min 46 sec) 
Heartbeat CPU 2 instructions: 14380000000 cycles: 9517048967 heartbeat IPC: 1.57605 cumulative IPC: 1.50073 (Simulation time: 21 hr 31 min 23 sec) 
Heartbeat CPU 2 instructions: 14390000000 cycles: 9523462768 heartbeat IPC: 1.55914 cumulative IPC: 1.50077 (Simulation time: 21 hr 32 min 9 sec) 
Heartbeat CPU 0 instructions: 4570000003 cycles: 9527432089 heartbeat IPC: 0.65249 cumulative IPC: 0.45625 (Simulation time: 21 hr 32 min 38 sec) 
Heartbeat CPU 1 instructions: 1200000000 cycles: 9529347199 heartbeat IPC: 0.102054 cumulative IPC: 0.10633 (Simulation time: 21 hr 32 min 52 sec) 
Finished CPU 1 instructions: 1000000000 cycles: 9404672253 cumulative IPC: 0.10633 (Simulation time: 21 hr 32 min 52 sec) 

CPU 0 Branch Prediction Accuracy: 97.8067% MPKI: 0.338547

CPU 1 Branch Prediction Accuracy: 96.8196% MPKI: 9.50327

CPU 2 Branch Prediction Accuracy: 96.8024% MPKI: 4.52421

CPU 3 Branch Prediction Accuracy: 92.5735% MPKI: 14.1609

ChampSim completed all CPUs

Total Simulation Statistics (not including warmup)

CPU 0 cumulative IPC: 0.456293 instructions: 4291290123 cycles: 9404672253
L1D TOTAL     ACCESS: 1160118867  HIT:  883990253  MISS:  276128614
L1D LOAD      ACCESS:  420819410  HIT:  378954823  MISS:   41864587
L1D RFO       ACCESS:  739299457  HIT:  505035430  MISS:  234264027
L1D PREFETCH  ACCESS:          0  HIT:          0  MISS:          0
L1D WRITEBACK ACCESS:          0  HIT:          0  MISS:          0
L1I TOTAL     ACCESS: 1019336699  HIT: 1019336696  MISS:          3
L1I LOAD      ACCESS: 1019336699  HIT: 1019336696  MISS:          3
L1I RFO       ACCESS:          0  HIT:          0  MISS:          0
L1I PREFETCH  ACCESS:          0  HIT:          0  MISS:          0
L1I WRITEBACK ACCESS:          0  HIT:          0  MISS:          0
L2C TOTAL     ACCESS:  510392493  HIT:  302035970  MISS:  208356523
L2C LOAD      ACCESS:   41864590  HIT:      19249  MISS:   41845341
L2C RFO       ACCESS:  234263869  HIT:   67793653  MISS:  166470216
L2C PREFETCH  ACCESS:          0  HIT:          0  MISS:          0
L2C WRITEBACK ACCESS:  234264034  HIT:  234223068  MISS:      40966
LLC TOTAL     ACCESS:  374744182  HIT:  207448749  MISS:  167295433
LLC LOAD      ACCESS:   41845341  HIT:      24543  MISS:   41820798
LLC RFO       ACCESS:  166389832  HIT:   40922198  MISS:  125467634
LLC PREFETCH  ACCESS:          0  HIT:          0  MISS:          0
LLC WRITEBACK ACCESS:  166509009  HIT:  166502008  MISS:       7001

CPU 1 cumulative IPC: 0.10633 instructions: 1000000000 cycles: 9404672253
L1D TOTAL     ACCESS:  224235634  HIT:   67352075  MISS:  156883559
L1D LOAD      ACCESS:  208152098  HIT:   51587901  MISS:  156564197
L1D RFO       ACCESS:   16083536  HIT:   15764174  MISS:     319362
L1D PREFETCH  ACCESS:          0  HIT:          0  MISS:          0
L1D WRITEBACK ACCESS:          0  HIT:          0  MISS:          0
L1I TOTAL     ACCESS:  216671714  HIT:  216671714  MISS:          0
L1I LOAD      ACCESS:  216671714  HIT:  216671714  MISS:          0
L1I RFO       ACCESS:          0  HIT:          0  MISS:          0
L1I PREFETCH  ACCESS:          0  HIT:          0  MISS:          0
L1I WRITEBACK ACCESS:          0  HIT:          0  MISS:          0
L2C TOTAL     ACCESS:  159177287  HIT:   10980578  MISS:  148196709
L2C LOAD      ACCESS:  156563875  HIT:    8675778  MISS:  147888097
L2C RFO       ACCESS:     319362  HIT:      10902  MISS:     308460
L2C PREFETCH  ACCESS:          0  HIT:          0  MISS:          0
L2C WRITEBACK ACCESS:    2294050  HIT:    2293898  MISS:        152
LLC TOTAL     ACCESS:  150384697  HIT:   75095384  MISS:   75289313
LLC LOAD      ACCESS:  147888079  HIT:   72633728  MISS:   75254351
LLC RFO       ACCESS:     308459  HIT:     273515  MISS:      34944
LLC PREFETCH  ACCESS:          0  HIT:          0  MISS:          0
LLC WRITEBACK ACCESS:    2188159  HIT:    2188141  MISS:         18

CPU 2 cumulative IPC: 1.5008 instructions: 14114535987 cycles: 9404672254
L1D TOTAL     ACCESS: 3912979343  HIT: 3912979322  MISS:         21
L1D LOAD      ACCESS: 1711030720  HIT: 1711030707  MISS:         13
L1D RFO       ACCESS: 2201948623  HIT: 2201948615  MISS:          8
L1D PREFETCH  ACCESS:          0  HIT:          0  MISS:          0
L1D WRITEBACK ACCESS:          0  HIT:          0  MISS:          0
L1I TOTAL     ACCESS: 3075841460  HIT: 3075520287  MISS:     321173
L1I LOAD      ACCESS: 3075841460  HIT: 3075520287  MISS:     321173
L1I RFO       ACCESS:          0  HIT:          0  MISS:          0
L1I PREFETCH  ACCESS:          0  HIT:          0  MISS:          0
L1I WRITEBACK ACCESS:          0  HIT:          0  MISS:          0
L2C TOTAL     ACCESS:     321194  HIT:     321135  MISS:         59
L2C LOAD      ACCESS:     321186  HIT:     321135  MISS:         51
L2C RFO       ACCESS:          8  HIT:          0  MISS:          8
L2C PREFETCH  ACCESS:          0  HIT:          0  MISS:          0
L2C WRITEBACK ACCESS:          0  HIT:          0  MISS:          0
LLC TOTAL     ACCESS:         59  HIT:          0  MISS:         59
LLC LOAD      ACCESS:         51  HIT:          0  MISS:         51
LLC RFO       ACCESS:          8  HIT:          0  MISS:          8
LLC PREFETCH  ACCESS:          0  HIT:          0  MISS:          0
LLC WRITEBACK ACCESS:          0  HIT:          0  MISS:          0

CPU 3 cumulative IPC: 0.17251 instructions: 1622395663 cycles: 9404672254
L1D TOTAL     ACCESS:  671073007  HIT:  605913784  MISS:   65159223
L1D LOAD      ACCESS:  509506089  HIT:  444812355  MISS:   64693734
L1D RFO       ACCESS:  161566918  HIT:  161101429  MISS:     465489
L1D PREFETCH  ACCESS:          0  HIT:          0  MISS:          0
L1D WRITEBACK ACCESS:          0  HIT:          0  MISS:          0
L1I TOTAL     ACCESS:  362059884  HIT:  362059884  MISS:          0
L1I LOAD      ACCESS:  362059884  HIT:  362059884  MISS:          0
L1I RFO       ACCESS:          0  HIT:          0  MISS:          0
L1I PREFETCH  ACCESS:          0  HIT:          0  MISS:          0
L1I WRITEBACK ACCESS:          0  HIT:          0  MISS:          0
L2C TOTAL     ACCESS:   70077029  HIT:   20389855  MISS:   49687174
L2C LOAD      ACCESS:   64693672  HIT:   15102493  MISS:   49591179
L2C RFO       ACCESS:     465475  HIT:     377861  MISS:      87614
L2C PREFETCH  ACCESS:          0  HIT:          0  MISS:          0
L2C WRITEBACK ACCESS:    4917882  HIT:    4909501  MISS:       8381
LLC TOTAL     ACCESS:   53340847  HIT:   14097640  MISS:   39243207
LLC LOAD      ACCESS:   49591165  HIT:   10384350  MISS:   39206815
LLC RFO       ACCESS:      87614  HIT:      60439  MISS:      27175
LLC PREFETCH  ACCESS:          0  HIT:          0  MISS:          0
LLC WRITEBACK ACCESS:    3662068  HIT:    3652851  MISS:       9217

Region of Interest Statistics

CPU 0 cumulative IPC: 0.476903 instructions: 1000000001 cycles: 2096860558
L1D TOTAL     ACCESS:  269290112  HIT:  206541514  MISS:   62748598
L1D LOAD      ACCESS:   98248157  HIT:   88734588  MISS:    9513569
L1D RFO       ACCESS:  171041955  HIT:  117806926  MISS:   53235029
L1D PREFETCH  ACCESS:          0  HIT:          0  MISS:          0
L1D WRITEBACK ACCESS:          0  HIT:          0  MISS:          0
L1D PREFETCH  REQUESTED:          0  ISSUED:          0  USEFUL:          0  USELESS:          0
L1I TOTAL     ACCESS:  237192569  HIT:  237192566  MISS:          3
L1I LOAD      ACCESS:  237192569  HIT:  237192566  MISS:          3
L1I RFO       ACCESS:          0  HIT:          0  MISS:          0
L1I PREFETCH  ACCESS:          0  HIT:          0  MISS:          0
L1I WRITEBACK ACCESS:          0  HIT:          0  MISS:          0
L1I PREFETCH  REQUESTED:          0  ISSUED:          0  USEFUL:          0  USELESS:          0
L2C TOTAL     ACCESS:  115983592  HIT:   68924503  MISS:   47059089
L2C LOAD      ACCESS:    9513572  HIT:       4528  MISS:    9509044
L2C RFO       ACCESS:   53234992  HIT:   15694217  MISS:   37540775
L2C PREFETCH  ACCESS:          0  HIT:          0  MISS:          0
L2C WRITEBACK ACCESS:   53235028  HIT:   53225758  MISS:       9270
L2C PREFETCH  REQUESTED:          0  ISSUED:          0  USEFUL:          0  USELESS:          0
LLC TOTAL     ACCESS:   84579604  HIT:   46563244  MISS:   38016360
LLC LOAD      ACCESS:    9509044  HIT:       5592  MISS:    9503452
LLC RFO       ACCESS:   37521016  HIT:    9009589  MISS:   28511427
LLC PREFETCH  ACCESS:          0  HIT:          0  MISS:          0
LLC WRITEBACK ACCESS:   37549544  HIT:   37548063  MISS:       1481
LLC PREFETCH  REQUESTED:          0  ISSUED:          0  USEFUL:          0  USELESS:          0
Major fault: 0 Minor fault: 632189

CPU 1 cumulative IPC: 0.10633 instructions: 1000000000 cycles: 9404672253
L1D TOTAL     ACCESS:  224235634  HIT:   67352075  MISS:  156883559
L1D LOAD      ACCESS:  208152098  HIT:   51587901  MISS:  156564197
L1D RFO       ACCESS:   16083536  HIT:   15764174  MISS:     319362
L1D PREFETCH  ACCESS:          0  HIT:          0  MISS:          0
L1D WRITEBACK ACCESS:          0  HIT:          0  MISS:          0
L1D PREFETCH  REQUESTED:          0  ISSUED:          0  USEFUL:          0  USELESS:          0
L1I TOTAL     ACCESS:  216671714  HIT:  216671714  MISS:          0
L1I LOAD      ACCESS:  216671714  HIT:  216671714  MISS:          0
L1I RFO       ACCESS:          0  HIT:          0  MISS:          0
L1I PREFETCH  ACCESS:          0  HIT:          0  MISS:          0
L1I WRITEBACK ACCESS:          0  HIT:          0  MISS:          0
L1I PREFETCH  REQUESTED:          0  ISSUED:          0  USEFUL:          0  USELESS:          0
L2C TOTAL     ACCESS:  159177287  HIT:   10980578  MISS:  148196709
L2C LOAD      ACCESS:  156563875  HIT:    8675778  MISS:  147888097
L2C RFO       ACCESS:     319362  HIT:      10902  MISS:     308460
L2C PREFETCH  ACCESS:          0  HIT:          0  MISS:          0
L2C WRITEBACK ACCESS:    2294050  HIT:    2293898  MISS:        152
L2C PREFETCH  REQUESTED:          0  ISSUED:          0  USEFUL:          0  USELESS:          0
LLC TOTAL     ACCESS:  150384697  HIT:   75095384  MISS:   75289313
LLC LOAD      ACCESS:  147888079  HIT:   72633728  MISS:   75254351
LLC RFO       ACCESS:     308459  HIT:     273515  MISS:      34944
LLC PREFETCH  ACCESS:          0  HIT:          0  MISS:          0
LLC WRITEBACK ACCESS:    2188159  HIT:    2188141  MISS:         18
LLC PREFETCH  REQUESTED:          0  ISSUED:          0  USEFUL:          0  USELESS:          0
Major fault: 0 Minor fault: 443600

CPU 2 cumulative IPC: 1.50457 instructions: 1000000002 cycles: 664640487
L1D TOTAL     ACCESS:  271561282  HIT:  271561269  MISS:         13
L1D LOAD      ACCESS:  119169791  HIT:  119169786  MISS:          5
L1D RFO       ACCESS:  152391491  HIT:  152391483  MISS:          8
L1D PREFETCH  ACCESS:          0  HIT:          0  MISS:          0
L1D WRITEBACK ACCESS:          0  HIT:          0  MISS:          0
L1D PREFETCH  REQUESTED:          0  ISSUED:          0  USEFUL:          0  USELESS:          0
L1I TOTAL     ACCESS:  217667724  HIT:  217646080  MISS:      21644
L1I LOAD      ACCESS:  217667724  HIT:  217646080  MISS:      21644
L1I RFO       ACCESS:          0  HIT:          0  MISS:          0
L1I PREFETCH  ACCESS:          0  HIT:          0  MISS:          0
L1I WRITEBACK ACCESS:          0  HIT:          0  MISS:          0
L1I PREFETCH  REQUESTED:          0  ISSUED:          0  USEFUL:          0  USELESS:          0
L2C TOTAL     ACCESS:      21657  HIT:      21606  MISS:         51
L2C LOAD      ACCESS:      21649  HIT:      21606  MISS:         43
L2C RFO       ACCESS:          8  HIT:          0  MISS:          8
L2C PREFETCH  ACCESS:          0  HIT:          0  MISS:          0
L2C WRITEBACK ACCESS:          0  HIT:          0  MISS:          0
L2C PREFETCH  REQUESTED:          0  ISSUED:          0  USEFUL:          0  USELESS:          0
LLC TOTAL     ACCESS:         51  HIT:          0  MISS:         51
LLC LOAD      ACCESS:         43  HIT:          0  MISS:         43
LLC RFO       ACCESS:          8  HIT:          0  MISS:          8
LLC PREFETCH  ACCESS:          0  HIT:          0  MISS:          0
LLC WRITEBACK ACCESS:          0  HIT:          0  MISS:          0
LLC PREFETCH  REQUESTED:          0  ISSUED:          0  USEFUL:          0  USELESS:          0
Major fault: 0 Minor fault: 49

CPU 3 cumulative IPC: 0.167971 instructions: 1000000003 cycles: 5953397599
L1D TOTAL     ACCESS:  414037050  HIT:  374094686  MISS:   39942364
L1D LOAD      ACCESS:  314110090  HIT:  274449871  MISS:   39660219
L1D RFO       ACCESS:   99926960  HIT:   99644815  MISS:     282145
L1D PREFETCH  ACCESS:          0  HIT:          0  MISS:          0
L1D WRITEBACK ACCESS:          0  HIT:          0  MISS:          0
L1D PREFETCH  REQUESTED:          0  ISSUED:          0  USEFUL:          0  USELESS:          0
L1I TOTAL     ACCESS:  223724054  HIT:  223724054  MISS:          0
L1I LOAD      ACCESS:  223724054  HIT:  223724054  MISS:          0
L1I RFO       ACCESS:          0  HIT:          0  MISS:          0
L1I PREFETCH  ACCESS:          0  HIT:          0  MISS:          0
L1I WRITEBACK ACCESS:          0  HIT:          0  MISS:          0
L1I PREFETCH  REQUESTED:          0  ISSUED:          0  USEFUL:          0  USELESS:          0
L2C TOTAL     ACCESS:   43031292  HIT:   12454533  MISS:   30576759
L2C LOAD      ACCESS:   39660186  HIT:    9141395  MISS:   30518791
L2C RFO       ACCESS:     282138  HIT:     229202  MISS:      52936
L2C PREFETCH  ACCESS:          0  HIT:          0  MISS:          0
L2C WRITEBACK ACCESS:    3088968  HIT:    3083936  MISS:       5032
L2C PREFETCH  REQUESTED:          0  ISSUED:          0  USEFUL:          0  USELESS:          0
LLC TOTAL     ACCESS:   32895474  HIT:    8574993  MISS:   24320481
LLC LOAD      ACCESS:   30518786  HIT:    6220742  MISS:   24298044
LLC RFO       ACCESS:      52936  HIT:      36261  MISS:      16675
LLC PREFETCH  ACCESS:          0  HIT:          0  MISS:          0
LLC WRITEBACK ACCESS:    2323752  HIT:    2317990  MISS:       5762
LLC PREFETCH  REQUESTED:          0  ISSUED:          0  USEFUL:          0  USELESS:          0
Major fault: 0 Minor fault: 323527

DRAM Statistics
 CHANNEL 0
 RQ ROW_BUFFER_HIT:   34383962  ROW_BUFFER_MISS:  106539876
 DBUS_CONGESTED:  236365400
 WQ ROW_BUFFER_HIT:    4881721  ROW_BUFFER_MISS:   59663588  FULL:          0

 CHANNEL 1
 RQ ROW_BUFFER_HIT:   34370063  ROW_BUFFER_MISS:  106517150
 DBUS_CONGESTED:  236365400
 WQ ROW_BUFFER_HIT:    4884837  ROW_BUFFER_MISS:   59666127  FULL:          0

 AVG_CONGESTED_CYCLE: 13
