
*** ChampSim Multicore Out-of-Order Simulator ***

Warmup Instructions: 20000000
Simulation Instructions: 100000000
Number of CPUs: 1
LLC sets: 16384
LLC ways: 16
Off-chip DRAM Size: 4096 MB Channels: 1 Width: 64-bit Data Rate: 1600 MT/s

CPU 0 runs /scratch/user/djimenez/champsim-traces/speccpu2017/xz/605.mcf_s/605.mcf_s-1554B.champsimtrace.xz
Heartbeat CPU 0 instructions: 10000001 cycles: 5514989 heartbeat IPC: 1.81324 cumulative IPC: 1.81324 (Simulation time: 0 hr 0 min 22 sec) 
Heartbeat CPU 0 instructions: 20000000 cycles: 10989351 heartbeat IPC: 1.8267 cumulative IPC: 1.81994 (Simulation time: 0 hr 0 min 43 sec) 

Warmup complete CPU 0 instructions: 20000001 cycles: 10989361 (Simulation time: 0 hr 0 min 43 sec) 

Heartbeat CPU 0 instructions: 30000003 cycles: 39337145 heartbeat IPC: 0.352761 cumulative IPC: 0.352761 (Simulation time: 0 hr 1 min 22 sec) 
Heartbeat CPU 0 instructions: 40000000 cycles: 67722223 heartbeat IPC: 0.352298 cumulative IPC: 0.352529 (Simulation time: 0 hr 2 min 1 sec) 
Heartbeat CPU 0 instructions: 50000000 cycles: 96547233 heartbeat IPC: 0.346921 cumulative IPC: 0.35064 (Simulation time: 0 hr 2 min 40 sec) 
Heartbeat CPU 0 instructions: 60000000 cycles: 125387022 heartbeat IPC: 0.346743 cumulative IPC: 0.349657 (Simulation time: 0 hr 3 min 19 sec) 
Heartbeat CPU 0 instructions: 70000001 cycles: 154576327 heartbeat IPC: 0.342591 cumulative IPC: 0.348221 (Simulation time: 0 hr 3 min 59 sec) 
Heartbeat CPU 0 instructions: 80000000 cycles: 184249304 heartbeat IPC: 0.337007 cumulative IPC: 0.3463 (Simulation time: 0 hr 4 min 38 sec) 
Heartbeat CPU 0 instructions: 90000003 cycles: 213254064 heartbeat IPC: 0.344771 cumulative IPC: 0.346081 (Simulation time: 0 hr 5 min 17 sec) 
Heartbeat CPU 0 instructions: 100000000 cycles: 242103425 heartbeat IPC: 0.346628 cumulative IPC: 0.346149 (Simulation time: 0 hr 5 min 57 sec) 
Heartbeat CPU 0 instructions: 110000000 cycles: 270936171 heartbeat IPC: 0.346828 cumulative IPC: 0.346225 (Simulation time: 0 hr 6 min 36 sec) 
Heartbeat CPU 0 instructions: 120000000 cycles: 298842232 heartbeat IPC: 0.358345 cumulative IPC: 0.3474 (Simulation time: 0 hr 7 min 17 sec) 
Finished CPU 0 instructions: 100000000 cycles: 287852879 cumulative IPC: 0.3474 (Simulation time: 0 hr 7 min 17 sec) 

CPU 0 Branch Prediction Accuracy: 97.915% MPKI: 3.79337

ChampSim completed all CPUs

Region of Interest Statistics

CPU 0 cumulative IPC: 0.3474 instructions: 100000000 cycles: 287852879
L1D TOTAL     ACCESS:   39235188  HIT:   23872646  MISS:   15362542
L1D LOAD      ACCESS:   32717598  HIT:   17645630  MISS:   15071968
L1D RFO       ACCESS:    6517590  HIT:    6227016  MISS:     290574
L1D PREFETCH  ACCESS:          0  HIT:          0  MISS:          0
L1D WRITEBACK ACCESS:          0  HIT:          0  MISS:          0
L1D PREFETCH  REQUESTED:          0  ISSUED:          0  USEFUL:          0  USELESS:          0
L1I TOTAL     ACCESS:   36065283  HIT:   36065283  MISS:          0
L1I LOAD      ACCESS:   36065283  HIT:   36065283  MISS:          0
L1I RFO       ACCESS:          0  HIT:          0  MISS:          0
L1I PREFETCH  ACCESS:          0  HIT:          0  MISS:          0
L1I WRITEBACK ACCESS:          0  HIT:          0  MISS:          0
L1I PREFETCH  REQUESTED:          0  ISSUED:          0  USEFUL:          0  USELESS:          0
L2C TOTAL     ACCESS:   15722911  HIT:     362280  MISS:   15360631
L2C LOAD      ACCESS:   15071967  HIT:       2251  MISS:   15069716
L2C RFO       ACCESS:     290574  HIT:        627  MISS:     289947
L2C PREFETCH  ACCESS:          0  HIT:          0  MISS:          0
L2C WRITEBACK ACCESS:     360370  HIT:     359402  MISS:        968
L2C PREFETCH  REQUESTED:          0  ISSUED:          0  USEFUL:          0  USELESS:          0
LLC TOTAL     ACCESS:   15718505  HIT:   15265439  MISS:     453066
LLC LOAD      ACCESS:   15069716  HIT:   14904743  MISS:     164973
LLC RFO       ACCESS:     289947  HIT:       1857  MISS:     288090
LLC PREFETCH  ACCESS:          0  HIT:          0  MISS:          0
LLC WRITEBACK ACCESS:     358842  HIT:     358839  MISS:          3
LLC PREFETCH  REQUESTED:          0  ISSUED:          0  USEFUL:          0  USELESS:          0
Major fault: 0 Minor fault: 11123

DRAM Statistics
 CHANNEL 0
 RQ ROW_BUFFER_HIT:     348631  ROW_BUFFER_MISS:     104432
 DBUS_CONGESTED:     288478
 WQ ROW_BUFFER_HIT:      74058  ROW_BUFFER_MISS:     184052  FULL:          0

 AVG_CONGESTED_CYCLE: 13
