
*** ChampSim Multicore Out-of-Order Simulator ***

Warmup Instructions: 20000000
Simulation Instructions: 100000000
Number of CPUs: 8
LLC sets: 16384
LLC ways: 16
Off-chip DRAM Size: 8192 MB Channels: 2 Width: 64-bit Data Rate: 1600 MT/s

CPU 0 runs /scratch/user/djimenez/champsim-traces/speccpu2006/xz/434.zeusmp-10B.champsimtrace.xz
CPU 1 runs /scratch/user/djimenez/champsim-traces/speccpu2006/xz/429.mcf-217B.champsimtrace.xz
CPU 2 runs /scratch/user/djimenez/champsim-traces/speccpu2006/xz/482.sphinx3-1297B.champsimtrace.xz
CPU 3 runs /scratch/user/djimenez/champsim-traces/speccpu2006/xz/410.bwaves-2097B.champsimtrace.xz
CPU 4 runs /scratch/user/djimenez/champsim-traces/speccpu2006/xz/459.GemsFDTD-1211B.champsimtrace.xz
CPU 5 runs /scratch/user/djimenez/champsim-traces/speccpu2006/xz/437.leslie3d-232B.champsimtrace.xz
CPU 6 runs /scratch/user/djimenez/champsim-traces/speccpu2006/xz/481.wrf-1281B.champsimtrace.xz
CPU 7 runs /scratch/user/djimenez/champsim-traces/speccpu2006/xz/433.milc-127B.champsimtrace.xz
Heartbeat CPU 2 instructions: 10000003 cycles: 3950063 heartbeat IPC: 2.53161 cumulative IPC: 2.53161 (Simulation time: 0 hr 3 min 21 sec) 
Heartbeat CPU 7 instructions: 10000002 cycles: 4060813 heartbeat IPC: 2.46256 cumulative IPC: 2.46256 (Simulation time: 0 hr 3 min 27 sec) 
Heartbeat CPU 0 instructions: 10000003 cycles: 4294063 heartbeat IPC: 2.3288 cumulative IPC: 2.3288 (Simulation time: 0 hr 3 min 39 sec) 
Heartbeat CPU 5 instructions: 10000003 cycles: 5031960 heartbeat IPC: 1.9873 cumulative IPC: 1.9873 (Simulation time: 0 hr 4 min 16 sec) 
Heartbeat CPU 6 instructions: 10000000 cycles: 5709977 heartbeat IPC: 1.75132 cumulative IPC: 1.75132 (Simulation time: 0 hr 4 min 49 sec) 
Heartbeat CPU 1 instructions: 10000003 cycles: 5853634 heartbeat IPC: 1.70834 cumulative IPC: 1.70834 (Simulation time: 0 hr 4 min 56 sec) 
Heartbeat CPU 3 instructions: 10000000 cycles: 6592873 heartbeat IPC: 1.51679 cumulative IPC: 1.51679 (Simulation time: 0 hr 5 min 33 sec) 
Heartbeat CPU 2 instructions: 20000000 cycles: 7782563 heartbeat IPC: 2.60926 cumulative IPC: 2.56985 (Simulation time: 0 hr 6 min 36 sec) 
Heartbeat CPU 4 instructions: 10000000 cycles: 8097677 heartbeat IPC: 1.23492 cumulative IPC: 1.23492 (Simulation time: 0 hr 6 min 53 sec) 
Heartbeat CPU 7 instructions: 20000000 cycles: 8151772 heartbeat IPC: 2.44441 cumulative IPC: 2.45345 (Simulation time: 0 hr 6 min 56 sec) 
Heartbeat CPU 0 instructions: 20000000 cycles: 8664622 heartbeat IPC: 2.28804 cumulative IPC: 2.30824 (Simulation time: 0 hr 7 min 24 sec) 
Heartbeat CPU 6 instructions: 20000000 cycles: 9631674 heartbeat IPC: 2.54992 cumulative IPC: 2.07648 (Simulation time: 0 hr 8 min 14 sec) 
Heartbeat CPU 5 instructions: 20000000 cycles: 10066406 heartbeat IPC: 1.98632 cumulative IPC: 1.98681 (Simulation time: 0 hr 8 min 38 sec) 
Heartbeat CPU 2 instructions: 30000001 cycles: 11596586 heartbeat IPC: 2.6219 cumulative IPC: 0.862323 (Simulation time: 0 hr 9 min 57 sec) 
Heartbeat CPU 1 instructions: 20000000 cycles: 12825548 heartbeat IPC: 1.43433 cumulative IPC: 1.55939 (Simulation time: 0 hr 10 min 58 sec) 
Heartbeat CPU 0 instructions: 30000001 cycles: 13035919 heartbeat IPC: 2.28765 cumulative IPC: 0.767111 (Simulation time: 0 hr 11 min 9 sec) 
Heartbeat CPU 3 instructions: 20000000 cycles: 13187572 heartbeat IPC: 1.51637 cumulative IPC: 1.51658 (Simulation time: 0 hr 11 min 17 sec) 
Heartbeat CPU 7 instructions: 30000003 cycles: 13652912 heartbeat IPC: 1.81781 cumulative IPC: 0.732445 (Simulation time: 0 hr 11 min 41 sec) 
Heartbeat CPU 6 instructions: 30000001 cycles: 13975013 heartbeat IPC: 2.30238 cumulative IPC: 0.715563 (Simulation time: 0 hr 11 min 58 sec) 
Heartbeat CPU 5 instructions: 30000001 cycles: 15099534 heartbeat IPC: 1.98684 cumulative IPC: 0.662272 (Simulation time: 0 hr 12 min 57 sec) 
Heartbeat CPU 2 instructions: 40000000 cycles: 15527381 heartbeat IPC: 2.54401 cumulative IPC: 1.28805 (Simulation time: 0 hr 13 min 19 sec) 
Heartbeat CPU 4 instructions: 20000000 cycles: 16195247 heartbeat IPC: 1.23494 cumulative IPC: 1.23493 (Simulation time: 0 hr 13 min 55 sec) 

Warmup complete CPU 0 instructions: 37277926 cycles: 16195265 (Simulation time: 0 hr 13 min 55 sec) 
Warmup complete CPU 1 instructions: 25732098 cycles: 16195265 (Simulation time: 0 hr 13 min 55 sec) 
Warmup complete CPU 2 instructions: 41931544 cycles: 16195265 (Simulation time: 0 hr 13 min 55 sec) 
Warmup complete CPU 3 instructions: 24562742 cycles: 16195265 (Simulation time: 0 hr 13 min 55 sec) 
Warmup complete CPU 4 instructions: 20000001 cycles: 16195265 (Simulation time: 0 hr 13 min 55 sec) 
Warmup complete CPU 5 instructions: 32256310 cycles: 16195264 (Simulation time: 0 hr 13 min 55 sec) 
Warmup complete CPU 6 instructions: 35298867 cycles: 16195264 (Simulation time: 0 hr 13 min 55 sec) 
Warmup complete CPU 7 instructions: 35220995 cycles: 16195264 (Simulation time: 0 hr 13 min 55 sec) 

Heartbeat CPU 0 instructions: 40000000 cycles: 19398390 heartbeat IPC: 1.57172 cumulative IPC: 0.849818 (Simulation time: 0 hr 14 min 55 sec) 
Heartbeat CPU 6 instructions: 40000000 cycles: 25994179 heartbeat IPC: 0.832004 cumulative IPC: 0.479761 (Simulation time: 0 hr 17 min 1 sec) 
Heartbeat CPU 3 instructions: 30000002 cycles: 26758428 heartbeat IPC: 0.736873 cumulative IPC: 0.514738 (Simulation time: 0 hr 17 min 16 sec) 
Heartbeat CPU 7 instructions: 40000000 cycles: 27189000 heartbeat IPC: 0.738766 cumulative IPC: 0.434703 (Simulation time: 0 hr 17 min 24 sec) 
Heartbeat CPU 5 instructions: 40000000 cycles: 31417432 heartbeat IPC: 0.612824 cumulative IPC: 0.508711 (Simulation time: 0 hr 18 min 46 sec) 
Heartbeat CPU 0 instructions: 50000003 cycles: 31977169 heartbeat IPC: 0.79499 cumulative IPC: 0.806118 (Simulation time: 0 hr 18 min 57 sec) 
Heartbeat CPU 2 instructions: 50000002 cycles: 36737001 heartbeat IPC: 0.471484 cumulative IPC: 0.392784 (Simulation time: 0 hr 20 min 30 sec) 
Heartbeat CPU 4 instructions: 30000001 cycles: 39726010 heartbeat IPC: 0.424976 cumulative IPC: 0.424976 (Simulation time: 0 hr 22 min 24 sec) 
Heartbeat CPU 0 instructions: 60000000 cycles: 44682086 heartbeat IPC: 0.787097 cumulative IPC: 0.797635 (Simulation time: 0 hr 25 min 34 sec) 
Heartbeat CPU 3 instructions: 40000000 cycles: 46021084 heartbeat IPC: 0.519139 cumulative IPC: 0.51758 (Simulation time: 0 hr 26 min 0 sec) 
Heartbeat CPU 6 instructions: 50000003 cycles: 47492347 heartbeat IPC: 0.465156 cumulative IPC: 0.469729 (Simulation time: 0 hr 26 min 27 sec) 
Heartbeat CPU 7 instructions: 50000002 cycles: 49914675 heartbeat IPC: 0.440031 cumulative IPC: 0.438294 (Simulation time: 0 hr 27 min 10 sec) 
Heartbeat CPU 5 instructions: 50000000 cycles: 50795215 heartbeat IPC: 0.516055 cumulative IPC: 0.512824 (Simulation time: 0 hr 27 min 26 sec) 
Heartbeat CPU 0 instructions: 70000000 cycles: 56958682 heartbeat IPC: 0.814558 cumulative IPC: 0.802731 (Simulation time: 0 hr 29 min 24 sec) 
Heartbeat CPU 2 instructions: 60000000 cycles: 62457633 heartbeat IPC: 0.388793 cumulative IPC: 0.390565 (Simulation time: 0 hr 31 min 3 sec) 
Heartbeat CPU 4 instructions: 40000000 cycles: 64712310 heartbeat IPC: 0.400219 cumulative IPC: 0.412226 (Simulation time: 0 hr 31 min 42 sec) 
Heartbeat CPU 3 instructions: 50000000 cycles: 65122057 heartbeat IPC: 0.523534 cumulative IPC: 0.519904 (Simulation time: 0 hr 31 min 49 sec) 
Heartbeat CPU 0 instructions: 80000000 cycles: 69476074 heartbeat IPC: 0.798888 cumulative IPC: 0.801829 (Simulation time: 0 hr 33 min 3 sec) 
Heartbeat CPU 6 instructions: 60000000 cycles: 69669354 heartbeat IPC: 0.450917 cumulative IPC: 0.461927 (Simulation time: 0 hr 33 min 6 sec) 
Heartbeat CPU 5 instructions: 60000000 cycles: 70011822 heartbeat IPC: 0.520383 cumulative IPC: 0.515523 (Simulation time: 0 hr 33 min 12 sec) 
Heartbeat CPU 7 instructions: 60000000 cycles: 72490671 heartbeat IPC: 0.442948 cumulative IPC: 0.44016 (Simulation time: 0 hr 33 min 52 sec) 
Heartbeat CPU 0 instructions: 90000003 cycles: 82281479 heartbeat IPC: 0.780921 cumulative IPC: 0.797777 (Simulation time: 0 hr 36 min 32 sec) 
Heartbeat CPU 3 instructions: 60000000 cycles: 84491645 heartbeat IPC: 0.516273 cumulative IPC: 0.518875 (Simulation time: 0 hr 37 min 12 sec) 
Heartbeat CPU 2 instructions: 70000003 cycles: 89377282 heartbeat IPC: 0.371476 cumulative IPC: 0.383543 (Simulation time: 0 hr 38 min 44 sec) 
Heartbeat CPU 5 instructions: 70000000 cycles: 89414321 heartbeat IPC: 0.515398 cumulative IPC: 0.51549 (Simulation time: 0 hr 38 min 45 sec) 
Heartbeat CPU 6 instructions: 70000001 cycles: 90597986 heartbeat IPC: 0.477814 cumulative IPC: 0.466396 (Simulation time: 0 hr 39 min 8 sec) 
Heartbeat CPU 1 instructions: 30000002 cycles: 90768257 heartbeat IPC: 0.128299 cumulative IPC: 0.0572312 (Simulation time: 0 hr 39 min 12 sec) 
Heartbeat CPU 0 instructions: 100000000 cycles: 94308652 heartbeat IPC: 0.83145 cumulative IPC: 0.802962 (Simulation time: 0 hr 40 min 21 sec) 
Heartbeat CPU 7 instructions: 70000000 cycles: 94801034 heartbeat IPC: 0.448222 cumulative IPC: 0.442448 (Simulation time: 0 hr 40 min 31 sec) 
Heartbeat CPU 4 instructions: 50000001 cycles: 98089218 heartbeat IPC: 0.299608 cumulative IPC: 0.366327 (Simulation time: 0 hr 41 min 29 sec) 
Heartbeat CPU 3 instructions: 70000001 cycles: 103395151 heartbeat IPC: 0.529002 cumulative IPC: 0.52107 (Simulation time: 0 hr 43 min 12 sec) 
Heartbeat CPU 6 instructions: 80000000 cycles: 106354653 heartbeat IPC: 0.634652 cumulative IPC: 0.495801 (Simulation time: 0 hr 44 min 15 sec) 
Heartbeat CPU 0 instructions: 110000001 cycles: 106706088 heartbeat IPC: 0.806618 cumulative IPC: 0.803463 (Simulation time: 0 hr 44 min 22 sec) 
Heartbeat CPU 5 instructions: 80000000 cycles: 108284166 heartbeat IPC: 0.529946 cumulative IPC: 0.518452 (Simulation time: 0 hr 44 min 57 sec) 
Heartbeat CPU 2 instructions: 80000000 cycles: 115603284 heartbeat IPC: 0.381301 cumulative IPC: 0.382952 (Simulation time: 0 hr 47 min 33 sec) 
Heartbeat CPU 7 instructions: 80000000 cycles: 116985288 heartbeat IPC: 0.45077 cumulative IPC: 0.44428 (Simulation time: 0 hr 47 min 59 sec) 
Heartbeat CPU 6 instructions: 90000001 cycles: 117732424 heartbeat IPC: 0.878907 cumulative IPC: 0.53873 (Simulation time: 0 hr 48 min 14 sec) 
Heartbeat CPU 0 instructions: 120000000 cycles: 119253839 heartbeat IPC: 0.796955 cumulative IPC: 0.80267 (Simulation time: 0 hr 48 min 43 sec) 
Heartbeat CPU 4 instructions: 60000000 cycles: 121929375 heartbeat IPC: 0.41946 cumulative IPC: 0.378307 (Simulation time: 0 hr 49 min 37 sec) 
Heartbeat CPU 3 instructions: 80000000 cycles: 122588537 heartbeat IPC: 0.521013 cumulative IPC: 0.52106 (Simulation time: 0 hr 49 min 49 sec) 
Heartbeat CPU 1 instructions: 40000000 cycles: 125088863 heartbeat IPC: 0.29137 cumulative IPC: 0.131026 (Simulation time: 0 hr 50 min 42 sec) 
Heartbeat CPU 5 instructions: 90000000 cycles: 127634585 heartbeat IPC: 0.516785 cumulative IPC: 0.518163 (Simulation time: 0 hr 51 min 36 sec) 
Heartbeat CPU 0 instructions: 130000001 cycles: 131374918 heartbeat IPC: 0.825009 cumulative IPC: 0.805021 (Simulation time: 0 hr 52 min 55 sec) 
Heartbeat CPU 6 instructions: 100000000 cycles: 133681444 heartbeat IPC: 0.626998 cumulative IPC: 0.550713 (Simulation time: 0 hr 53 min 42 sec) 
Heartbeat CPU 7 instructions: 90000002 cycles: 138994566 heartbeat IPC: 0.454354 cumulative IPC: 0.446086 (Simulation time: 0 hr 55 min 31 sec) 
Finished CPU 0 instructions: 100000000 cycles: 124102117 cumulative IPC: 0.805788 (Simulation time: 0 hr 56 min 11 sec) 
Heartbeat CPU 3 instructions: 90000001 cycles: 141388513 heartbeat IPC: 0.531916 cumulative IPC: 0.52269 (Simulation time: 0 hr 56 min 41 sec) 
Heartbeat CPU 2 instructions: 90000000 cycles: 142072825 heartbeat IPC: 0.377793 cumulative IPC: 0.381867 (Simulation time: 0 hr 57 min 0 sec) 
Heartbeat CPU 0 instructions: 140000000 cycles: 143600967 heartbeat IPC: 0.817926 cumulative IPC: 0.80626 (Simulation time: 0 hr 57 min 37 sec) 
Heartbeat CPU 5 instructions: 100000000 cycles: 145255744 heartbeat IPC: 0.5675 cumulative IPC: 0.524899 (Simulation time: 0 hr 58 min 15 sec) 
Heartbeat CPU 4 instructions: 70000002 cycles: 145485214 heartbeat IPC: 0.424523 cumulative IPC: 0.386728 (Simulation time: 0 hr 58 min 20 sec) 
Heartbeat CPU 6 instructions: 110000002 cycles: 149880834 heartbeat IPC: 0.617307 cumulative IPC: 0.558782 (Simulation time: 0 hr 59 min 52 sec) 
Heartbeat CPU 0 instructions: 150000000 cycles: 155769764 heartbeat IPC: 0.821774 cumulative IPC: 0.807612 (Simulation time: 1 hr 1 min 48 sec) 
Heartbeat CPU 3 instructions: 100000000 cycles: 159448025 heartbeat IPC: 0.553725 cumulative IPC: 0.526602 (Simulation time: 1 hr 2 min 59 sec) 
Heartbeat CPU 5 instructions: 110000002 cycles: 162571728 heartbeat IPC: 0.577501 cumulative IPC: 0.531122 (Simulation time: 1 hr 4 min 0 sec) 
Heartbeat CPU 2 instructions: 100000000 cycles: 165642996 heartbeat IPC: 0.424265 cumulative IPC: 0.388554 (Simulation time: 1 hr 5 min 0 sec) 
Heartbeat CPU 6 instructions: 120000000 cycles: 166221753 heartbeat IPC: 0.611961 cumulative IPC: 0.564575 (Simulation time: 1 hr 5 min 11 sec) 
Heartbeat CPU 0 instructions: 160000000 cycles: 167683630 heartbeat IPC: 0.839358 cumulative IPC: 0.810109 (Simulation time: 1 hr 5 min 40 sec) 
Heartbeat CPU 4 instructions: 80000000 cycles: 168711809 heartbeat IPC: 0.430541 cumulative IPC: 0.3934 (Simulation time: 1 hr 6 min 0 sec) 
Heartbeat CPU 3 instructions: 110000001 cycles: 177882365 heartbeat IPC: 0.542466 cumulative IPC: 0.528411 (Simulation time: 1 hr 9 min 0 sec) 
Heartbeat CPU 0 instructions: 170000001 cycles: 179837406 heartbeat IPC: 0.82279 cumulative IPC: 0.811051 (Simulation time: 1 hr 9 min 40 sec) 
Heartbeat CPU 5 instructions: 120000000 cycles: 179854366 heartbeat IPC: 0.578615 cumulative IPC: 0.536137 (Simulation time: 1 hr 9 min 40 sec) 
Heartbeat CPU 6 instructions: 130000001 cycles: 182509977 heartbeat IPC: 0.613941 cumulative IPC: 0.569409 (Simulation time: 1 hr 10 min 33 sec) 
Heartbeat CPU 7 instructions: 100000000 cycles: 185160382 heartbeat IPC: 0.21661 cumulative IPC: 0.383387 (Simulation time: 1 hr 11 min 26 sec) 
Heartbeat CPU 1 instructions: 50000001 cycles: 187221602 heartbeat IPC: 0.160946 cumulative IPC: 0.141896 (Simulation time: 1 hr 12 min 6 sec) 
Heartbeat CPU 2 instructions: 110000002 cycles: 189262964 heartbeat IPC: 0.423371 cumulative IPC: 0.393305 (Simulation time: 1 hr 12 min 45 sec) 
Finished CPU 6 instructions: 100000002 cycles: 174918596 cumulative IPC: 0.571694 (Simulation time: 1 hr 13 min 22 sec) 
Heartbeat CPU 4 instructions: 90000003 cycles: 191889304 heartbeat IPC: 0.431453 cumulative IPC: 0.39842 (Simulation time: 1 hr 13 min 37 sec) 
Heartbeat CPU 0 instructions: 180000000 cycles: 192067166 heartbeat IPC: 0.817677 cumulative IPC: 0.811512 (Simulation time: 1 hr 13 min 41 sec) 
Heartbeat CPU 3 instructions: 120000000 cycles: 196181971 heartbeat IPC: 0.54646 cumulative IPC: 0.530246 (Simulation time: 1 hr 15 min 5 sec) 
Heartbeat CPU 5 instructions: 130000003 cycles: 197146267 heartbeat IPC: 0.578306 cumulative IPC: 0.540167 (Simulation time: 1 hr 15 min 24 sec) 
Heartbeat CPU 6 instructions: 140000000 cycles: 198763315 heartbeat IPC: 0.615258 cumulative IPC: 0.573491 (Simulation time: 1 hr 15 min 56 sec) 
Finished CPU 5 instructions: 100000000 cycles: 184745373 cumulative IPC: 0.541286 (Simulation time: 1 hr 16 min 39 sec) 
Heartbeat CPU 0 instructions: 190000003 cycles: 204053678 heartbeat IPC: 0.834271 cumulative IPC: 0.812964 (Simulation time: 1 hr 17 min 41 sec) 
Finished CPU 3 instructions: 100000003 cycles: 188488322 cumulative IPC: 0.530537 (Simulation time: 1 hr 17 min 53 sec) 
Heartbeat CPU 2 instructions: 120000000 cycles: 212848809 heartbeat IPC: 0.423983 cumulative IPC: 0.396985 (Simulation time: 1 hr 20 min 37 sec) 
Heartbeat CPU 5 instructions: 140000000 cycles: 214627496 heartbeat IPC: 0.572042 cumulative IPC: 0.542975 (Simulation time: 1 hr 21 min 11 sec) 
Heartbeat CPU 3 instructions: 130000000 cycles: 214678885 heartbeat IPC: 0.540631 cumulative IPC: 0.531214 (Simulation time: 1 hr 21 min 12 sec) 
Heartbeat CPU 6 instructions: 150000001 cycles: 215161717 heartbeat IPC: 0.609816 cumulative IPC: 0.576485 (Simulation time: 1 hr 21 min 21 sec) 
Heartbeat CPU 4 instructions: 100000000 cycles: 215185446 heartbeat IPC: 0.429255 cumulative IPC: 0.40203 (Simulation time: 1 hr 21 min 22 sec) 
Heartbeat CPU 0 instructions: 200000000 cycles: 216182290 heartbeat IPC: 0.824496 cumulative IPC: 0.813663 (Simulation time: 1 hr 21 min 41 sec) 
Heartbeat CPU 7 instructions: 110000001 cycles: 218088930 heartbeat IPC: 0.303688 cumulative IPC: 0.370388 (Simulation time: 1 hr 22 min 18 sec) 
Heartbeat CPU 0 instructions: 210000000 cycles: 228426108 heartbeat IPC: 0.816739 cumulative IPC: 0.813841 (Simulation time: 1 hr 25 min 47 sec) 
Heartbeat CPU 2 instructions: 130000001 cycles: 229979172 heartbeat IPC: 0.583759 cumulative IPC: 0.411951 (Simulation time: 1 hr 26 min 16 sec) 
Heartbeat CPU 6 instructions: 160000000 cycles: 232043231 heartbeat IPC: 0.592364 cumulative IPC: 0.577727 (Simulation time: 1 hr 26 min 58 sec) 
Heartbeat CPU 3 instructions: 140000000 cycles: 233045473 heartbeat IPC: 0.544467 cumulative IPC: 0.532336 (Simulation time: 1 hr 27 min 19 sec) 
Heartbeat CPU 4 instructions: 110000003 cycles: 238217551 heartbeat IPC: 0.434177 cumulative IPC: 0.405365 (Simulation time: 1 hr 29 min 21 sec) 
Heartbeat CPU 0 instructions: 220000000 cycles: 240188088 heartbeat IPC: 0.850197 cumulative IPC: 0.81575 (Simulation time: 1 hr 30 min 3 sec) 
Heartbeat CPU 5 instructions: 150000001 cycles: 241704445 heartbeat IPC: 0.369318 cumulative IPC: 0.522124 (Simulation time: 1 hr 30 min 33 sec) 
Heartbeat CPU 2 instructions: 140000000 cycles: 245637047 heartbeat IPC: 0.638656 cumulative IPC: 0.427422 (Simulation time: 1 hr 31 min 49 sec) 
Heartbeat CPU 7 instructions: 120000000 cycles: 248136325 heartbeat IPC: 0.332808 cumulative IPC: 0.36552 (Simulation time: 1 hr 32 min 37 sec) 
Finished CPU 2 instructions: 100000001 cycles: 232625563 cumulative IPC: 0.429875 (Simulation time: 1 hr 32 min 50 sec) 
Heartbeat CPU 6 instructions: 170000000 cycles: 249265366 heartbeat IPC: 0.580648 cumulative IPC: 0.577943 (Simulation time: 1 hr 32 min 59 sec) 
Heartbeat CPU 3 instructions: 150000002 cycles: 251395830 heartbeat IPC: 0.544949 cumulative IPC: 0.53332 (Simulation time: 1 hr 33 min 43 sec) 
Heartbeat CPU 0 instructions: 230000001 cycles: 252421560 heartbeat IPC: 0.817429 cumulative IPC: 0.815837 (Simulation time: 1 hr 34 min 7 sec) 
Heartbeat CPU 4 instructions: 120000000 cycles: 261456079 heartbeat IPC: 0.43032 cumulative IPC: 0.407729 (Simulation time: 1 hr 37 min 34 sec) 
Finished CPU 4 instructions: 100000002 cycles: 245260842 cumulative IPC: 0.407729 (Simulation time: 1 hr 37 min 34 sec) 
Heartbeat CPU 2 instructions: 150000003 cycles: 264263650 heartbeat IPC: 0.536867 cumulative IPC: 0.43564 (Simulation time: 1 hr 38 min 32 sec) 
Heartbeat CPU 0 instructions: 240000000 cycles: 264667195 heartbeat IPC: 0.816617 cumulative IPC: 0.815875 (Simulation time: 1 hr 38 min 40 sec) 
Heartbeat CPU 6 instructions: 180000000 cycles: 266495812 heartbeat IPC: 0.580368 cumulative IPC: 0.57811 (Simulation time: 1 hr 39 min 18 sec) 
Heartbeat CPU 5 instructions: 160000000 cycles: 268881926 heartbeat IPC: 0.367952 cumulative IPC: 0.505542 (Simulation time: 1 hr 40 min 14 sec) 
Heartbeat CPU 3 instructions: 160000000 cycles: 269736948 heartbeat IPC: 0.545223 cumulative IPC: 0.534181 (Simulation time: 1 hr 40 min 33 sec) 
Heartbeat CPU 0 instructions: 250000003 cycles: 276634550 heartbeat IPC: 0.835607 cumulative IPC: 0.816782 (Simulation time: 1 hr 42 min 59 sec) 
Heartbeat CPU 7 instructions: 130000002 cycles: 278080619 heartbeat IPC: 0.333953 cumulative IPC: 0.36191 (Simulation time: 1 hr 43 min 34 sec) 
Heartbeat CPU 6 instructions: 190000001 cycles: 283832861 heartbeat IPC: 0.5768 cumulative IPC: 0.578025 (Simulation time: 1 hr 45 min 26 sec) 
Heartbeat CPU 4 instructions: 130000003 cycles: 284797173 heartbeat IPC: 0.428429 cumulative IPC: 0.409528 (Simulation time: 1 hr 45 min 45 sec) 
Heartbeat CPU 2 instructions: 160000000 cycles: 285841532 heartbeat IPC: 0.463437 cumulative IPC: 0.437864 (Simulation time: 1 hr 46 min 6 sec) 
Heartbeat CPU 3 instructions: 170000000 cycles: 288356396 heartbeat IPC: 0.537073 cumulative IPC: 0.534379 (Simulation time: 1 hr 46 min 55 sec) 
Heartbeat CPU 0 instructions: 260000000 cycles: 288782523 heartbeat IPC: 0.823182 cumulative IPC: 0.817067 (Simulation time: 1 hr 47 min 4 sec) 
Heartbeat CPU 5 instructions: 170000002 cycles: 289347391 heartbeat IPC: 0.488628 cumulative IPC: 0.504275 (Simulation time: 1 hr 47 min 15 sec) 
Finished CPU 7 instructions: 100000003 cycles: 278346472 cumulative IPC: 0.359264 (Simulation time: 1 hr 48 min 56 sec) 
Heartbeat CPU 1 instructions: 60000000 cycles: 298649037 heartbeat IPC: 0.0897445 cumulative IPC: 0.121322 (Simulation time: 1 hr 50 min 21 sec) 
Heartbeat CPU 0 instructions: 270000000 cycles: 301000206 heartbeat IPC: 0.818486 cumulative IPC: 0.817128 (Simulation time: 1 hr 51 min 8 sec) 
Heartbeat CPU 6 instructions: 200000000 cycles: 302031889 heartbeat IPC: 0.54948 cumulative IPC: 0.576207 (Simulation time: 1 hr 51 min 31 sec) 
Heartbeat CPU 3 instructions: 180000000 cycles: 306690253 heartbeat IPC: 0.545439 cumulative IPC: 0.535077 (Simulation time: 1 hr 53 min 7 sec) 
Heartbeat CPU 4 instructions: 140000000 cycles: 308023290 heartbeat IPC: 0.43055 cumulative IPC: 0.411201 (Simulation time: 1 hr 53 min 31 sec) 
Heartbeat CPU 5 instructions: 180000000 cycles: 308385710 heartbeat IPC: 0.525256 cumulative IPC: 0.505642 (Simulation time: 1 hr 53 min 37 sec) 
Heartbeat CPU 2 instructions: 170000000 cycles: 309543577 heartbeat IPC: 0.421905 cumulative IPC: 0.436575 (Simulation time: 1 hr 53 min 58 sec) 
Heartbeat CPU 7 instructions: 140000000 cycles: 309601836 heartbeat IPC: 0.317247 cumulative IPC: 0.357112 (Simulation time: 1 hr 53 min 59 sec) 
Heartbeat CPU 0 instructions: 280000000 cycles: 312933844 heartbeat IPC: 0.837967 cumulative IPC: 0.817966 (Simulation time: 1 hr 55 min 1 sec) 
Heartbeat CPU 6 instructions: 210000000 cycles: 321027190 heartbeat IPC: 0.526446 cumulative IPC: 0.573106 (Simulation time: 1 hr 57 min 45 sec) 
Heartbeat CPU 0 instructions: 290000003 cycles: 324979148 heartbeat IPC: 0.830199 cumulative IPC: 0.818443 (Simulation time: 1 hr 58 min 58 sec) 
Heartbeat CPU 3 instructions: 190000003 cycles: 325082083 heartbeat IPC: 0.54372 cumulative IPC: 0.535592 (Simulation time: 1 hr 59 min 0 sec) 
Heartbeat CPU 5 instructions: 190000002 cycles: 327345327 heartbeat IPC: 0.527437 cumulative IPC: 0.50697 (Simulation time: 1 hr 59 min 40 sec) 
Heartbeat CPU 4 instructions: 150000002 cycles: 331270643 heartbeat IPC: 0.430157 cumulative IPC: 0.4126 (Simulation time: 2 hr 0 min 51 sec) 
Heartbeat CPU 2 instructions: 180000000 cycles: 332994912 heartbeat IPC: 0.426415 cumulative IPC: 0.435823 (Simulation time: 2 hr 1 min 23 sec) 
Heartbeat CPU 0 instructions: 300000000 cycles: 337202630 heartbeat IPC: 0.818097 cumulative IPC: 0.81843 (Simulation time: 2 hr 2 min 39 sec) 
Heartbeat CPU 6 instructions: 220000000 cycles: 340174708 heartbeat IPC: 0.522261 cumulative IPC: 0.570101 (Simulation time: 2 hr 3 min 34 sec) 
Heartbeat CPU 7 instructions: 150000002 cycles: 340820222 heartbeat IPC: 0.320324 cumulative IPC: 0.353574 (Simulation time: 2 hr 3 min 46 sec) 
Heartbeat CPU 3 instructions: 200000000 cycles: 343563258 heartbeat IPC: 0.541091 cumulative IPC: 0.535902 (Simulation time: 2 hr 4 min 36 sec) 
Heartbeat CPU 5 instructions: 200000000 cycles: 344341314 heartbeat IPC: 0.588374 cumulative IPC: 0.511186 (Simulation time: 2 hr 4 min 50 sec) 
Heartbeat CPU 0 instructions: 310000003 cycles: 348947987 heartbeat IPC: 0.8514 cumulative IPC: 0.819594 (Simulation time: 2 hr 6 min 16 sec) 
Heartbeat CPU 4 instructions: 160000000 cycles: 354083834 heartbeat IPC: 0.438343 cumulative IPC: 0.414338 (Simulation time: 2 hr 7 min 53 sec) 
Heartbeat CPU 1 instructions: 70000001 cycles: 354462523 heartbeat IPC: 0.179168 cumulative IPC: 0.130867 (Simulation time: 2 hr 8 min 0 sec) 
Heartbeat CPU 2 instructions: 190000002 cycles: 358105883 heartbeat IPC: 0.398232 cumulative IPC: 0.433062 (Simulation time: 2 hr 9 min 9 sec) 
Heartbeat CPU 6 instructions: 230000003 cycles: 359192298 heartbeat IPC: 0.525829 cumulative IPC: 0.567647 (Simulation time: 2 hr 9 min 29 sec) 
Heartbeat CPU 5 instructions: 210000003 cycles: 360196676 heartbeat IPC: 0.630702 cumulative IPC: 0.516695 (Simulation time: 2 hr 9 min 47 sec) 
Heartbeat CPU 0 instructions: 320000000 cycles: 361006180 heartbeat IPC: 0.829311 cumulative IPC: 0.819934 (Simulation time: 2 hr 10 min 3 sec) 
Heartbeat CPU 3 instructions: 210000000 cycles: 361857027 heartbeat IPC: 0.546634 cumulative IPC: 0.53647 (Simulation time: 2 hr 10 min 19 sec) 
Heartbeat CPU 7 instructions: 160000000 cycles: 363280731 heartbeat IPC: 0.445226 cumulative IPC: 0.359505 (Simulation time: 2 hr 10 min 47 sec) 
Heartbeat CPU 0 instructions: 330000003 cycles: 373203143 heartbeat IPC: 0.819876 cumulative IPC: 0.819932 (Simulation time: 2 hr 13 min 50 sec) 
Heartbeat CPU 5 instructions: 220000000 cycles: 376158908 heartbeat IPC: 0.626479 cumulative IPC: 0.521563 (Simulation time: 2 hr 14 min 44 sec) 
Heartbeat CPU 4 instructions: 170000002 cycles: 377138338 heartbeat IPC: 0.433755 cumulative IPC: 0.415578 (Simulation time: 2 hr 15 min 1 sec) 
Heartbeat CPU 6 instructions: 240000000 cycles: 378753954 heartbeat IPC: 0.511204 cumulative IPC: 0.564601 (Simulation time: 2 hr 15 min 28 sec) 
Heartbeat CPU 3 instructions: 220000000 cycles: 380470994 heartbeat IPC: 0.537231 cumulative IPC: 0.536509 (Simulation time: 2 hr 15 min 58 sec) 
Heartbeat CPU 2 instructions: 200000000 cycles: 382399021 heartbeat IPC: 0.411639 cumulative IPC: 0.431641 (Simulation time: 2 hr 16 min 34 sec) 
Heartbeat CPU 7 instructions: 170000001 cycles: 384958119 heartbeat IPC: 0.46131 cumulative IPC: 0.36549 (Simulation time: 2 hr 17 min 21 sec) 
Heartbeat CPU 0 instructions: 340000000 cycles: 385360878 heartbeat IPC: 0.822521 cumulative IPC: 0.820017 (Simulation time: 2 hr 17 min 29 sec) 
Heartbeat CPU 5 instructions: 230000002 cycles: 392246078 heartbeat IPC: 0.621614 cumulative IPC: 0.525843 (Simulation time: 2 hr 19 min 32 sec) 
Heartbeat CPU 0 instructions: 350000002 cycles: 397479471 heartbeat IPC: 0.825178 cumulative IPC: 0.820181 (Simulation time: 2 hr 21 min 10 sec) 
Heartbeat CPU 6 instructions: 250000001 cycles: 397657237 heartbeat IPC: 0.529009 cumulative IPC: 0.562838 (Simulation time: 2 hr 21 min 13 sec) 
Heartbeat CPU 3 instructions: 230000001 cycles: 399159656 heartbeat IPC: 0.535084 cumulative IPC: 0.53644 (Simulation time: 2 hr 21 min 40 sec) 
Heartbeat CPU 4 instructions: 180000000 cycles: 400230615 heartbeat IPC: 0.433045 cumulative IPC: 0.416628 (Simulation time: 2 hr 22 min 0 sec) 
Heartbeat CPU 2 instructions: 210000000 cycles: 405907664 heartbeat IPC: 0.425375 cumulative IPC: 0.431263 (Simulation time: 2 hr 23 min 45 sec) 
Heartbeat CPU 7 instructions: 180000000 cycles: 406178301 heartbeat IPC: 0.471249 cumulative IPC: 0.371244 (Simulation time: 2 hr 23 min 50 sec) 
Heartbeat CPU 5 instructions: 240000000 cycles: 408069385 heartbeat IPC: 0.631979 cumulative IPC: 0.530129 (Simulation time: 2 hr 24 min 25 sec) 
Heartbeat CPU 0 instructions: 360000000 cycles: 409631965 heartbeat IPC: 0.822876 cumulative IPC: 0.820264 (Simulation time: 2 hr 24 min 53 sec) 
Heartbeat CPU 6 instructions: 260000000 cycles: 415984553 heartbeat IPC: 0.545634 cumulative IPC: 0.562049 (Simulation time: 2 hr 26 min 51 sec) 
Heartbeat CPU 3 instructions: 240000000 cycles: 417468661 heartbeat IPC: 0.546179 cumulative IPC: 0.536884 (Simulation time: 2 hr 27 min 19 sec) 
Heartbeat CPU 0 instructions: 370000003 cycles: 421443359 heartbeat IPC: 0.84664 cumulative IPC: 0.821033 (Simulation time: 2 hr 28 min 33 sec) 
Heartbeat CPU 4 instructions: 190000000 cycles: 422307350 heartbeat IPC: 0.452966 cumulative IPC: 0.418604 (Simulation time: 2 hr 28 min 50 sec) 
Heartbeat CPU 5 instructions: 250000001 cycles: 423945304 heartbeat IPC: 0.629885 cumulative IPC: 0.534013 (Simulation time: 2 hr 29 min 20 sec) 
Heartbeat CPU 7 instructions: 190000000 cycles: 427227742 heartbeat IPC: 0.475072 cumulative IPC: 0.376561 (Simulation time: 2 hr 30 min 25 sec) 
Heartbeat CPU 2 instructions: 220000000 cycles: 428414138 heartbeat IPC: 0.444317 cumulative IPC: 0.431976 (Simulation time: 2 hr 30 min 50 sec) 
Heartbeat CPU 6 instructions: 270000002 cycles: 431440938 heartbeat IPC: 0.646982 cumulative IPC: 0.56521 (Simulation time: 2 hr 31 min 54 sec) 
Heartbeat CPU 0 instructions: 380000000 cycles: 433639197 heartbeat IPC: 0.819952 cumulative IPC: 0.821001 (Simulation time: 2 hr 32 min 37 sec) 
Heartbeat CPU 3 instructions: 250000003 cycles: 436158550 heartbeat IPC: 0.535049 cumulative IPC: 0.536802 (Simulation time: 2 hr 33 min 20 sec) 
Heartbeat CPU 5 instructions: 260000000 cycles: 440562864 heartbeat IPC: 0.601773 cumulative IPC: 0.536666 (Simulation time: 2 hr 34 min 33 sec) 
Heartbeat CPU 4 instructions: 200000000 cycles: 443926028 heartbeat IPC: 0.462563 cumulative IPC: 0.420825 (Simulation time: 2 hr 35 min 31 sec) 
Heartbeat CPU 0 instructions: 390000000 cycles: 446313799 heartbeat IPC: 0.788979 cumulative IPC: 0.820058 (Simulation time: 2 hr 36 min 16 sec) 
Heartbeat CPU 1 instructions: 80000000 cycles: 446480509 heartbeat IPC: 0.108674 cumulative IPC: 0.126121 (Simulation time: 2 hr 36 min 20 sec) 
Heartbeat CPU 7 instructions: 200000000 cycles: 449886513 heartbeat IPC: 0.44133 cumulative IPC: 0.379945 (Simulation time: 2 hr 37 min 26 sec) 
Heartbeat CPU 2 instructions: 230000003 cycles: 452352127 heartbeat IPC: 0.417746 cumulative IPC: 0.431195 (Simulation time: 2 hr 38 min 12 sec) 
Heartbeat CPU 3 instructions: 260000000 cycles: 455418572 heartbeat IPC: 0.51921 cumulative IPC: 0.536031 (Simulation time: 2 hr 39 min 9 sec) 
Heartbeat CPU 5 instructions: 270000002 cycles: 456678180 heartbeat IPC: 0.620528 cumulative IPC: 0.539734 (Simulation time: 2 hr 39 min 31 sec) 
Heartbeat CPU 0 instructions: 400000000 cycles: 458154766 heartbeat IPC: 0.844526 cumulative IPC: 0.820713 (Simulation time: 2 hr 39 min 57 sec) 
Heartbeat CPU 4 instructions: 210000000 cycles: 464813038 heartbeat IPC: 0.478766 cumulative IPC: 0.423523 (Simulation time: 2 hr 41 min 55 sec) 
Heartbeat CPU 2 instructions: 240000000 cycles: 469218355 heartbeat IPC: 0.592901 cumulative IPC: 0.437215 (Simulation time: 2 hr 43 min 16 sec) 
Heartbeat CPU 6 instructions: 280000000 cycles: 469960161 heartbeat IPC: 0.259611 cumulative IPC: 0.539269 (Simulation time: 2 hr 43 min 29 sec) 
Heartbeat CPU 0 instructions: 410000000 cycles: 470304469 heartbeat IPC: 0.823065 cumulative IPC: 0.820776 (Simulation time: 2 hr 43 min 36 sec) 
Heartbeat CPU 7 instructions: 210000002 cycles: 471539919 heartbeat IPC: 0.461821 cumulative IPC: 0.383839 (Simulation time: 2 hr 43 min 58 sec) 
Heartbeat CPU 5 instructions: 280000000 cycles: 472612085 heartbeat IPC: 0.627592 cumulative IPC: 0.542801 (Simulation time: 2 hr 44 min 18 sec) 
Heartbeat CPU 3 instructions: 270000003 cycles: 474099760 heartbeat IPC: 0.535298 cumulative IPC: 0.536001 (Simulation time: 2 hr 44 min 45 sec) 
Heartbeat CPU 2 instructions: 250000003 cycles: 481056128 heartbeat IPC: 0.844754 cumulative IPC: 0.447593 (Simulation time: 2 hr 47 min 1 sec) 
Heartbeat CPU 0 instructions: 420000000 cycles: 482532722 heartbeat IPC: 0.817778 cumulative IPC: 0.820698 (Simulation time: 2 hr 47 min 31 sec) 
Heartbeat CPU 4 instructions: 220000000 cycles: 485642307 heartbeat IPC: 0.480094 cumulative IPC: 0.426033 (Simulation time: 2 hr 48 min 35 sec) 
Heartbeat CPU 5 instructions: 290000000 cycles: 488446864 heartbeat IPC: 0.631521 cumulative IPC: 0.545776 (Simulation time: 2 hr 49 min 31 sec) 
Heartbeat CPU 6 instructions: 290000003 cycles: 491125481 heartbeat IPC: 0.472471 cumulative IPC: 0.536292 (Simulation time: 2 hr 50 min 24 sec) 
Heartbeat CPU 2 instructions: 260000000 cycles: 491999441 heartbeat IPC: 0.9138 cumulative IPC: 0.458316 (Simulation time: 2 hr 50 min 41 sec) 
Heartbeat CPU 3 instructions: 280000000 cycles: 492350434 heartbeat IPC: 0.547925 cumulative IPC: 0.536458 (Simulation time: 2 hr 50 min 48 sec) 
Heartbeat CPU 7 instructions: 220000000 cycles: 492732802 heartbeat IPC: 0.471856 cumulative IPC: 0.387753 (Simulation time: 2 hr 50 min 55 sec) 
Heartbeat CPU 0 instructions: 430000000 cycles: 494239622 heartbeat IPC: 0.854197 cumulative IPC: 0.821518 (Simulation time: 2 hr 51 min 25 sec) 
Heartbeat CPU 5 instructions: 300000000 cycles: 505129830 heartbeat IPC: 0.599414 cumulative IPC: 0.547606 (Simulation time: 2 hr 54 min 40 sec) 
Heartbeat CPU 0 instructions: 440000000 cycles: 507243020 heartbeat IPC: 0.76903 cumulative IPC: 0.820128 (Simulation time: 2 hr 55 min 16 sec) 
Heartbeat CPU 4 instructions: 230000003 cycles: 507246832 heartbeat IPC: 0.462866 cumulative IPC: 0.427654 (Simulation time: 2 hr 55 min 16 sec) 
Heartbeat CPU 6 instructions: 300000000 cycles: 510284992 heartbeat IPC: 0.521934 cumulative IPC: 0.535735 (Simulation time: 2 hr 56 min 14 sec) 
Heartbeat CPU 3 instructions: 290000003 cycles: 512015814 heartbeat IPC: 0.508508 cumulative IPC: 0.535349 (Simulation time: 2 hr 56 min 49 sec) 
Heartbeat CPU 2 instructions: 270000001 cycles: 512613755 heartbeat IPC: 0.4851 cumulative IPC: 0.459428 (Simulation time: 2 hr 57 min 2 sec) 
Heartbeat CPU 1 instructions: 90000000 cycles: 515140638 heartbeat IPC: 0.145645 cumulative IPC: 0.128807 (Simulation time: 2 hr 57 min 52 sec) 
Heartbeat CPU 0 instructions: 450000000 cycles: 519232856 heartbeat IPC: 0.83404 cumulative IPC: 0.82046 (Simulation time: 2 hr 59 min 13 sec) 
Heartbeat CPU 7 instructions: 230000001 cycles: 520120662 heartbeat IPC: 0.365125 cumulative IPC: 0.386523 (Simulation time: 2 hr 59 min 29 sec) 
Heartbeat CPU 5 instructions: 310000002 cycles: 521192474 heartbeat IPC: 0.622563 cumulative IPC: 0.549991 (Simulation time: 2 hr 59 min 49 sec) 
Heartbeat CPU 2 instructions: 280000000 cycles: 525559865 heartbeat IPC: 0.772433 cumulative IPC: 0.467383 (Simulation time: 3 hr 1 min 14 sec) 
Heartbeat CPU 4 instructions: 240000000 cycles: 528001632 heartbeat IPC: 0.481816 cumulative IPC: 0.42985 (Simulation time: 3 hr 2 min 2 sec) 
Heartbeat CPU 6 instructions: 310000002 cycles: 528132010 heartbeat IPC: 0.560318 cumulative IPC: 0.536592 (Simulation time: 3 hr 2 min 5 sec) 
Heartbeat CPU 3 instructions: 300000000 cycles: 530387243 heartbeat IPC: 0.544323 cumulative IPC: 0.53567 (Simulation time: 3 hr 2 min 46 sec) 
Heartbeat CPU 0 instructions: 460000000 cycles: 530973552 heartbeat IPC: 0.851738 cumulative IPC: 0.821173 (Simulation time: 3 hr 2 min 57 sec) 
Heartbeat CPU 5 instructions: 320000000 cycles: 537085699 heartbeat IPC: 0.629199 cumulative IPC: 0.552407 (Simulation time: 3 hr 4 min 51 sec) 
Heartbeat CPU 2 instructions: 290000000 cycles: 539289094 heartbeat IPC: 0.728373 cumulative IPC: 0.474233 (Simulation time: 3 hr 5 min 33 sec) 
Heartbeat CPU 0 instructions: 470000000 cycles: 543062778 heartbeat IPC: 0.827183 cumulative IPC: 0.821311 (Simulation time: 3 hr 6 min 41 sec) 
Heartbeat CPU 6 instructions: 320000000 cycles: 545940269 heartbeat IPC: 0.561537 cumulative IPC: 0.537431 (Simulation time: 3 hr 7 min 33 sec) 
Heartbeat CPU 7 instructions: 240000000 cycles: 547723288 heartbeat IPC: 0.362284 cumulative IPC: 0.385265 (Simulation time: 3 hr 8 min 6 sec) 
Heartbeat CPU 4 instructions: 250000003 cycles: 548590371 heartbeat IPC: 0.485703 cumulative IPC: 0.43201 (Simulation time: 3 hr 8 min 22 sec) 
Heartbeat CPU 3 instructions: 310000000 cycles: 548662895 heartbeat IPC: 0.547176 cumulative IPC: 0.536065 (Simulation time: 3 hr 8 min 23 sec) 
Heartbeat CPU 5 instructions: 330000000 cycles: 552862962 heartbeat IPC: 0.633824 cumulative IPC: 0.554801 (Simulation time: 3 hr 9 min 38 sec) 
Heartbeat CPU 0 instructions: 480000000 cycles: 555136918 heartbeat IPC: 0.828216 cumulative IPC: 0.821466 (Simulation time: 3 hr 10 min 20 sec) 
Heartbeat CPU 2 instructions: 300000000 cycles: 561185063 heartbeat IPC: 0.456705 cumulative IPC: 0.473529 (Simulation time: 3 hr 12 min 9 sec) 
Heartbeat CPU 6 instructions: 330000002 cycles: 563724872 heartbeat IPC: 0.562284 cumulative IPC: 0.538238 (Simulation time: 3 hr 13 min 0 sec) 
Heartbeat CPU 0 instructions: 490000000 cycles: 566813361 heartbeat IPC: 0.856425 cumulative IPC: 0.822207 (Simulation time: 3 hr 14 min 0 sec) 
Heartbeat CPU 5 instructions: 340000000 cycles: 568512776 heartbeat IPC: 0.638985 cumulative IPC: 0.557186 (Simulation time: 3 hr 14 min 32 sec) 
Heartbeat CPU 4 instructions: 260000000 cycles: 569201733 heartbeat IPC: 0.485169 cumulative IPC: 0.433991 (Simulation time: 3 hr 14 min 44 sec) 
Heartbeat CPU 3 instructions: 320000000 cycles: 569700307 heartbeat IPC: 0.475344 cumulative IPC: 0.533757 (Simulation time: 3 hr 14 min 53 sec) 
Heartbeat CPU 0 instructions: 500000000 cycles: 579364529 heartbeat IPC: 0.796739 cumulative IPC: 0.821639 (Simulation time: 3 hr 17 min 27 sec) 
Heartbeat CPU 7 instructions: 250000001 cycles: 579947227 heartbeat IPC: 0.310328 cumulative IPC: 0.380981 (Simulation time: 3 hr 17 min 37 sec) 
Heartbeat CPU 1 instructions: 100000000 cycles: 582277700 heartbeat IPC: 0.148949 cumulative IPC: 0.131196 (Simulation time: 3 hr 18 min 15 sec) 
Heartbeat CPU 6 instructions: 340000000 cycles: 582537448 heartbeat IPC: 0.531559 cumulative IPC: 0.538016 (Simulation time: 3 hr 18 min 20 sec) 
Heartbeat CPU 2 instructions: 310000002 cycles: 585484177 heartbeat IPC: 0.411538 cumulative IPC: 0.470883 (Simulation time: 3 hr 19 min 11 sec) 
Heartbeat CPU 5 instructions: 350000000 cycles: 589737567 heartbeat IPC: 0.471147 cumulative IPC: 0.554002 (Simulation time: 3 hr 20 min 20 sec) 
Heartbeat CPU 4 instructions: 270000000 cycles: 591045860 heartbeat IPC: 0.457789 cumulative IPC: 0.434896 (Simulation time: 3 hr 20 min 40 sec) 
Heartbeat CPU 0 instructions: 510000003 cycles: 591773718 heartbeat IPC: 0.805855 cumulative IPC: 0.821299 (Simulation time: 3 hr 20 min 51 sec) 
Heartbeat CPU 6 instructions: 350000000 cycles: 601175396 heartbeat IPC: 0.53654 cumulative IPC: 0.537969 (Simulation time: 3 hr 23 min 13 sec) 
Heartbeat CPU 0 instructions: 520000000 cycles: 603670718 heartbeat IPC: 0.840548 cumulative IPC: 0.821689 (Simulation time: 3 hr 23 min 52 sec) 
Heartbeat CPU 3 instructions: 330000000 cycles: 608929208 heartbeat IPC: 0.254914 cumulative IPC: 0.515302 (Simulation time: 3 hr 25 min 15 sec) 
Heartbeat CPU 2 instructions: 320000000 cycles: 609910339 heartbeat IPC: 0.409397 cumulative IPC: 0.468353 (Simulation time: 3 hr 25 min 32 sec) 
Heartbeat CPU 4 instructions: 280000000 cycles: 612059556 heartbeat IPC: 0.47588 cumulative IPC: 0.436341 (Simulation time: 3 hr 26 min 10 sec) 
Heartbeat CPU 7 instructions: 260000000 cycles: 612315209 heartbeat IPC: 0.308947 cumulative IPC: 0.37707 (Simulation time: 3 hr 26 min 15 sec) 
Heartbeat CPU 0 instructions: 530000000 cycles: 615700846 heartbeat IPC: 0.831246 cumulative IPC: 0.821881 (Simulation time: 3 hr 27 min 10 sec) 
Heartbeat CPU 5 instructions: 360000000 cycles: 618815711 heartbeat IPC: 0.343901 cumulative IPC: 0.543864 (Simulation time: 3 hr 27 min 58 sec) 
Heartbeat CPU 6 instructions: 360000000 cycles: 619115430 heartbeat IPC: 0.557413 cumulative IPC: 0.538547 (Simulation time: 3 hr 28 min 2 sec) 
Heartbeat CPU 0 instructions: 540000000 cycles: 627927829 heartbeat IPC: 0.817863 cumulative IPC: 0.8218 (Simulation time: 3 hr 30 min 20 sec) 
Heartbeat CPU 2 instructions: 330000002 cycles: 631386967 heartbeat IPC: 0.465623 cumulative IPC: 0.468258 (Simulation time: 3 hr 31 min 13 sec) 
Heartbeat CPU 4 instructions: 290000000 cycles: 633109391 heartbeat IPC: 0.475063 cumulative IPC: 0.437662 (Simulation time: 3 hr 31 min 39 sec) 
Heartbeat CPU 1 instructions: 110000002 cycles: 635025555 heartbeat IPC: 0.189581 cumulative IPC: 0.136173 (Simulation time: 3 hr 32 min 12 sec) 
Heartbeat CPU 6 instructions: 370000002 cycles: 637509215 heartbeat IPC: 0.543662 cumulative IPC: 0.538699 (Simulation time: 3 hr 32 min 54 sec) 
Heartbeat CPU 0 instructions: 550000001 cycles: 639916430 heartbeat IPC: 0.834126 cumulative IPC: 0.822037 (Simulation time: 3 hr 33 min 34 sec) 
Heartbeat CPU 3 instructions: 340000000 cycles: 640722621 heartbeat IPC: 0.314531 cumulative IPC: 0.505082 (Simulation time: 3 hr 33 min 46 sec) 
Heartbeat CPU 7 instructions: 270000000 cycles: 644265509 heartbeat IPC: 0.312986 cumulative IPC: 0.37381 (Simulation time: 3 hr 34 min 42 sec) 
Heartbeat CPU 5 instructions: 370000002 cycles: 648632015 heartbeat IPC: 0.335387 cumulative IPC: 0.534036 (Simulation time: 3 hr 35 min 46 sec) 
Heartbeat CPU 0 instructions: 560000000 cycles: 652524567 heartbeat IPC: 0.793139 cumulative IPC: 0.821465 (Simulation time: 3 hr 36 min 43 sec) 
Heartbeat CPU 4 instructions: 300000000 cycles: 654650875 heartbeat IPC: 0.464221 cumulative IPC: 0.438558 (Simulation time: 3 hr 37 min 18 sec) 
Heartbeat CPU 2 instructions: 340000000 cycles: 655151561 heartbeat IPC: 0.420794 cumulative IPC: 0.466493 (Simulation time: 3 hr 37 min 26 sec) 
Heartbeat CPU 6 instructions: 380000000 cycles: 659618409 heartbeat IPC: 0.4523 cumulative IPC: 0.53573 (Simulation time: 3 hr 38 min 40 sec) 
Heartbeat CPU 1 instructions: 120000000 cycles: 662445001 heartbeat IPC: 0.364705 cumulative IPC: 0.145869 (Simulation time: 3 hr 39 min 25 sec) 
Heartbeat CPU 0 instructions: 570000003 cycles: 664973405 heartbeat IPC: 0.803288 cumulative IPC: 0.821116 (Simulation time: 3 hr 40 min 2 sec) 
Heartbeat CPU 3 instructions: 350000000 cycles: 672297936 heartbeat IPC: 0.316703 cumulative IPC: 0.496016 (Simulation time: 3 hr 41 min 53 sec) 
Heartbeat CPU 7 instructions: 280000000 cycles: 674081775 heartbeat IPC: 0.335387 cumulative IPC: 0.372069 (Simulation time: 3 hr 42 min 21 sec) 
Heartbeat CPU 4 instructions: 310000002 cycles: 676566222 heartbeat IPC: 0.456301 cumulative IPC: 0.439147 (Simulation time: 3 hr 43 min 1 sec) 
Heartbeat CPU 0 instructions: 580000000 cycles: 677221173 heartbeat IPC: 0.816475 cumulative IPC: 0.82103 (Simulation time: 3 hr 43 min 12 sec) 
Heartbeat CPU 5 instructions: 380000000 cycles: 679048950 heartbeat IPC: 0.328764 cumulative IPC: 0.524616 (Simulation time: 3 hr 43 min 41 sec) 
Heartbeat CPU 2 instructions: 350000001 cycles: 680375976 heartbeat IPC: 0.396441 cumulative IPC: 0.463832 (Simulation time: 3 hr 44 min 2 sec) 
Heartbeat CPU 6 instructions: 390000000 cycles: 683749358 heartbeat IPC: 0.414406 cumulative IPC: 0.531344 (Simulation time: 3 hr 44 min 56 sec) 
Heartbeat CPU 0 instructions: 590000001 cycles: 689575871 heartbeat IPC: 0.809409 cumulative IPC: 0.820817 (Simulation time: 3 hr 46 min 31 sec) 
Heartbeat CPU 3 instructions: 360000000 cycles: 691727978 heartbeat IPC: 0.514667 cumulative IPC: 0.496552 (Simulation time: 3 hr 47 min 5 sec) 
Heartbeat CPU 7 instructions: 290000002 cycles: 696609428 heartbeat IPC: 0.443899 cumulative IPC: 0.374447 (Simulation time: 3 hr 48 min 24 sec) 
Heartbeat CPU 4 instructions: 320000000 cycles: 697755064 heartbeat IPC: 0.471946 cumulative IPC: 0.440167 (Simulation time: 3 hr 48 min 43 sec) 
Heartbeat CPU 0 instructions: 600000000 cycles: 702052019 heartbeat IPC: 0.801529 cumulative IPC: 0.820466 (Simulation time: 3 hr 49 min 57 sec) 
Heartbeat CPU 2 instructions: 360000000 cycles: 705145690 heartbeat IPC: 0.403719 cumulative IPC: 0.461671 (Simulation time: 3 hr 50 min 56 sec) 
Heartbeat CPU 6 instructions: 400000000 cycles: 707340385 heartbeat IPC: 0.42389 cumulative IPC: 0.527677 (Simulation time: 3 hr 51 min 39 sec) 
Heartbeat CPU 5 instructions: 390000000 cycles: 708908927 heartbeat IPC: 0.334896 cumulative IPC: 0.516438 (Simulation time: 3 hr 52 min 9 sec) 
Finished CPU 1 instructions: 100000000 cycles: 693071445 cumulative IPC: 0.144285 (Simulation time: 3 hr 52 min 15 sec) 

CPU 0 Branch Prediction Accuracy: 99.7038% MPKI: 0.161336

CPU 1 Branch Prediction Accuracy: 98.1646% MPKI: 1.93484

CPU 2 Branch Prediction Accuracy: 97.9989% MPKI: 1.66797

CPU 3 Branch Prediction Accuracy: 98.1045% MPKI: 0.708873

CPU 4 Branch Prediction Accuracy: 99.7453% MPKI: 0.0136693

CPU 5 Branch Prediction Accuracy: 99.1468% MPKI: 0.240242

CPU 6 Branch Prediction Accuracy: 99.2015% MPKI: 0.346471

CPU 7 Branch Prediction Accuracy: 99.9992% MPKI: 0.000387906

ChampSim completed all CPUs

Total Simulation Statistics (not including warmup)

CPU 0 cumulative IPC: 0.820697 instructions: 568801518 cycles: 693071445
L1D TOTAL     ACCESS:  126298378  HIT:  113470620  MISS:   12827758
L1D LOAD      ACCESS:   85034830  HIT:   75737491  MISS:    9297339
L1D RFO       ACCESS:   41263548  HIT:   37733129  MISS:    3530419
L1D PREFETCH  ACCESS:          0  HIT:          0  MISS:          0
L1D WRITEBACK ACCESS:          0  HIT:          0  MISS:          0
L1I TOTAL     ACCESS:  149404257  HIT:  149404257  MISS:          0
L1I LOAD      ACCESS:  149404257  HIT:  149404257  MISS:          0
L1I RFO       ACCESS:          0  HIT:          0  MISS:          0
L1I PREFETCH  ACCESS:          0  HIT:          0  MISS:          0
L1I WRITEBACK ACCESS:          0  HIT:          0  MISS:          0
L2C TOTAL     ACCESS:   19781248  HIT:   17767007  MISS:    2014241
L2C LOAD      ACCESS:    9297332  HIT:    7632670  MISS:    1664662
L2C RFO       ACCESS:    3492153  HIT:    3145140  MISS:     347013
L2C PREFETCH  ACCESS:          0  HIT:          0  MISS:          0
L2C WRITEBACK ACCESS:    6991763  HIT:    6989197  MISS:       2566
LLC TOTAL     ACCESS:    2704364  HIT:    1304150  MISS:    1400214
LLC LOAD      ACCESS:    1664662  HIT:     369892  MISS:    1294770
LLC RFO       ACCESS:     347013  HIT:     258584  MISS:      88429
LLC PREFETCH  ACCESS:          0  HIT:          0  MISS:          0
LLC WRITEBACK ACCESS:     692689  HIT:     675674  MISS:      17015

CPU 1 cumulative IPC: 0.144285 instructions: 100000000 cycles: 693071445
L1D TOTAL     ACCESS:   37540922  HIT:   32438931  MISS:    5101991
L1D LOAD      ACCESS:   16950259  HIT:   11849776  MISS:    5100483
L1D RFO       ACCESS:   20590663  HIT:   20589155  MISS:       1508
L1D PREFETCH  ACCESS:          0  HIT:          0  MISS:          0
L1D WRITEBACK ACCESS:          0  HIT:          0  MISS:          0
L1I TOTAL     ACCESS:   29135256  HIT:   29135256  MISS:          0
L1I LOAD      ACCESS:   29135256  HIT:   29135256  MISS:          0
L1I RFO       ACCESS:          0  HIT:          0  MISS:          0
L1I PREFETCH  ACCESS:          0  HIT:          0  MISS:          0
L1I WRITEBACK ACCESS:          0  HIT:          0  MISS:          0
L2C TOTAL     ACCESS:    5308781  HIT:     250246  MISS:    5058535
L2C LOAD      ACCESS:    5100175  HIT:      43796  MISS:    5056379
L2C RFO       ACCESS:       1508  HIT:       1098  MISS:        410
L2C PREFETCH  ACCESS:          0  HIT:          0  MISS:          0
L2C WRITEBACK ACCESS:     207098  HIT:     205352  MISS:       1746
LLC TOTAL     ACCESS:    5230590  HIT:     394265  MISS:    4836325
LLC LOAD      ACCESS:    5056376  HIT:     220829  MISS:    4835547
LLC RFO       ACCESS:        410  HIT:        299  MISS:        111
LLC PREFETCH  ACCESS:          0  HIT:          0  MISS:          0
LLC WRITEBACK ACCESS:     173804  HIT:     173137  MISS:        667

CPU 2 cumulative IPC: 0.461544 instructions: 319883240 cycles: 693071445
L1D TOTAL     ACCESS:   54315982  HIT:   49124687  MISS:    5191295
L1D LOAD      ACCESS:   48171707  HIT:   43362954  MISS:    4808753
L1D RFO       ACCESS:    6144275  HIT:    5761733  MISS:     382542
L1D PREFETCH  ACCESS:          0  HIT:          0  MISS:          0
L1D WRITEBACK ACCESS:          0  HIT:          0  MISS:          0
L1I TOTAL     ACCESS:   86625576  HIT:   86625076  MISS:        500
L1I LOAD      ACCESS:   86625576  HIT:   86625076  MISS:        500
L1I RFO       ACCESS:          0  HIT:          0  MISS:          0
L1I PREFETCH  ACCESS:          0  HIT:          0  MISS:          0
L1I WRITEBACK ACCESS:          0  HIT:          0  MISS:          0
L2C TOTAL     ACCESS:    5711720  HIT:    1439761  MISS:    4271959
L2C LOAD      ACCESS:    4809249  HIT:     874066  MISS:    3935183
L2C RFO       ACCESS:     382520  HIT:      46760  MISS:     335760
L2C PREFETCH  ACCESS:          0  HIT:          0  MISS:          0
L2C WRITEBACK ACCESS:     519951  HIT:     518935  MISS:       1016
LLC TOTAL     ACCESS:    4717074  HIT:    1634154  MISS:    3082920
LLC LOAD      ACCESS:    3935172  HIT:    1055235  MISS:    2879937
LLC RFO       ACCESS:     335760  HIT:     133295  MISS:     202465
LLC PREFETCH  ACCESS:          0  HIT:          0  MISS:          0
LLC WRITEBACK ACCESS:     446142  HIT:     445624  MISS:        518

CPU 3 cumulative IPC: 0.497209 instructions: 344601554 cycles: 693071445
L1D TOTAL     ACCESS:  156093112  HIT:  149109885  MISS:    6983227
L1D LOAD      ACCESS:  131467102  HIT:  124646891  MISS:    6820211
L1D RFO       ACCESS:   24626010  HIT:   24462994  MISS:     163016
L1D PREFETCH  ACCESS:          0  HIT:          0  MISS:          0
L1D WRITEBACK ACCESS:          0  HIT:          0  MISS:          0
L1I TOTAL     ACCESS:   83016979  HIT:   83016925  MISS:         54
L1I LOAD      ACCESS:   83016979  HIT:   83016925  MISS:         54
L1I RFO       ACCESS:          0  HIT:          0  MISS:          0
L1I PREFETCH  ACCESS:          0  HIT:          0  MISS:          0
L1I WRITEBACK ACCESS:          0  HIT:          0  MISS:          0
L2C TOTAL     ACCESS:    7338137  HIT:     921010  MISS:    6417127
L2C LOAD      ACCESS:    6818592  HIT:     551867  MISS:    6266725
L2C RFO       ACCESS:     162105  HIT:      14998  MISS:     147107
L2C PREFETCH  ACCESS:          0  HIT:          0  MISS:          0
L2C WRITEBACK ACCESS:     357440  HIT:     354145  MISS:       3295
LLC TOTAL     ACCESS:    6733333  HIT:     328498  MISS:    6404835
LLC LOAD      ACCESS:    6266725  HIT:       9535  MISS:    6257190
LLC RFO       ACCESS:     147107  HIT:          0  MISS:     147107
LLC PREFETCH  ACCESS:          0  HIT:          0  MISS:          0
LLC WRITEBACK ACCESS:     319501  HIT:     318963  MISS:        538

CPU 4 cumulative IPC: 0.4409 instructions: 305575090 cycles: 693071445
L1D TOTAL     ACCESS:  178519405  HIT:  175599632  MISS:    2919773
L1D LOAD      ACCESS:  157700243  HIT:  154780695  MISS:    2919548
L1D RFO       ACCESS:   20819162  HIT:   20818937  MISS:        225
L1D PREFETCH  ACCESS:          0  HIT:          0  MISS:          0
L1D WRITEBACK ACCESS:          0  HIT:          0  MISS:          0
L1I TOTAL     ACCESS:   85377498  HIT:   85377354  MISS:        144
L1I LOAD      ACCESS:   85377498  HIT:   85377354  MISS:        144
L1I RFO       ACCESS:          0  HIT:          0  MISS:          0
L1I PREFETCH  ACCESS:          0  HIT:          0  MISS:          0
L1I WRITEBACK ACCESS:          0  HIT:          0  MISS:          0
L2C TOTAL     ACCESS:    4235056  HIT:    1746717  MISS:    2488339
L2C LOAD      ACCESS:    2919436  HIT:     431256  MISS:    2488180
L2C RFO       ACCESS:        182  HIT:        160  MISS:         22
L2C PREFETCH  ACCESS:          0  HIT:          0  MISS:          0
L2C WRITEBACK ACCESS:    1315438  HIT:    1315301  MISS:        137
LLC TOTAL     ACCESS:    3797082  HIT:    1650338  MISS:    2146744
LLC LOAD      ACCESS:    2488180  HIT:     342619  MISS:    2145561
LLC RFO       ACCESS:         22  HIT:          1  MISS:         21
LLC PREFETCH  ACCESS:          0  HIT:          0  MISS:          0
LLC WRITEBACK ACCESS:    1308880  HIT:    1307718  MISS:       1162

CPU 5 cumulative IPC: 0.516348 instructions: 357865980 cycles: 693071446
L1D TOTAL     ACCESS:  107489050  HIT:  102904737  MISS:    4584313
L1D LOAD      ACCESS:   96311162  HIT:   92683666  MISS:    3627496
L1D RFO       ACCESS:   11177888  HIT:   10221071  MISS:     956817
L1D PREFETCH  ACCESS:          0  HIT:          0  MISS:          0
L1D WRITEBACK ACCESS:          0  HIT:          0  MISS:          0
L1I TOTAL     ACCESS:   83909596  HIT:   83909344  MISS:        252
L1I LOAD      ACCESS:   83909596  HIT:   83909344  MISS:        252
L1I RFO       ACCESS:          0  HIT:          0  MISS:          0
L1I PREFETCH  ACCESS:          0  HIT:          0  MISS:          0
L1I WRITEBACK ACCESS:          0  HIT:          0  MISS:          0
L2C TOTAL     ACCESS:    6000160  HIT:    2818952  MISS:    3181208
L2C LOAD      ACCESS:    3627725  HIT:    1006108  MISS:    2621617
L2C RFO       ACCESS:     956183  HIT:     399666  MISS:     556517
L2C PREFETCH  ACCESS:          0  HIT:          0  MISS:          0
L2C WRITEBACK ACCESS:    1416252  HIT:    1413178  MISS:       3074
LLC TOTAL     ACCESS:    4096235  HIT:    1706345  MISS:    2389890
LLC LOAD      ACCESS:    2621617  HIT:     690563  MISS:    1931054
LLC RFO       ACCESS:     556517  HIT:     103160  MISS:     453357
LLC PREFETCH  ACCESS:          0  HIT:          0  MISS:          0
LLC WRITEBACK ACCESS:     918101  HIT:     912622  MISS:       5479

CPU 6 cumulative IPC: 0.5279 instructions: 365872528 cycles: 693071446
L1D TOTAL     ACCESS:  103538138  HIT:   99367485  MISS:    4170653
L1D LOAD      ACCESS:   81353135  HIT:   77934325  MISS:    3418810
L1D RFO       ACCESS:   22185003  HIT:   21433160  MISS:     751843
L1D PREFETCH  ACCESS:          0  HIT:          0  MISS:          0
L1D WRITEBACK ACCESS:          0  HIT:          0  MISS:          0
L1I TOTAL     ACCESS:   88872740  HIT:   88871409  MISS:       1331
L1I LOAD      ACCESS:   88872740  HIT:   88871409  MISS:       1331
L1I RFO       ACCESS:          0  HIT:          0  MISS:          0
L1I PREFETCH  ACCESS:          0  HIT:          0  MISS:          0
L1I WRITEBACK ACCESS:          0  HIT:          0  MISS:          0
L2C TOTAL     ACCESS:    5591052  HIT:    2602969  MISS:    2988083
L2C LOAD      ACCESS:    3420136  HIT:     962319  MISS:    2457817
L2C RFO       ACCESS:     751843  HIT:     222494  MISS:     529349
L2C PREFETCH  ACCESS:          0  HIT:          0  MISS:          0
L2C WRITEBACK ACCESS:    1419073  HIT:    1418156  MISS:        917
LLC TOTAL     ACCESS:    4025120  HIT:    1251300  MISS:    2773820
LLC LOAD      ACCESS:    2457817  HIT:     180630  MISS:    2277187
LLC RFO       ACCESS:     529349  HIT:      40390  MISS:     488959
LLC PREFETCH  ACCESS:          0  HIT:          0  MISS:          0
LLC WRITEBACK ACCESS:    1037954  HIT:    1030280  MISS:       7674

CPU 7 cumulative IPC: 0.376035 instructions: 260619077 cycles: 693071446
L1D TOTAL     ACCESS:   55191346  HIT:   49983865  MISS:    5207481
L1D LOAD      ACCESS:   27611935  HIT:   23204476  MISS:    4407459
L1D RFO       ACCESS:   27579411  HIT:   26779389  MISS:     800022
L1D PREFETCH  ACCESS:          0  HIT:          0  MISS:          0
L1D WRITEBACK ACCESS:          0  HIT:          0  MISS:          0
L1I TOTAL     ACCESS:   66628613  HIT:   66628565  MISS:         48
L1I LOAD      ACCESS:   66628613  HIT:   66628565  MISS:         48
L1I RFO       ACCESS:          0  HIT:          0  MISS:          0
L1I PREFETCH  ACCESS:          0  HIT:          0  MISS:          0
L1I WRITEBACK ACCESS:          0  HIT:          0  MISS:          0
L2C TOTAL     ACCESS:    6806367  HIT:    1598829  MISS:    5207538
L2C LOAD      ACCESS:    4407507  HIT:          8  MISS:    4407499
L2C RFO       ACCESS:     800022  HIT:          0  MISS:     800022
L2C PREFETCH  ACCESS:          0  HIT:          0  MISS:          0
L2C WRITEBACK ACCESS:    1598838  HIT:    1598821  MISS:         17
LLC TOTAL     ACCESS:    6806356  HIT:    1614416  MISS:    5191940
LLC LOAD      ACCESS:    4407499  HIT:       9525  MISS:    4397974
LLC RFO       ACCESS:     800022  HIT:       6073  MISS:     793949
LLC PREFETCH  ACCESS:          0  HIT:          0  MISS:          0
LLC WRITEBACK ACCESS:    1598835  HIT:    1598818  MISS:         17

Region of Interest Statistics

CPU 0 cumulative IPC: 0.805788 instructions: 100000000 cycles: 124102117
L1D TOTAL     ACCESS:   22209619  HIT:   19976892  MISS:    2232727
L1D LOAD      ACCESS:   14978738  HIT:   13367574  MISS:    1611164
L1D RFO       ACCESS:    7230881  HIT:    6609318  MISS:     621563
L1D PREFETCH  ACCESS:          0  HIT:          0  MISS:          0
L1D WRITEBACK ACCESS:          0  HIT:          0  MISS:          0
L1D PREFETCH  REQUESTED:          0  ISSUED:          0  USEFUL:          0  USELESS:          0
L1I TOTAL     ACCESS:   26230916  HIT:   26230916  MISS:          0
L1I LOAD      ACCESS:   26230916  HIT:   26230916  MISS:          0
L1I RFO       ACCESS:          0  HIT:          0  MISS:          0
L1I PREFETCH  ACCESS:          0  HIT:          0  MISS:          0
L1I WRITEBACK ACCESS:          0  HIT:          0  MISS:          0
L1I PREFETCH  REQUESTED:          0  ISSUED:          0  USEFUL:          0  USELESS:          0
L2C TOTAL     ACCESS:    3444061  HIT:    3088441  MISS:     355620
L2C LOAD      ACCESS:    1611163  HIT:    1319079  MISS:     292084
L2C RFO       ACCESS:     614895  HIT:     551801  MISS:      63094
L2C PREFETCH  ACCESS:          0  HIT:          0  MISS:          0
L2C WRITEBACK ACCESS:    1218003  HIT:    1217561  MISS:        442
L2C PREFETCH  REQUESTED:          0  ISSUED:          0  USEFUL:          0  USELESS:          0
LLC TOTAL     ACCESS:     477642  HIT:     226956  MISS:     250686
LLC LOAD      ACCESS:     292084  HIT:      61651  MISS:     230433
LLC RFO       ACCESS:      63094  HIT:      45806  MISS:      17288
LLC PREFETCH  ACCESS:          0  HIT:          0  MISS:          0
LLC WRITEBACK ACCESS:     122464  HIT:     119499  MISS:       2965
LLC PREFETCH  REQUESTED:          0  ISSUED:          0  USEFUL:          0  USELESS:          0
Major fault: 0 Minor fault: 20111

CPU 1 cumulative IPC: 0.144285 instructions: 100000000 cycles: 693071445
L1D TOTAL     ACCESS:   37540922  HIT:   32438931  MISS:    5101991
L1D LOAD      ACCESS:   16950259  HIT:   11849776  MISS:    5100483
L1D RFO       ACCESS:   20590663  HIT:   20589155  MISS:       1508
L1D PREFETCH  ACCESS:          0  HIT:          0  MISS:          0
L1D WRITEBACK ACCESS:          0  HIT:          0  MISS:          0
L1D PREFETCH  REQUESTED:          0  ISSUED:          0  USEFUL:          0  USELESS:          0
L1I TOTAL     ACCESS:   29135256  HIT:   29135256  MISS:          0
L1I LOAD      ACCESS:   29135256  HIT:   29135256  MISS:          0
L1I RFO       ACCESS:          0  HIT:          0  MISS:          0
L1I PREFETCH  ACCESS:          0  HIT:          0  MISS:          0
L1I WRITEBACK ACCESS:          0  HIT:          0  MISS:          0
L1I PREFETCH  REQUESTED:          0  ISSUED:          0  USEFUL:          0  USELESS:          0
L2C TOTAL     ACCESS:    5308781  HIT:     250246  MISS:    5058535
L2C LOAD      ACCESS:    5100175  HIT:      43796  MISS:    5056379
L2C RFO       ACCESS:       1508  HIT:       1098  MISS:        410
L2C PREFETCH  ACCESS:          0  HIT:          0  MISS:          0
L2C WRITEBACK ACCESS:     207098  HIT:     205352  MISS:       1746
L2C PREFETCH  REQUESTED:          0  ISSUED:          0  USEFUL:          0  USELESS:          0
LLC TOTAL     ACCESS:    5230590  HIT:     394265  MISS:    4836325
LLC LOAD      ACCESS:    5056376  HIT:     220829  MISS:    4835547
LLC RFO       ACCESS:        410  HIT:        299  MISS:        111
LLC PREFETCH  ACCESS:          0  HIT:          0  MISS:          0
LLC WRITEBACK ACCESS:     173804  HIT:     173137  MISS:        667
LLC PREFETCH  REQUESTED:          0  ISSUED:          0  USEFUL:          0  USELESS:          0
Major fault: 0 Minor fault: 10666

CPU 2 cumulative IPC: 0.429875 instructions: 100000001 cycles: 232625563
L1D TOTAL     ACCESS:   17181514  HIT:   15495409  MISS:    1686105
L1D LOAD      ACCESS:   15095115  HIT:   13529360  MISS:    1565755
L1D RFO       ACCESS:    2086399  HIT:    1966049  MISS:     120350
L1D PREFETCH  ACCESS:          0  HIT:          0  MISS:          0
L1D WRITEBACK ACCESS:          0  HIT:          0  MISS:          0
L1D PREFETCH  REQUESTED:          0  ISSUED:          0  USEFUL:          0  USELESS:          0
L1I TOTAL     ACCESS:   26986045  HIT:   26985887  MISS:        158
L1I LOAD      ACCESS:   26986045  HIT:   26985887  MISS:        158
L1I RFO       ACCESS:          0  HIT:          0  MISS:          0
L1I PREFETCH  ACCESS:          0  HIT:          0  MISS:          0
L1I WRITEBACK ACCESS:          0  HIT:          0  MISS:          0
L1I PREFETCH  REQUESTED:          0  ISSUED:          0  USEFUL:          0  USELESS:          0
L2C TOTAL     ACCESS:    1857560  HIT:     501813  MISS:    1355747
L2C LOAD      ACCESS:    1565910  HIT:     314355  MISS:    1251555
L2C RFO       ACCESS:     120348  HIT:      16481  MISS:     103867
L2C PREFETCH  ACCESS:          0  HIT:          0  MISS:          0
L2C WRITEBACK ACCESS:     171302  HIT:     170977  MISS:        325
L2C PREFETCH  REQUESTED:          0  ISSUED:          0  USEFUL:          0  USELESS:          0
LLC TOTAL     ACCESS:    1499345  HIT:     427549  MISS:    1071796
LLC LOAD      ACCESS:    1251549  HIT:     250298  MISS:    1001251
LLC RFO       ACCESS:     103867  HIT:      33491  MISS:      70376
LLC PREFETCH  ACCESS:          0  HIT:          0  MISS:          0
LLC WRITEBACK ACCESS:     143929  HIT:     143760  MISS:        169
LLC PREFETCH  REQUESTED:          0  ISSUED:          0  USEFUL:          0  USELESS:          0
Major fault: 0 Minor fault: 3469

CPU 3 cumulative IPC: 0.530537 instructions: 100000003 cycles: 188488322
L1D TOTAL     ACCESS:   48505976  HIT:   46493447  MISS:    2012529
L1D LOAD      ACCESS:   41060164  HIT:   39099105  MISS:    1961059
L1D RFO       ACCESS:    7445812  HIT:    7394342  MISS:      51470
L1D PREFETCH  ACCESS:          0  HIT:          0  MISS:          0
L1D WRITEBACK ACCESS:          0  HIT:          0  MISS:          0
L1D PREFETCH  REQUESTED:          0  ISSUED:          0  USEFUL:          0  USELESS:          0
L1I TOTAL     ACCESS:   24308051  HIT:   24308051  MISS:          0
L1I LOAD      ACCESS:   24308051  HIT:   24308051  MISS:          0
L1I RFO       ACCESS:          0  HIT:          0  MISS:          0
L1I PREFETCH  ACCESS:          0  HIT:          0  MISS:          0
L1I WRITEBACK ACCESS:          0  HIT:          0  MISS:          0
L1I PREFETCH  REQUESTED:          0  ISSUED:          0  USEFUL:          0  USELESS:          0
L2C TOTAL     ACCESS:    2071376  HIT:     234916  MISS:    1836460
L2C LOAD      ACCESS:    1960543  HIT:     172139  MISS:    1788404
L2C RFO       ACCESS:      51210  HIT:       4156  MISS:      47054
L2C PREFETCH  ACCESS:          0  HIT:          0  MISS:          0
L2C WRITEBACK ACCESS:      59623  HIT:      58621  MISS:       1002
L2C PREFETCH  REQUESTED:          0  ISSUED:          0  USEFUL:          0  USELESS:          0
LLC TOTAL     ACCESS:    1883531  HIT:      49487  MISS:    1834044
LLC LOAD      ACCESS:    1788404  HIT:       1586  MISS:    1786818
LLC RFO       ACCESS:      47054  HIT:          0  MISS:      47054
LLC PREFETCH  ACCESS:          0  HIT:          0  MISS:          0
LLC WRITEBACK ACCESS:      48073  HIT:      47901  MISS:        172
LLC PREFETCH  REQUESTED:          0  ISSUED:          0  USEFUL:          0  USELESS:          0
Major fault: 0 Minor fault: 97264

CPU 4 cumulative IPC: 0.407729 instructions: 100000002 cycles: 245260842
L1D TOTAL     ACCESS:   58507572  HIT:   57387487  MISS:    1120085
L1D LOAD      ACCESS:   50959661  HIT:   49839621  MISS:    1120040
L1D RFO       ACCESS:    7547911  HIT:    7547866  MISS:         45
L1D PREFETCH  ACCESS:          0  HIT:          0  MISS:          0
L1D WRITEBACK ACCESS:          0  HIT:          0  MISS:          0
L1D PREFETCH  REQUESTED:          0  ISSUED:          0  USEFUL:          0  USELESS:          0
L1I TOTAL     ACCESS:   28705233  HIT:   28705179  MISS:         54
L1I LOAD      ACCESS:   28705233  HIT:   28705179  MISS:         54
L1I RFO       ACCESS:          0  HIT:          0  MISS:          0
L1I PREFETCH  ACCESS:          0  HIT:          0  MISS:          0
L1I WRITEBACK ACCESS:          0  HIT:          0  MISS:          0
L1I PREFETCH  REQUESTED:          0  ISSUED:          0  USEFUL:          0  USELESS:          0
L2C TOTAL     ACCESS:    1626909  HIT:     587785  MISS:    1039124
L2C LOAD      ACCESS:    1120014  HIT:      80967  MISS:    1039047
L2C RFO       ACCESS:         36  HIT:         29  MISS:          7
L2C PREFETCH  ACCESS:          0  HIT:          0  MISS:          0
L2C WRITEBACK ACCESS:     506859  HIT:     506789  MISS:         70
L2C PREFETCH  REQUESTED:          0  ISSUED:          0  USEFUL:          0  USELESS:          0
LLC TOTAL     ACCESS:    1545133  HIT:     676105  MISS:     869028
LLC LOAD      ACCESS:    1039047  HIT:     170214  MISS:     868833
LLC RFO       ACCESS:          7  HIT:          0  MISS:          7
LLC PREFETCH  ACCESS:          0  HIT:          0  MISS:          0
LLC WRITEBACK ACCESS:     506079  HIT:     505891  MISS:        188
LLC PREFETCH  REQUESTED:          0  ISSUED:          0  USEFUL:          0  USELESS:          0
Major fault: 0 Minor fault: 161157

CPU 5 cumulative IPC: 0.541286 instructions: 100000000 cycles: 184745373
L1D TOTAL     ACCESS:   29517534  HIT:   28344476  MISS:    1173058
L1D LOAD      ACCESS:   27087100  HIT:   26165860  MISS:     921240
L1D RFO       ACCESS:    2430434  HIT:    2178616  MISS:     251818
L1D PREFETCH  ACCESS:          0  HIT:          0  MISS:          0
L1D WRITEBACK ACCESS:          0  HIT:          0  MISS:          0
L1D PREFETCH  REQUESTED:          0  ISSUED:          0  USEFUL:          0  USELESS:          0
L1I TOTAL     ACCESS:   24793821  HIT:   24793734  MISS:         87
L1I LOAD      ACCESS:   24793821  HIT:   24793734  MISS:         87
L1I RFO       ACCESS:          0  HIT:          0  MISS:          0
L1I PREFETCH  ACCESS:          0  HIT:          0  MISS:          0
L1I WRITEBACK ACCESS:          0  HIT:          0  MISS:          0
L1I PREFETCH  REQUESTED:          0  ISSUED:          0  USEFUL:          0  USELESS:          0
L2C TOTAL     ACCESS:    1517413  HIT:     608042  MISS:     909371
L2C LOAD      ACCESS:     921324  HIT:     185879  MISS:     735445
L2C RFO       ACCESS:     251816  HIT:      77899  MISS:     173917
L2C PREFETCH  ACCESS:          0  HIT:          0  MISS:          0
L2C WRITEBACK ACCESS:     344273  HIT:     344264  MISS:          9
L2C PREFETCH  REQUESTED:          0  ISSUED:          0  USEFUL:          0  USELESS:          0
LLC TOTAL     ACCESS:    1139906  HIT:     484623  MISS:     655283
LLC LOAD      ACCESS:     735445  HIT:     240929  MISS:     494516
LLC RFO       ACCESS:     173917  HIT:      14383  MISS:     159534
LLC PREFETCH  ACCESS:          0  HIT:          0  MISS:          0
LLC WRITEBACK ACCESS:     230544  HIT:     229311  MISS:       1233
LLC PREFETCH  REQUESTED:          0  ISSUED:          0  USEFUL:          0  USELESS:          0
Major fault: 0 Minor fault: 17474

CPU 6 cumulative IPC: 0.571694 instructions: 100000002 cycles: 174918596
L1D TOTAL     ACCESS:   27381835  HIT:   26256972  MISS:    1124863
L1D LOAD      ACCESS:   22415472  HIT:   21609480  MISS:     805992
L1D RFO       ACCESS:    4966363  HIT:    4647492  MISS:     318871
L1D PREFETCH  ACCESS:          0  HIT:          0  MISS:          0
L1D WRITEBACK ACCESS:          0  HIT:          0  MISS:          0
L1D PREFETCH  REQUESTED:          0  ISSUED:          0  USEFUL:          0  USELESS:          0
L1I TOTAL     ACCESS:   23364609  HIT:   23364182  MISS:        427
L1I LOAD      ACCESS:   23364609  HIT:   23364182  MISS:        427
L1I RFO       ACCESS:          0  HIT:          0  MISS:          0
L1I PREFETCH  ACCESS:          0  HIT:          0  MISS:          0
L1I WRITEBACK ACCESS:          0  HIT:          0  MISS:          0
L1I PREFETCH  REQUESTED:          0  ISSUED:          0  USEFUL:          0  USELESS:          0
L2C TOTAL     ACCESS:    1604051  HIT:     700439  MISS:     903612
L2C LOAD      ACCESS:     806419  HIT:     184289  MISS:     622130
L2C RFO       ACCESS:     318871  HIT:      37487  MISS:     281384
L2C PREFETCH  ACCESS:          0  HIT:          0  MISS:          0
L2C WRITEBACK ACCESS:     478761  HIT:     478663  MISS:         98
L2C PREFETCH  REQUESTED:          0  ISSUED:          0  USEFUL:          0  USELESS:          0
LLC TOTAL     ACCESS:    1303605  HIT:     408057  MISS:     895548
LLC LOAD      ACCESS:     622130  HIT:       6141  MISS:     615989
LLC RFO       ACCESS:     281384  HIT:       2674  MISS:     278710
LLC PREFETCH  ACCESS:          0  HIT:          0  MISS:          0
LLC WRITEBACK ACCESS:     400091  HIT:     399242  MISS:        849
LLC PREFETCH  REQUESTED:          0  ISSUED:          0  USEFUL:          0  USELESS:          0
Major fault: 0 Minor fault: 20401

CPU 7 cumulative IPC: 0.359264 instructions: 100000003 cycles: 278346472
L1D TOTAL     ACCESS:   22191497  HIT:   20332904  MISS:    1858593
L1D LOAD      ACCESS:   10961029  HIT:    9297414  MISS:    1663615
L1D RFO       ACCESS:   11230468  HIT:   11035490  MISS:     194978
L1D PREFETCH  ACCESS:          0  HIT:          0  MISS:          0
L1D WRITEBACK ACCESS:          0  HIT:          0  MISS:          0
L1D PREFETCH  REQUESTED:          0  ISSUED:          0  USEFUL:          0  USELESS:          0
L1I TOTAL     ACCESS:   25699822  HIT:   25699810  MISS:         12
L1I LOAD      ACCESS:   25699822  HIT:   25699810  MISS:         12
L1I RFO       ACCESS:          0  HIT:          0  MISS:          0
L1I PREFETCH  ACCESS:          0  HIT:          0  MISS:          0
L1I WRITEBACK ACCESS:          0  HIT:          0  MISS:          0
L1I PREFETCH  REQUESTED:          0  ISSUED:          0  USEFUL:          0  USELESS:          0
L2C TOTAL     ACCESS:    2441325  HIT:     582718  MISS:    1858607
L2C LOAD      ACCESS:    1663627  HIT:          8  MISS:    1663619
L2C RFO       ACCESS:     194978  HIT:          0  MISS:     194978
L2C PREFETCH  ACCESS:          0  HIT:          0  MISS:          0
L2C WRITEBACK ACCESS:     582720  HIT:     582710  MISS:         10
L2C PREFETCH  REQUESTED:          0  ISSUED:          0  USEFUL:          0  USELESS:          0
LLC TOTAL     ACCESS:    2440034  HIT:     583049  MISS:    1856985
LLC LOAD      ACCESS:    1663619  HIT:       1028  MISS:    1662591
LLC RFO       ACCESS:     194978  HIT:        594  MISS:     194384
LLC PREFETCH  ACCESS:          0  HIT:          0  MISS:          0
LLC WRITEBACK ACCESS:     581437  HIT:     581427  MISS:         10
LLC PREFETCH  REQUESTED:          0  ISSUED:          0  USEFUL:          0  USELESS:          0
Major fault: 0 Minor fault: 93932

DRAM Statistics
 CHANNEL 0
 RQ ROW_BUFFER_HIT:    6337135  ROW_BUFFER_MISS:    8278358
 DBUS_CONGESTED:   16902007
 WQ ROW_BUFFER_HIT:     212119  ROW_BUFFER_MISS:    2763576  FULL:          0

 CHANNEL 1
 RQ ROW_BUFFER_HIT:    5596935  ROW_BUFFER_MISS:    7980508
 DBUS_CONGESTED:   16902007
 WQ ROW_BUFFER_HIT:     212721  ROW_BUFFER_MISS:    2750251  FULL:          0

 AVG_CONGESTED_CYCLE: 12
