
*** ChampSim Multicore Out-of-Order Simulator ***

Warmup Instructions: 20000000
Simulation Instructions: 100000000
Number of CPUs: 8
LLC sets: 16384
LLC ways: 16
Off-chip DRAM Size: 8192 MB Channels: 2 Width: 64-bit Data Rate: 1600 MT/s

CPU 0 runs /scratch/user/djimenez/champsim-traces/speccpu2006/xz/482.sphinx3-1297B.champsimtrace.xz
CPU 1 runs /scratch/user/djimenez/champsim-traces/speccpu2006/xz/459.GemsFDTD-1418B.champsimtrace.xz
CPU 2 runs /scratch/user/djimenez/champsim-traces/speccpu2006/xz/429.mcf-217B.champsimtrace.xz
CPU 3 runs /scratch/user/djimenez/champsim-traces/speccpu2006/xz/482.sphinx3-1395B.champsimtrace.xz
CPU 4 runs /scratch/user/djimenez/champsim-traces/speccpu2006/xz/433.milc-274B.champsimtrace.xz
CPU 5 runs /scratch/user/djimenez/champsim-traces/speccpu2006/xz/462.libquantum-714B.champsimtrace.xz
CPU 6 runs /scratch/user/djimenez/champsim-traces/speccpu2006/xz/437.leslie3d-265B.champsimtrace.xz
CPU 7 runs /scratch/user/djimenez/champsim-traces/speccpu2006/xz/482.sphinx3-417B.champsimtrace.xz
Heartbeat CPU 4 instructions: 10000002 cycles: 3395416 heartbeat IPC: 2.94515 cumulative IPC: 2.94515 (Simulation time: 0 hr 2 min 47 sec) 
Heartbeat CPU 3 instructions: 10000001 cycles: 3812747 heartbeat IPC: 2.62278 cumulative IPC: 2.62278 (Simulation time: 0 hr 3 min 8 sec) 
Heartbeat CPU 0 instructions: 10000003 cycles: 3947520 heartbeat IPC: 2.53324 cumulative IPC: 2.53324 (Simulation time: 0 hr 3 min 15 sec) 
Heartbeat CPU 7 instructions: 10000000 cycles: 4062288 heartbeat IPC: 2.46167 cumulative IPC: 2.46167 (Simulation time: 0 hr 3 min 20 sec) 
Heartbeat CPU 5 instructions: 10000000 cycles: 4663252 heartbeat IPC: 2.14443 cumulative IPC: 2.14443 (Simulation time: 0 hr 3 min 51 sec) 
Heartbeat CPU 6 instructions: 10000001 cycles: 4940640 heartbeat IPC: 2.02403 cumulative IPC: 2.02403 (Simulation time: 0 hr 4 min 5 sec) 
Heartbeat CPU 2 instructions: 10000003 cycles: 5855197 heartbeat IPC: 1.70789 cumulative IPC: 1.70789 (Simulation time: 0 hr 4 min 52 sec) 
Heartbeat CPU 4 instructions: 20000000 cycles: 6793053 heartbeat IPC: 2.94322 cumulative IPC: 2.94418 (Simulation time: 0 hr 5 min 39 sec) 
Heartbeat CPU 3 instructions: 20000000 cycles: 7694550 heartbeat IPC: 2.57612 cumulative IPC: 2.59924 (Simulation time: 0 hr 6 min 25 sec) 
Heartbeat CPU 0 instructions: 20000000 cycles: 7768954 heartbeat IPC: 2.61682 cumulative IPC: 2.57435 (Simulation time: 0 hr 6 min 29 sec) 
Heartbeat CPU 1 instructions: 10000003 cycles: 7881686 heartbeat IPC: 1.26876 cumulative IPC: 1.26876 (Simulation time: 0 hr 6 min 35 sec) 
Heartbeat CPU 7 instructions: 20000000 cycles: 8041159 heartbeat IPC: 2.51328 cumulative IPC: 2.4872 (Simulation time: 0 hr 6 min 43 sec) 
Heartbeat CPU 5 instructions: 20000000 cycles: 9604128 heartbeat IPC: 2.02393 cumulative IPC: 2.08244 (Simulation time: 0 hr 8 min 2 sec) 
Heartbeat CPU 6 instructions: 20000000 cycles: 9876673 heartbeat IPC: 2.02592 cumulative IPC: 2.02497 (Simulation time: 0 hr 8 min 16 sec) 
Heartbeat CPU 4 instructions: 30000003 cycles: 10198355 heartbeat IPC: 2.9366 cumulative IPC: 0.980551 (Simulation time: 0 hr 8 min 33 sec) 
Heartbeat CPU 3 instructions: 30000000 cycles: 11481543 heartbeat IPC: 2.64062 cumulative IPC: 0.870963 (Simulation time: 0 hr 9 min 39 sec) 
Heartbeat CPU 0 instructions: 30000001 cycles: 11584092 heartbeat IPC: 2.62114 cumulative IPC: 0.863253 (Simulation time: 0 hr 9 min 44 sec) 
Heartbeat CPU 7 instructions: 30000001 cycles: 11873976 heartbeat IPC: 2.60905 cumulative IPC: 0.842178 (Simulation time: 0 hr 9 min 59 sec) 
Heartbeat CPU 2 instructions: 20000000 cycles: 12836374 heartbeat IPC: 1.43242 cumulative IPC: 1.55807 (Simulation time: 0 hr 10 min 47 sec) 
Heartbeat CPU 4 instructions: 40000000 cycles: 13594963 heartbeat IPC: 2.94411 cumulative IPC: 1.47113 (Simulation time: 0 hr 11 min 25 sec) 
Heartbeat CPU 5 instructions: 30000003 cycles: 13873778 heartbeat IPC: 2.34211 cumulative IPC: 0.720784 (Simulation time: 0 hr 11 min 39 sec) 
Heartbeat CPU 6 instructions: 30000000 cycles: 14815757 heartbeat IPC: 2.02467 cumulative IPC: 0.674957 (Simulation time: 0 hr 12 min 26 sec) 
Heartbeat CPU 3 instructions: 40000000 cycles: 15303961 heartbeat IPC: 2.61615 cumulative IPC: 1.30685 (Simulation time: 0 hr 12 min 50 sec) 
Heartbeat CPU 0 instructions: 40000000 cycles: 15515454 heartbeat IPC: 2.54365 cumulative IPC: 1.28904 (Simulation time: 0 hr 13 min 1 sec) 
Heartbeat CPU 7 instructions: 40000000 cycles: 15721500 heartbeat IPC: 2.59907 cumulative IPC: 1.27214 (Simulation time: 0 hr 13 min 11 sec) 
Heartbeat CPU 1 instructions: 20000000 cycles: 15762752 heartbeat IPC: 1.26886 cumulative IPC: 1.26881 (Simulation time: 0 hr 13 min 14 sec) 

Warmup complete CPU 0 instructions: 40721836 cycles: 15762758 (Simulation time: 0 hr 13 min 14 sec) 
Warmup complete CPU 1 instructions: 20000002 cycles: 15762758 (Simulation time: 0 hr 13 min 14 sec) 
Warmup complete CPU 2 instructions: 24959417 cycles: 15762757 (Simulation time: 0 hr 13 min 14 sec) 
Warmup complete CPU 3 instructions: 41338538 cycles: 15762757 (Simulation time: 0 hr 13 min 14 sec) 
Warmup complete CPU 4 instructions: 46384824 cycles: 15762757 (Simulation time: 0 hr 13 min 14 sec) 
Warmup complete CPU 5 instructions: 34727913 cycles: 15762757 (Simulation time: 0 hr 13 min 14 sec) 
Warmup complete CPU 6 instructions: 31919376 cycles: 15762757 (Simulation time: 0 hr 13 min 14 sec) 
Warmup complete CPU 7 instructions: 40115415 cycles: 15762757 (Simulation time: 0 hr 13 min 14 sec) 

Heartbeat CPU 4 instructions: 50000000 cycles: 23605795 heartbeat IPC: 0.998918 cumulative IPC: 0.460941 (Simulation time: 0 hr 15 min 25 sec) 
Heartbeat CPU 6 instructions: 40000000 cycles: 28065210 heartbeat IPC: 0.754748 cumulative IPC: 0.65683 (Simulation time: 0 hr 16 min 39 sec) 
Heartbeat CPU 5 instructions: 40000000 cycles: 29078224 heartbeat IPC: 0.657702 cumulative IPC: 0.395937 (Simulation time: 0 hr 16 min 55 sec) 
Heartbeat CPU 3 instructions: 50000001 cycles: 33871085 heartbeat IPC: 0.538586 cumulative IPC: 0.478314 (Simulation time: 0 hr 18 min 11 sec) 
Heartbeat CPU 1 instructions: 30000002 cycles: 35000194 heartbeat IPC: 0.51982 cumulative IPC: 0.51982 (Simulation time: 0 hr 18 min 31 sec) 
Heartbeat CPU 0 instructions: 50000002 cycles: 37612961 heartbeat IPC: 0.45254 cumulative IPC: 0.424626 (Simulation time: 0 hr 19 min 14 sec) 
Heartbeat CPU 7 instructions: 50000001 cycles: 37781505 heartbeat IPC: 0.453309 cumulative IPC: 0.448917 (Simulation time: 0 hr 19 min 17 sec) 
Heartbeat CPU 6 instructions: 50000000 cycles: 43389630 heartbeat IPC: 0.652553 cumulative IPC: 0.654458 (Simulation time: 0 hr 20 min 46 sec) 
Heartbeat CPU 4 instructions: 60000000 cycles: 45382236 heartbeat IPC: 0.459212 cumulative IPC: 0.45967 (Simulation time: 0 hr 21 min 20 sec) 
Heartbeat CPU 1 instructions: 40000000 cycles: 56893891 heartbeat IPC: 0.456752 cumulative IPC: 0.48625 (Simulation time: 0 hr 24 min 13 sec) 
Heartbeat CPU 3 instructions: 60000000 cycles: 57629363 heartbeat IPC: 0.420906 cumulative IPC: 0.445736 (Simulation time: 0 hr 24 min 24 sec) 
Heartbeat CPU 5 instructions: 50000003 cycles: 58740081 heartbeat IPC: 0.337133 cumulative IPC: 0.355352 (Simulation time: 0 hr 24 min 41 sec) 
Heartbeat CPU 6 instructions: 60000000 cycles: 61776556 heartbeat IPC: 0.543865 cumulative IPC: 0.610265 (Simulation time: 0 hr 25 min 27 sec) 
Heartbeat CPU 0 instructions: 60000000 cycles: 65914820 heartbeat IPC: 0.353334 cumulative IPC: 0.384394 (Simulation time: 0 hr 26 min 31 sec) 
Heartbeat CPU 7 instructions: 60000000 cycles: 68527666 heartbeat IPC: 0.325244 cumulative IPC: 0.376852 (Simulation time: 0 hr 27 min 14 sec) 
Heartbeat CPU 4 instructions: 70000000 cycles: 70953737 heartbeat IPC: 0.39106 cumulative IPC: 0.427881 (Simulation time: 0 hr 27 min 55 sec) 
Heartbeat CPU 6 instructions: 70000003 cycles: 77671573 heartbeat IPC: 0.629128 cumulative IPC: 0.615108 (Simulation time: 0 hr 29 min 53 sec) 
Heartbeat CPU 1 instructions: 50000002 cycles: 78282462 heartbeat IPC: 0.46754 cumulative IPC: 0.479849 (Simulation time: 0 hr 30 min 4 sec) 
Heartbeat CPU 3 instructions: 70000000 cycles: 81739866 heartbeat IPC: 0.414757 cumulative IPC: 0.434415 (Simulation time: 0 hr 31 min 3 sec) 
Heartbeat CPU 5 instructions: 60000000 cycles: 85382120 heartbeat IPC: 0.375347 cumulative IPC: 0.363004 (Simulation time: 0 hr 32 min 4 sec) 
Heartbeat CPU 4 instructions: 80000000 cycles: 88420928 heartbeat IPC: 0.572502 cumulative IPC: 0.462648 (Simulation time: 0 hr 33 min 3 sec) 
Heartbeat CPU 2 instructions: 30000002 cycles: 88696536 heartbeat IPC: 0.131822 cumulative IPC: 0.0691118 (Simulation time: 0 hr 33 min 8 sec) 
Heartbeat CPU 0 instructions: 70000003 cycles: 90195591 heartbeat IPC: 0.411849 cumulative IPC: 0.39335 (Simulation time: 0 hr 33 min 38 sec) 
Heartbeat CPU 7 instructions: 70000002 cycles: 92597066 heartbeat IPC: 0.415465 cumulative IPC: 0.388948 (Simulation time: 0 hr 34 min 24 sec) 
Heartbeat CPU 6 instructions: 80000000 cycles: 92964360 heartbeat IPC: 0.653903 cumulative IPC: 0.622793 (Simulation time: 0 hr 34 min 31 sec) 
Heartbeat CPU 1 instructions: 60000000 cycles: 98412537 heartbeat IPC: 0.496769 cumulative IPC: 0.48397 (Simulation time: 0 hr 36 min 2 sec) 
Heartbeat CPU 3 instructions: 80000000 cycles: 103604622 heartbeat IPC: 0.457357 cumulative IPC: 0.440126 (Simulation time: 0 hr 37 min 36 sec) 
Heartbeat CPU 4 instructions: 90000001 cycles: 107026961 heartbeat IPC: 0.53746 cumulative IPC: 0.4779 (Simulation time: 0 hr 38 min 41 sec) 
Heartbeat CPU 6 instructions: 90000000 cycles: 108289935 heartbeat IPC: 0.652504 cumulative IPC: 0.627714 (Simulation time: 0 hr 39 min 4 sec) 
Heartbeat CPU 5 instructions: 70000002 cycles: 110107038 heartbeat IPC: 0.40445 cumulative IPC: 0.373866 (Simulation time: 0 hr 39 min 35 sec) 
Heartbeat CPU 0 instructions: 80000000 cycles: 114973131 heartbeat IPC: 0.403591 cumulative IPC: 0.395908 (Simulation time: 0 hr 40 min 53 sec) 
Heartbeat CPU 1 instructions: 70000001 cycles: 119164613 heartbeat IPC: 0.48188 cumulative IPC: 0.48355 (Simulation time: 0 hr 42 min 0 sec) 
Heartbeat CPU 7 instructions: 80000000 cycles: 120162670 heartbeat IPC: 0.362771 cumulative IPC: 0.382037 (Simulation time: 0 hr 42 min 18 sec) 
Heartbeat CPU 2 instructions: 40000000 cycles: 122023579 heartbeat IPC: 0.300057 cumulative IPC: 0.141544 (Simulation time: 0 hr 42 min 51 sec) 
Heartbeat CPU 3 instructions: 90000000 cycles: 124125969 heartbeat IPC: 0.487297 cumulative IPC: 0.449059 (Simulation time: 0 hr 43 min 29 sec) 
Heartbeat CPU 6 instructions: 100000000 cycles: 124599586 heartbeat IPC: 0.613134 cumulative IPC: 0.625529 (Simulation time: 0 hr 43 min 38 sec) 
Heartbeat CPU 4 instructions: 100000000 cycles: 128943217 heartbeat IPC: 0.456282 cumulative IPC: 0.473714 (Simulation time: 0 hr 45 min 0 sec) 
Heartbeat CPU 3 instructions: 100000000 cycles: 134121014 heartbeat IPC: 1.0005 cumulative IPC: 0.495626 (Simulation time: 0 hr 46 min 32 sec) 
Heartbeat CPU 1 instructions: 80000000 cycles: 141019482 heartbeat IPC: 0.457564 cumulative IPC: 0.479016 (Simulation time: 0 hr 48 min 31 sec) 
Heartbeat CPU 6 instructions: 110000001 cycles: 141459861 heartbeat IPC: 0.59311 cumulative IPC: 0.621181 (Simulation time: 0 hr 48 min 39 sec) 
Heartbeat CPU 0 instructions: 90000000 cycles: 143974135 heartbeat IPC: 0.344816 cumulative IPC: 0.384351 (Simulation time: 0 hr 49 min 25 sec) 
Heartbeat CPU 5 instructions: 80000000 cycles: 145788572 heartbeat IPC: 0.280257 cumulative IPC: 0.348178 (Simulation time: 0 hr 49 min 56 sec) 
Heartbeat CPU 3 instructions: 110000000 cycles: 149245237 heartbeat IPC: 0.661191 cumulative IPC: 0.514386 (Simulation time: 0 hr 50 min 49 sec) 
Heartbeat CPU 4 instructions: 110000001 cycles: 151514817 heartbeat IPC: 0.443035 cumulative IPC: 0.468613 (Simulation time: 0 hr 51 min 22 sec) 
Heartbeat CPU 7 instructions: 90000001 cycles: 152573755 heartbeat IPC: 0.308536 cumulative IPC: 0.364624 (Simulation time: 0 hr 51 min 37 sec) 
Heartbeat CPU 6 instructions: 120000000 cycles: 158246960 heartbeat IPC: 0.595695 cumulative IPC: 0.618178 (Simulation time: 0 hr 53 min 5 sec) 
Heartbeat CPU 1 instructions: 90000003 cycles: 162848001 heartbeat IPC: 0.458116 cumulative IPC: 0.475915 (Simulation time: 0 hr 54 min 15 sec) 
Heartbeat CPU 0 instructions: 100000000 cycles: 170492030 heartbeat IPC: 0.377104 cumulative IPC: 0.383109 (Simulation time: 0 hr 56 min 31 sec) 
Heartbeat CPU 3 instructions: 120000000 cycles: 171496516 heartbeat IPC: 0.449412 cumulative IPC: 0.505102 (Simulation time: 0 hr 56 min 50 sec) 
Heartbeat CPU 4 instructions: 120000000 cycles: 172746511 heartbeat IPC: 0.470994 cumulative IPC: 0.468935 (Simulation time: 0 hr 57 min 13 sec) 
Heartbeat CPU 6 instructions: 130000000 cycles: 174155272 heartbeat IPC: 0.628602 cumulative IPC: 0.619225 (Simulation time: 0 hr 57 min 42 sec) 
Finished CPU 6 instructions: 100000000 cycles: 161190156 cumulative IPC: 0.620385 (Simulation time: 0 hr 58 min 36 sec) 
Heartbeat CPU 5 instructions: 90000002 cycles: 177075904 heartbeat IPC: 0.319618 cumulative IPC: 0.342638 (Simulation time: 0 hr 58 min 38 sec) 
Heartbeat CPU 7 instructions: 100000000 cycles: 180648481 heartbeat IPC: 0.356192 cumulative IPC: 0.363188 (Simulation time: 0 hr 59 min 40 sec) 
Heartbeat CPU 1 instructions: 100000000 cycles: 183225675 heartbeat IPC: 0.490733 cumulative IPC: 0.477718 (Simulation time: 1 hr 0 min 25 sec) 
Heartbeat CPU 3 instructions: 130000001 cycles: 187266563 heartbeat IPC: 0.634114 cumulative IPC: 0.516965 (Simulation time: 1 hr 1 min 49 sec) 
Heartbeat CPU 2 instructions: 50000001 cycles: 188641824 heartbeat IPC: 0.150109 cumulative IPC: 0.144845 (Simulation time: 1 hr 2 min 18 sec) 
Heartbeat CPU 6 instructions: 140000000 cycles: 189001931 heartbeat IPC: 0.673552 cumulative IPC: 0.623881 (Simulation time: 1 hr 2 min 24 sec) 
Heartbeat CPU 4 instructions: 130000003 cycles: 192347442 heartbeat IPC: 0.51018 cumulative IPC: 0.473513 (Simulation time: 1 hr 3 min 34 sec) 
Heartbeat CPU 0 instructions: 110000002 cycles: 193545376 heartbeat IPC: 0.433777 cumulative IPC: 0.389679 (Simulation time: 1 hr 4 min 0 sec) 
Heartbeat CPU 3 instructions: 140000000 cycles: 196394952 heartbeat IPC: 1.09548 cumulative IPC: 0.546201 (Simulation time: 1 hr 4 min 55 sec) 
Finished CPU 3 instructions: 100000001 cycles: 181841094 cumulative IPC: 0.549931 (Simulation time: 1 hr 5 min 18 sec) 
Heartbeat CPU 5 instructions: 100000000 cycles: 202887450 heartbeat IPC: 0.387423 cumulative IPC: 0.348816 (Simulation time: 1 hr 6 min 54 sec) 
Heartbeat CPU 1 instructions: 110000003 cycles: 203366652 heartbeat IPC: 0.4965 cumulative IPC: 0.479734 (Simulation time: 1 hr 7 min 3 sec) 
Heartbeat CPU 6 instructions: 150000000 cycles: 204169492 heartbeat IPC: 0.659302 cumulative IPC: 0.626733 (Simulation time: 1 hr 7 min 18 sec) 
Heartbeat CPU 3 instructions: 150000000 cycles: 206603175 heartbeat IPC: 0.979602 cumulative IPC: 0.569384 (Simulation time: 1 hr 8 min 5 sec) 
Heartbeat CPU 7 instructions: 110000002 cycles: 207647717 heartbeat IPC: 0.370381 cumulative IPC: 0.3642 (Simulation time: 1 hr 8 min 24 sec) 
Heartbeat CPU 4 instructions: 140000000 cycles: 211710519 heartbeat IPC: 0.516447 cumulative IPC: 0.477756 (Simulation time: 1 hr 9 min 42 sec) 
Heartbeat CPU 3 instructions: 160000000 cycles: 215330653 heartbeat IPC: 1.14581 cumulative IPC: 0.594592 (Simulation time: 1 hr 10 min 57 sec) 
Heartbeat CPU 0 instructions: 120000000 cycles: 216291089 heartbeat IPC: 0.439643 cumulative IPC: 0.395346 (Simulation time: 1 hr 11 min 18 sec) 
Heartbeat CPU 6 instructions: 160000000 cycles: 219346901 heartbeat IPC: 0.658874 cumulative IPC: 0.629129 (Simulation time: 1 hr 12 min 21 sec) 
Heartbeat CPU 1 instructions: 120000000 cycles: 223298866 heartbeat IPC: 0.5017 cumulative IPC: 0.481844 (Simulation time: 1 hr 13 min 47 sec) 
Finished CPU 1 instructions: 100000000 cycles: 207536125 cumulative IPC: 0.481844 (Simulation time: 1 hr 13 min 47 sec) 
Finished CPU 4 instructions: 100000003 cycles: 208220434 cumulative IPC: 0.48026 (Simulation time: 1 hr 14 min 2 sec) 
Heartbeat CPU 3 instructions: 170000003 cycles: 224312146 heartbeat IPC: 1.1134 cumulative IPC: 0.616935 (Simulation time: 1 hr 14 min 9 sec) 
Heartbeat CPU 5 instructions: 110000001 cycles: 228827249 heartbeat IPC: 0.385508 cumulative IPC: 0.353283 (Simulation time: 1 hr 15 min 43 sec) 
Heartbeat CPU 4 instructions: 150000000 cycles: 230811921 heartbeat IPC: 0.523522 cumulative IPC: 0.481821 (Simulation time: 1 hr 16 min 20 sec) 
Heartbeat CPU 0 instructions: 130000001 cycles: 234443311 heartbeat IPC: 0.550897 cumulative IPC: 0.408258 (Simulation time: 1 hr 17 min 36 sec) 
Heartbeat CPU 7 instructions: 120000000 cycles: 234858755 heartbeat IPC: 0.367498 cumulative IPC: 0.36461 (Simulation time: 1 hr 17 min 45 sec) 
Heartbeat CPU 6 instructions: 170000001 cycles: 234880005 heartbeat IPC: 0.643786 cumulative IPC: 0.630168 (Simulation time: 1 hr 17 min 46 sec) 
Heartbeat CPU 3 instructions: 180000000 cycles: 234963668 heartbeat IPC: 0.938833 cumulative IPC: 0.632577 (Simulation time: 1 hr 17 min 48 sec) 
Heartbeat CPU 1 instructions: 130000003 cycles: 243413835 heartbeat IPC: 0.497142 cumulative IPC: 0.483196 (Simulation time: 1 hr 20 min 41 sec) 
Heartbeat CPU 4 instructions: 160000000 cycles: 249603761 heartbeat IPC: 0.532146 cumulative IPC: 0.485865 (Simulation time: 1 hr 22 min 31 sec) 
Heartbeat CPU 6 instructions: 180000000 cycles: 250579554 heartbeat IPC: 0.636961 cumulative IPC: 0.630622 (Simulation time: 1 hr 22 min 50 sec) 
Heartbeat CPU 3 instructions: 190000003 cycles: 253217735 heartbeat IPC: 0.547823 cumulative IPC: 0.626062 (Simulation time: 1 hr 23 min 39 sec) 
Heartbeat CPU 0 instructions: 140000000 cycles: 253608910 heartbeat IPC: 0.521768 cumulative IPC: 0.417405 (Simulation time: 1 hr 23 min 46 sec) 
Finished CPU 0 instructions: 100000003 cycles: 239686245 cumulative IPC: 0.417212 (Simulation time: 1 hr 24 min 21 sec) 
Heartbeat CPU 5 instructions: 120000000 cycles: 256005187 heartbeat IPC: 0.367945 cumulative IPC: 0.354942 (Simulation time: 1 hr 24 min 32 sec) 
Heartbeat CPU 7 instructions: 130000001 cycles: 260937218 heartbeat IPC: 0.383458 cumulative IPC: 0.366615 (Simulation time: 1 hr 26 min 7 sec) 
Heartbeat CPU 1 instructions: 140000000 cycles: 264748474 heartbeat IPC: 0.468721 cumulative IPC: 0.481955 (Simulation time: 1 hr 27 min 16 sec) 
Heartbeat CPU 6 instructions: 190000000 cycles: 265769071 heartbeat IPC: 0.658349 cumulative IPC: 0.632307 (Simulation time: 1 hr 27 min 36 sec) 
Heartbeat CPU 4 instructions: 170000002 cycles: 268347934 heartbeat IPC: 0.533499 cumulative IPC: 0.4894 (Simulation time: 1 hr 28 min 23 sec) 
Heartbeat CPU 0 instructions: 150000003 cycles: 275189313 heartbeat IPC: 0.463384 cumulative IPC: 0.42123 (Simulation time: 1 hr 30 min 27 sec) 
Heartbeat CPU 3 instructions: 200000000 cycles: 275848985 heartbeat IPC: 0.441867 cumulative IPC: 0.610034 (Simulation time: 1 hr 30 min 37 sec) 
Heartbeat CPU 5 instructions: 130000001 cycles: 283344408 heartbeat IPC: 0.365775 cumulative IPC: 0.356049 (Simulation time: 1 hr 32 min 50 sec) 
Heartbeat CPU 1 instructions: 150000003 cycles: 285080019 heartbeat IPC: 0.491847 cumulative IPC: 0.482702 (Simulation time: 1 hr 33 min 20 sec) 
Heartbeat CPU 4 instructions: 180000000 cycles: 286689876 heartbeat IPC: 0.545198 cumulative IPC: 0.493178 (Simulation time: 1 hr 33 min 44 sec) 
Heartbeat CPU 6 instructions: 200000000 cycles: 287711687 heartbeat IPC: 0.455734 cumulative IPC: 0.61806 (Simulation time: 1 hr 34 min 0 sec) 
Heartbeat CPU 7 instructions: 140000000 cycles: 288137060 heartbeat IPC: 0.367649 cumulative IPC: 0.366718 (Simulation time: 1 hr 34 min 6 sec) 
Finished CPU 7 instructions: 100000002 cycles: 272491871 cumulative IPC: 0.366983 (Simulation time: 1 hr 34 min 8 sec) 
Heartbeat CPU 0 instructions: 160000000 cycles: 298167714 heartbeat IPC: 0.435191 cumulative IPC: 0.422366 (Simulation time: 1 hr 36 min 33 sec) 
Finished CPU 5 instructions: 100000003 cycles: 284023454 cumulative IPC: 0.352084 (Simulation time: 1 hr 36 min 59 sec) 
Heartbeat CPU 2 instructions: 60000000 cycles: 300010324 heartbeat IPC: 0.089792 cumulative IPC: 0.123275 (Simulation time: 1 hr 37 min 3 sec) 
Heartbeat CPU 3 instructions: 210000003 cycles: 301140279 heartbeat IPC: 0.395393 cumulative IPC: 0.591012 (Simulation time: 1 hr 37 min 22 sec) 
Heartbeat CPU 1 instructions: 160000000 cycles: 306874929 heartbeat IPC: 0.458823 cumulative IPC: 0.480914 (Simulation time: 1 hr 38 min 52 sec) 
Heartbeat CPU 4 instructions: 190000001 cycles: 308273346 heartbeat IPC: 0.463318 cumulative IPC: 0.490974 (Simulation time: 1 hr 39 min 13 sec) 
Heartbeat CPU 6 instructions: 210000003 cycles: 317837513 heartbeat IPC: 0.331941 cumulative IPC: 0.589525 (Simulation time: 1 hr 41 min 27 sec) 
Heartbeat CPU 7 instructions: 150000001 cycles: 319487201 heartbeat IPC: 0.318978 cumulative IPC: 0.36179 (Simulation time: 1 hr 41 min 54 sec) 
Heartbeat CPU 5 instructions: 140000000 cycles: 319698811 heartbeat IPC: 0.27507 cumulative IPC: 0.346363 (Simulation time: 1 hr 41 min 57 sec) 
Heartbeat CPU 0 instructions: 170000000 cycles: 325687314 heartbeat IPC: 0.363377 cumulative IPC: 0.417128 (Simulation time: 1 hr 43 min 36 sec) 
Heartbeat CPU 3 instructions: 220000000 cycles: 328262540 heartbeat IPC: 0.368701 cumulative IPC: 0.571717 (Simulation time: 1 hr 44 min 11 sec) 
Heartbeat CPU 1 instructions: 170000003 cycles: 329213589 heartbeat IPC: 0.447655 cumulative IPC: 0.478544 (Simulation time: 1 hr 44 min 25 sec) 
Heartbeat CPU 4 instructions: 200000000 cycles: 330210361 heartbeat IPC: 0.45585 cumulative IPC: 0.488524 (Simulation time: 1 hr 44 min 39 sec) 
Heartbeat CPU 6 instructions: 220000000 cycles: 348265914 heartbeat IPC: 0.32864 cumulative IPC: 0.565651 (Simulation time: 1 hr 48 min 39 sec) 
Heartbeat CPU 7 instructions: 160000000 cycles: 350670627 heartbeat IPC: 0.320683 cumulative IPC: 0.357963 (Simulation time: 1 hr 49 min 13 sec) 
Heartbeat CPU 1 instructions: 180000000 cycles: 350875747 heartbeat IPC: 0.461634 cumulative IPC: 0.477451 (Simulation time: 1 hr 49 min 16 sec) 
Heartbeat CPU 0 instructions: 180000000 cycles: 352837516 heartbeat IPC: 0.368321 cumulative IPC: 0.413197 (Simulation time: 1 hr 49 min 45 sec) 
Heartbeat CPU 3 instructions: 230000001 cycles: 352926509 heartbeat IPC: 0.40545 cumulative IPC: 0.559554 (Simulation time: 1 hr 49 min 46 sec) 
Heartbeat CPU 5 instructions: 150000001 cycles: 353473316 heartbeat IPC: 0.296081 cumulative IPC: 0.341334 (Simulation time: 1 hr 49 min 54 sec) 
Heartbeat CPU 2 instructions: 70000001 cycles: 365183306 heartbeat IPC: 0.153438 cumulative IPC: 0.128901 (Simulation time: 1 hr 52 min 40 sec) 
Heartbeat CPU 6 instructions: 230000000 cycles: 368298420 heartbeat IPC: 0.499189 cumulative IPC: 0.561874 (Simulation time: 1 hr 53 min 25 sec) 
Heartbeat CPU 1 instructions: 190000003 cycles: 371514090 heartbeat IPC: 0.484535 cumulative IPC: 0.477862 (Simulation time: 1 hr 54 min 10 sec) 
Heartbeat CPU 4 instructions: 210000003 cycles: 373030803 heartbeat IPC: 0.233533 cumulative IPC: 0.457962 (Simulation time: 1 hr 54 min 32 sec) 
Heartbeat CPU 3 instructions: 240000000 cycles: 378660832 heartbeat IPC: 0.388586 cumulative IPC: 0.54743 (Simulation time: 1 hr 55 min 52 sec) 
Heartbeat CPU 7 instructions: 170000002 cycles: 378798322 heartbeat IPC: 0.355522 cumulative IPC: 0.357774 (Simulation time: 1 hr 55 min 54 sec) 
Heartbeat CPU 0 instructions: 190000002 cycles: 379401567 heartbeat IPC: 0.376449 cumulative IPC: 0.410512 (Simulation time: 1 hr 56 min 2 sec) 
Heartbeat CPU 5 instructions: 160000000 cycles: 381574080 heartbeat IPC: 0.355862 cumulative IPC: 0.34245 (Simulation time: 1 hr 56 min 33 sec) 
Heartbeat CPU 6 instructions: 240000000 cycles: 387707522 heartbeat IPC: 0.515222 cumulative IPC: 0.55944 (Simulation time: 1 hr 58 min 2 sec) 
Heartbeat CPU 1 instructions: 200000000 cycles: 392114908 heartbeat IPC: 0.485417 cumulative IPC: 0.478275 (Simulation time: 1 hr 59 min 2 sec) 
Heartbeat CPU 3 instructions: 250000001 cycles: 403756655 heartbeat IPC: 0.398473 cumulative IPC: 0.537796 (Simulation time: 2 hr 1 min 46 sec) 
Heartbeat CPU 0 instructions: 200000000 cycles: 404478249 heartbeat IPC: 0.398777 cumulative IPC: 0.409755 (Simulation time: 2 hr 1 min 58 sec) 
Heartbeat CPU 7 instructions: 180000000 cycles: 406470617 heartbeat IPC: 0.361372 cumulative IPC: 0.358029 (Simulation time: 2 hr 2 min 27 sec) 
Heartbeat CPU 6 instructions: 250000000 cycles: 406960829 heartbeat IPC: 0.519391 cumulative IPC: 0.557469 (Simulation time: 2 hr 2 min 34 sec) 
Heartbeat CPU 5 instructions: 170000003 cycles: 409750386 heartbeat IPC: 0.354908 cumulative IPC: 0.343341 (Simulation time: 2 hr 3 min 14 sec) 
Heartbeat CPU 1 instructions: 210000000 cycles: 412627882 heartbeat IPC: 0.487496 cumulative IPC: 0.478752 (Simulation time: 2 hr 3 min 55 sec) 
Heartbeat CPU 4 instructions: 220000000 cycles: 419018740 heartbeat IPC: 0.217448 cumulative IPC: 0.430533 (Simulation time: 2 hr 5 min 24 sec) 
Heartbeat CPU 6 instructions: 260000000 cycles: 426226977 heartbeat IPC: 0.519045 cumulative IPC: 0.555665 (Simulation time: 2 hr 7 min 7 sec) 
Heartbeat CPU 0 instructions: 210000000 cycles: 429155436 heartbeat IPC: 0.405233 cumulative IPC: 0.409485 (Simulation time: 2 hr 7 min 48 sec) 
Heartbeat CPU 3 instructions: 260000000 cycles: 429579641 heartbeat IPC: 0.387252 cumulative IPC: 0.528401 (Simulation time: 2 hr 7 min 54 sec) 
Heartbeat CPU 1 instructions: 220000000 cycles: 433291184 heartbeat IPC: 0.48395 cumulative IPC: 0.479009 (Simulation time: 2 hr 8 min 46 sec) 
Heartbeat CPU 7 instructions: 190000000 cycles: 434139387 heartbeat IPC: 0.361418 cumulative IPC: 0.358253 (Simulation time: 2 hr 8 min 58 sec) 
Heartbeat CPU 5 instructions: 180000000 cycles: 437647276 heartbeat IPC: 0.358463 cumulative IPC: 0.344341 (Simulation time: 2 hr 9 min 49 sec) 
Heartbeat CPU 6 instructions: 270000000 cycles: 445255851 heartbeat IPC: 0.525517 cumulative IPC: 0.554329 (Simulation time: 2 hr 11 min 34 sec) 
Heartbeat CPU 1 instructions: 230000002 cycles: 453878674 heartbeat IPC: 0.485732 cumulative IPC: 0.479325 (Simulation time: 2 hr 13 min 48 sec) 
Heartbeat CPU 0 instructions: 220000000 cycles: 453916761 heartbeat IPC: 0.403856 cumulative IPC: 0.409167 (Simulation time: 2 hr 13 min 49 sec) 
Heartbeat CPU 3 instructions: 270000002 cycles: 454116112 heartbeat IPC: 0.407557 cumulative IPC: 0.521637 (Simulation time: 2 hr 13 min 52 sec) 
Heartbeat CPU 7 instructions: 200000000 cycles: 459714914 heartbeat IPC: 0.390999 cumulative IPC: 0.360139 (Simulation time: 2 hr 15 min 14 sec) 
Heartbeat CPU 6 instructions: 280000000 cycles: 464159711 heartbeat IPC: 0.528992 cumulative IPC: 0.553261 (Simulation time: 2 hr 16 min 15 sec) 
Heartbeat CPU 5 instructions: 190000000 cycles: 465720186 heartbeat IPC: 0.356215 cumulative IPC: 0.345082 (Simulation time: 2 hr 16 min 38 sec) 
Heartbeat CPU 4 instructions: 230000002 cycles: 466488929 heartbeat IPC: 0.210659 cumulative IPC: 0.407376 (Simulation time: 2 hr 16 min 51 sec) 
Heartbeat CPU 2 instructions: 80000000 cycles: 468343780 heartbeat IPC: 0.0969363 cumulative IPC: 0.121615 (Simulation time: 2 hr 17 min 21 sec) 
Heartbeat CPU 1 instructions: 240000000 cycles: 474595574 heartbeat IPC: 0.482698 cumulative IPC: 0.479477 (Simulation time: 2 hr 19 min 4 sec) 
Heartbeat CPU 3 instructions: 280000000 cycles: 479251410 heartbeat IPC: 0.397847 cumulative IPC: 0.514924 (Simulation time: 2 hr 20 min 8 sec) 
Heartbeat CPU 0 instructions: 230000003 cycles: 479559027 heartbeat IPC: 0.389981 cumulative IPC: 0.408106 (Simulation time: 2 hr 20 min 12 sec) 
Heartbeat CPU 6 instructions: 290000003 cycles: 484258730 heartbeat IPC: 0.497537 cumulative IPC: 0.550871 (Simulation time: 2 hr 21 min 15 sec) 
Heartbeat CPU 7 instructions: 210000000 cycles: 488837904 heartbeat IPC: 0.343371 cumulative IPC: 0.359107 (Simulation time: 2 hr 22 min 16 sec) 
Heartbeat CPU 4 instructions: 240000000 cycles: 493600618 heartbeat IPC: 0.368845 cumulative IPC: 0.40519 (Simulation time: 2 hr 23 min 24 sec) 
Heartbeat CPU 1 instructions: 250000001 cycles: 496950947 heartbeat IPC: 0.44732 cumulative IPC: 0.477983 (Simulation time: 2 hr 24 min 10 sec) 
Heartbeat CPU 5 instructions: 200000000 cycles: 501669775 heartbeat IPC: 0.278167 cumulative IPC: 0.340131 (Simulation time: 2 hr 25 min 14 sec) 
Heartbeat CPU 6 instructions: 300000000 cycles: 504759952 heartbeat IPC: 0.487776 cumulative IPC: 0.548225 (Simulation time: 2 hr 25 min 57 sec) 
Heartbeat CPU 3 instructions: 290000001 cycles: 505456225 heartbeat IPC: 0.381609 cumulative IPC: 0.50779 (Simulation time: 2 hr 26 min 7 sec) 
Heartbeat CPU 0 instructions: 240000000 cycles: 505901694 heartbeat IPC: 0.379612 cumulative IPC: 0.406575 (Simulation time: 2 hr 26 min 12 sec) 
Heartbeat CPU 1 instructions: 260000000 cycles: 517037374 heartbeat IPC: 0.497849 cumulative IPC: 0.478779 (Simulation time: 2 hr 28 min 39 sec) 
Heartbeat CPU 7 instructions: 220000000 cycles: 517618145 heartbeat IPC: 0.347461 cumulative IPC: 0.358439 (Simulation time: 2 hr 28 min 47 sec) 
Heartbeat CPU 4 instructions: 250000003 cycles: 519399431 heartbeat IPC: 0.387615 cumulative IPC: 0.40429 (Simulation time: 2 hr 29 min 8 sec) 
Heartbeat CPU 6 instructions: 310000001 cycles: 525418800 heartbeat IPC: 0.484054 cumulative IPC: 0.545624 (Simulation time: 2 hr 30 min 29 sec) 
Heartbeat CPU 0 instructions: 250000003 cycles: 528460845 heartbeat IPC: 0.443279 cumulative IPC: 0.40819 (Simulation time: 2 hr 31 min 12 sec) 
Heartbeat CPU 3 instructions: 300000000 cycles: 530047262 heartbeat IPC: 0.406652 cumulative IPC: 0.502954 (Simulation time: 2 hr 31 min 31 sec) 
Heartbeat CPU 1 instructions: 270000003 cycles: 538662355 heartbeat IPC: 0.462428 cumulative IPC: 0.478103 (Simulation time: 2 hr 33 min 37 sec) 
Heartbeat CPU 5 instructions: 210000002 cycles: 538869491 heartbeat IPC: 0.268819 cumulative IPC: 0.33506 (Simulation time: 2 hr 33 min 40 sec) 
Heartbeat CPU 4 instructions: 260000000 cycles: 544224498 heartbeat IPC: 0.402819 cumulative IPC: 0.404221 (Simulation time: 2 hr 34 min 55 sec) 
Heartbeat CPU 6 instructions: 320000000 cycles: 544449934 heartbeat IPC: 0.525455 cumulative IPC: 0.544898 (Simulation time: 2 hr 34 min 58 sec) 
Heartbeat CPU 7 instructions: 230000002 cycles: 544565107 heartbeat IPC: 0.371099 cumulative IPC: 0.359084 (Simulation time: 2 hr 35 min 0 sec) 
Heartbeat CPU 0 instructions: 260000000 cycles: 546136483 heartbeat IPC: 0.56575 cumulative IPC: 0.413441 (Simulation time: 2 hr 35 min 25 sec) 
Heartbeat CPU 2 instructions: 90000000 cycles: 549451804 heartbeat IPC: 0.123292 cumulative IPC: 0.12187 (Simulation time: 2 hr 36 min 22 sec) 
Heartbeat CPU 3 instructions: 310000001 cycles: 551105966 heartbeat IPC: 0.474863 cumulative IPC: 0.501849 (Simulation time: 2 hr 36 min 48 sec) 
Heartbeat CPU 1 instructions: 280000000 cycles: 557715618 heartbeat IPC: 0.524844 cumulative IPC: 0.479747 (Simulation time: 2 hr 38 min 32 sec) 
Heartbeat CPU 6 instructions: 330000000 cycles: 562679079 heartbeat IPC: 0.548572 cumulative IPC: 0.545021 (Simulation time: 2 hr 39 min 45 sec) 
Heartbeat CPU 0 instructions: 270000001 cycles: 564850335 heartbeat IPC: 0.534364 cumulative IPC: 0.417562 (Simulation time: 2 hr 40 min 17 sec) 
Heartbeat CPU 4 instructions: 270000003 cycles: 566882976 heartbeat IPC: 0.441336 cumulative IPC: 0.405747 (Simulation time: 2 hr 40 min 46 sec) 
Heartbeat CPU 5 instructions: 220000000 cycles: 569230058 heartbeat IPC: 0.329375 cumulative IPC: 0.334748 (Simulation time: 2 hr 41 min 19 sec) 
Heartbeat CPU 7 instructions: 240000000 cycles: 569471396 heartbeat IPC: 0.401505 cumulative IPC: 0.360992 (Simulation time: 2 hr 41 min 23 sec) 
Heartbeat CPU 3 instructions: 320000000 cycles: 571719986 heartbeat IPC: 0.485107 cumulative IPC: 0.501228 (Simulation time: 2 hr 41 min 58 sec) 
Heartbeat CPU 1 instructions: 290000001 cycles: 574903017 heartbeat IPC: 0.581822 cumulative IPC: 0.482884 (Simulation time: 2 hr 42 min 46 sec) 
Heartbeat CPU 6 instructions: 340000000 cycles: 580609453 heartbeat IPC: 0.557713 cumulative IPC: 0.545423 (Simulation time: 2 hr 44 min 9 sec) 
Heartbeat CPU 0 instructions: 280000000 cycles: 582830068 heartbeat IPC: 0.556182 cumulative IPC: 0.421957 (Simulation time: 2 hr 44 min 44 sec) 
Heartbeat CPU 4 instructions: 280000000 cycles: 589047500 heartbeat IPC: 0.451171 cumulative IPC: 0.407503 (Simulation time: 2 hr 46 min 17 sec) 
Heartbeat CPU 7 instructions: 250000003 cycles: 592856786 heartbeat IPC: 0.427618 cumulative IPC: 0.363692 (Simulation time: 2 hr 47 min 18 sec) 
Heartbeat CPU 1 instructions: 300000000 cycles: 593310615 heartbeat IPC: 0.543254 cumulative IPC: 0.484808 (Simulation time: 2 hr 47 min 25 sec) 
Heartbeat CPU 3 instructions: 330000000 cycles: 593888889 heartbeat IPC: 0.451082 cumulative IPC: 0.499305 (Simulation time: 2 hr 47 min 34 sec) 
Heartbeat CPU 0 instructions: 290000000 cycles: 597876905 heartbeat IPC: 0.664591 cumulative IPC: 0.428229 (Simulation time: 2 hr 48 min 44 sec) 
Heartbeat CPU 6 instructions: 350000002 cycles: 598710792 heartbeat IPC: 0.552445 cumulative IPC: 0.545641 (Simulation time: 2 hr 48 min 58 sec) 
Heartbeat CPU 5 instructions: 230000001 cycles: 598713423 heartbeat IPC: 0.339174 cumulative IPC: 0.334972 (Simulation time: 2 hr 48 min 58 sec) 
Heartbeat CPU 1 instructions: 310000002 cycles: 609516997 heartbeat IPC: 0.617041 cumulative IPC: 0.488418 (Simulation time: 2 hr 51 min 35 sec) 
Heartbeat CPU 4 instructions: 290000000 cycles: 613276425 heartbeat IPC: 0.41273 cumulative IPC: 0.407715 (Simulation time: 2 hr 52 min 22 sec) 
Heartbeat CPU 2 instructions: 100000000 cycles: 616433252 heartbeat IPC: 0.149295 cumulative IPC: 0.124928 (Simulation time: 2 hr 53 min 6 sec) 
Heartbeat CPU 6 instructions: 360000000 cycles: 618998765 heartbeat IPC: 0.492903 cumulative IPC: 0.543868 (Simulation time: 2 hr 53 min 43 sec) 
Heartbeat CPU 7 instructions: 260000000 cycles: 620472056 heartbeat IPC: 0.362118 cumulative IPC: 0.36362 (Simulation time: 2 hr 54 min 4 sec) 
Heartbeat CPU 3 instructions: 340000000 cycles: 620869224 heartbeat IPC: 0.37064 cumulative IPC: 0.493568 (Simulation time: 2 hr 54 min 9 sec) 
Heartbeat CPU 0 instructions: 300000000 cycles: 623391484 heartbeat IPC: 0.391933 cumulative IPC: 0.426705 (Simulation time: 2 hr 54 min 44 sec) 
Heartbeat CPU 5 instructions: 240000000 cycles: 635476351 heartbeat IPC: 0.272013 cumulative IPC: 0.331237 (Simulation time: 2 hr 57 min 18 sec) 
Heartbeat CPU 6 instructions: 370000002 cycles: 639240492 heartbeat IPC: 0.494029 cumulative IPC: 0.54225 (Simulation time: 2 hr 58 min 6 sec) 
Heartbeat CPU 4 instructions: 300000000 cycles: 639490499 heartbeat IPC: 0.381474 cumulative IPC: 0.406612 (Simulation time: 2 hr 58 min 9 sec) 
Heartbeat CPU 1 instructions: 320000000 cycles: 646760030 heartbeat IPC: 0.268507 cumulative IPC: 0.475438 (Simulation time: 2 hr 59 min 45 sec) 
Heartbeat CPU 3 instructions: 350000003 cycles: 647305909 heartbeat IPC: 0.378262 cumulative IPC: 0.488742 (Simulation time: 2 hr 59 min 53 sec) 
Heartbeat CPU 7 instructions: 270000002 cycles: 648772185 heartbeat IPC: 0.353355 cumulative IPC: 0.363161 (Simulation time: 3 hr 0 min 14 sec) 
Heartbeat CPU 0 instructions: 310000002 cycles: 649867450 heartbeat IPC: 0.377701 cumulative IPC: 0.424659 (Simulation time: 3 hr 0 min 30 sec) 
Heartbeat CPU 6 instructions: 380000000 cycles: 658889076 heartbeat IPC: 0.508942 cumulative IPC: 0.541232 (Simulation time: 3 hr 2 min 34 sec) 
Heartbeat CPU 4 instructions: 310000003 cycles: 663652100 heartbeat IPC: 0.41388 cumulative IPC: 0.406883 (Simulation time: 3 hr 3 min 39 sec) 
Heartbeat CPU 5 instructions: 250000002 cycles: 665929506 heartbeat IPC: 0.328373 cumulative IPC: 0.331103 (Simulation time: 3 hr 4 min 11 sec) 
Heartbeat CPU 2 instructions: 110000002 cycles: 671764885 heartbeat IPC: 0.180728 cumulative IPC: 0.129635 (Simulation time: 3 hr 5 min 35 sec) 
Heartbeat CPU 3 instructions: 360000000 cycles: 672515095 heartbeat IPC: 0.396681 cumulative IPC: 0.485208 (Simulation time: 3 hr 5 min 47 sec) 
Heartbeat CPU 0 instructions: 320000000 cycles: 674099253 heartbeat IPC: 0.412681 cumulative IPC: 0.424218 (Simulation time: 3 hr 6 min 12 sec) 
Heartbeat CPU 7 instructions: 280000000 cycles: 674500663 heartbeat IPC: 0.388674 cumulative IPC: 0.364158 (Simulation time: 3 hr 6 min 18 sec) 
Heartbeat CPU 6 instructions: 390000002 cycles: 676927153 heartbeat IPC: 0.554383 cumulative IPC: 0.541591 (Simulation time: 3 hr 6 min 57 sec) 
Heartbeat CPU 1 instructions: 330000000 cycles: 680860781 heartbeat IPC: 0.293249 cumulative IPC: 0.466097 (Simulation time: 3 hr 7 min 56 sec) 
Heartbeat CPU 4 instructions: 320000000 cycles: 685491901 heartbeat IPC: 0.457879 cumulative IPC: 0.408546 (Simulation time: 3 hr 9 min 0 sec) 
Heartbeat CPU 5 instructions: 260000000 cycles: 691264478 heartbeat IPC: 0.394711 cumulative IPC: 0.333489 (Simulation time: 3 hr 10 min 27 sec) 
Heartbeat CPU 6 instructions: 400000000 cycles: 695064014 heartbeat IPC: 0.551363 cumulative IPC: 0.541852 (Simulation time: 3 hr 11 min 28 sec) 
Heartbeat CPU 3 instructions: 370000000 cycles: 695588884 heartbeat IPC: 0.433392 cumulative IPC: 0.483449 (Simulation time: 3 hr 11 min 36 sec) 
Heartbeat CPU 0 instructions: 330000002 cycles: 696311202 heartbeat IPC: 0.450208 cumulative IPC: 0.425066 (Simulation time: 3 hr 11 min 47 sec) 
Heartbeat CPU 2 instructions: 120000000 cycles: 696411683 heartbeat IPC: 0.405732 cumulative IPC: 0.139632 (Simulation time: 3 hr 11 min 48 sec) 
Heartbeat CPU 7 instructions: 290000001 cycles: 698303300 heartbeat IPC: 0.420122 cumulative IPC: 0.36611 (Simulation time: 3 hr 12 min 17 sec) 
Heartbeat CPU 4 instructions: 330000003 cycles: 706716103 heartbeat IPC: 0.47116 cumulative IPC: 0.410469 (Simulation time: 3 hr 14 min 20 sec) 
Heartbeat CPU 1 instructions: 340000000 cycles: 706989546 heartbeat IPC: 0.38272 cumulative IPC: 0.462945 (Simulation time: 3 hr 14 min 24 sec) 
Heartbeat CPU 6 instructions: 410000001 cycles: 713959286 heartbeat IPC: 0.529233 cumulative IPC: 0.54151 (Simulation time: 3 hr 16 min 2 sec) 
Heartbeat CPU 0 instructions: 340000000 cycles: 718229061 heartbeat IPC: 0.456249 cumulative IPC: 0.426039 (Simulation time: 3 hr 17 min 3 sec) 
Heartbeat CPU 3 instructions: 380000000 cycles: 719564295 heartbeat IPC: 0.417094 cumulative IPC: 0.481189 (Simulation time: 3 hr 17 min 23 sec) 
Heartbeat CPU 5 instructions: 270000000 cycles: 721240779 heartbeat IPC: 0.333597 cumulative IPC: 0.333493 (Simulation time: 3 hr 17 min 46 sec) 
Heartbeat CPU 7 instructions: 300000000 cycles: 722130216 heartbeat IPC: 0.419693 cumulative IPC: 0.367917 (Simulation time: 3 hr 17 min 59 sec) 
Heartbeat CPU 1 instructions: 350000000 cycles: 726866721 heartbeat IPC: 0.50309 cumulative IPC: 0.464067 (Simulation time: 3 hr 19 min 4 sec) 
Heartbeat CPU 4 instructions: 340000000 cycles: 728018543 heartbeat IPC: 0.46943 cumulative IPC: 0.412233 (Simulation time: 3 hr 19 min 20 sec) 
Heartbeat CPU 6 instructions: 420000000 cycles: 732457146 heartbeat IPC: 0.540603 cumulative IPC: 0.541487 (Simulation time: 3 hr 20 min 27 sec) 
Finished CPU 2 instructions: 100000000 cycles: 719221951 cumulative IPC: 0.139039 (Simulation time: 3 hr 21 min 7 sec) 

CPU 0 Branch Prediction Accuracy: 98.0056% MPKI: 1.6631

CPU 1 Branch Prediction Accuracy: 99.8119% MPKI: 0.0486013

CPU 2 Branch Prediction Accuracy: 98.1597% MPKI: 1.9549

CPU 3 Branch Prediction Accuracy: 98.1401% MPKI: 1.53655

CPU 4 Branch Prediction Accuracy: 99.9991% MPKI: 0.000250522

CPU 5 Branch Prediction Accuracy: 99.3627% MPKI: 1.02815

CPU 6 Branch Prediction Accuracy: 99.1387% MPKI: 0.205173

CPU 7 Branch Prediction Accuracy: 97.1865% MPKI: 2.4637

ChampSim completed all CPUs

Total Simulation Statistics (not including warmup)

CPU 0 cumulative IPC: 0.42621 instructions: 306539238 cycles: 719221950
L1D TOTAL     ACCESS:   51929286  HIT:   46956496  MISS:    4972790
L1D LOAD      ACCESS:   46017740  HIT:   41411368  MISS:    4606372
L1D RFO       ACCESS:    5911546  HIT:    5545128  MISS:     366418
L1D PREFETCH  ACCESS:          0  HIT:          0  MISS:          0
L1D WRITEBACK ACCESS:          0  HIT:          0  MISS:          0
L1I TOTAL     ACCESS:   82982040  HIT:   82981542  MISS:        498
L1I LOAD      ACCESS:   82982040  HIT:   82981542  MISS:        498
L1I RFO       ACCESS:          0  HIT:          0  MISS:          0
L1I PREFETCH  ACCESS:          0  HIT:          0  MISS:          0
L1I WRITEBACK ACCESS:          0  HIT:          0  MISS:          0
L2C TOTAL     ACCESS:    5471407  HIT:    1375477  MISS:    4095930
L2C LOAD      ACCESS:    4606867  HIT:     832865  MISS:    3774002
L2C RFO       ACCESS:     366400  HIT:      45451  MISS:     320949
L2C PREFETCH  ACCESS:          0  HIT:          0  MISS:          0
L2C WRITEBACK ACCESS:     498140  HIT:     497161  MISS:        979
LLC TOTAL     ACCESS:    4521869  HIT:    1160059  MISS:    3361810
LLC LOAD      ACCESS:    3773995  HIT:     645118  MISS:    3128877
LLC RFO       ACCESS:     320949  HIT:      88613  MISS:     232336
LLC PREFETCH  ACCESS:          0  HIT:          0  MISS:          0
LLC WRITEBACK ACCESS:     426925  HIT:     426328  MISS:        597

CPU 1 cumulative IPC: 0.464539 instructions: 334106408 cycles: 719221950
L1D TOTAL     ACCESS:  170285347  HIT:  165950146  MISS:    4335201
L1D LOAD      ACCESS:  149506389  HIT:  145346651  MISS:    4159738
L1D RFO       ACCESS:   20778958  HIT:   20603495  MISS:     175463
L1D PREFETCH  ACCESS:          0  HIT:          0  MISS:          0
L1D WRITEBACK ACCESS:          0  HIT:          0  MISS:          0
L1I TOTAL     ACCESS:   95708402  HIT:   95707780  MISS:        622
L1I LOAD      ACCESS:   95708402  HIT:   95707780  MISS:        622
L1I RFO       ACCESS:          0  HIT:          0  MISS:          0
L1I PREFETCH  ACCESS:          0  HIT:          0  MISS:          0
L1I WRITEBACK ACCESS:          0  HIT:          0  MISS:          0
L2C TOTAL     ACCESS:    5996524  HIT:    3290170  MISS:    2706354
L2C LOAD      ACCESS:    4160071  HIT:    1629230  MISS:    2530841
L2C RFO       ACCESS:     175435  HIT:        143  MISS:     175292
L2C PREFETCH  ACCESS:          0  HIT:          0  MISS:          0
L2C WRITEBACK ACCESS:    1661018  HIT:    1660797  MISS:        221
LLC TOTAL     ACCESS:    3977107  HIT:    1681614  MISS:    2295493
LLC LOAD      ACCESS:    2530832  HIT:     292459  MISS:    2238373
LLC RFO       ACCESS:     175290  HIT:     124570  MISS:      50720
LLC PREFETCH  ACCESS:          0  HIT:          0  MISS:          0
LLC WRITEBACK ACCESS:    1270985  HIT:    1264585  MISS:       6400

CPU 2 cumulative IPC: 0.139039 instructions: 100000000 cycles: 719221951
L1D TOTAL     ACCESS:   37537469  HIT:   32433419  MISS:    5104050
L1D LOAD      ACCESS:   16950212  HIT:   11847672  MISS:    5102540
L1D RFO       ACCESS:   20587257  HIT:   20585747  MISS:       1510
L1D PREFETCH  ACCESS:          0  HIT:          0  MISS:          0
L1D WRITEBACK ACCESS:          0  HIT:          0  MISS:          0
L1I TOTAL     ACCESS:   29159277  HIT:   29159277  MISS:          0
L1I LOAD      ACCESS:   29159277  HIT:   29159277  MISS:          0
L1I RFO       ACCESS:          0  HIT:          0  MISS:          0
L1I PREFETCH  ACCESS:          0  HIT:          0  MISS:          0
L1I WRITEBACK ACCESS:          0  HIT:          0  MISS:          0
L2C TOTAL     ACCESS:    5310307  HIT:     249922  MISS:    5060385
L2C LOAD      ACCESS:    5102234  HIT:      44010  MISS:    5058224
L2C RFO       ACCESS:       1510  HIT:       1100  MISS:        410
L2C PREFETCH  ACCESS:          0  HIT:          0  MISS:          0
L2C WRITEBACK ACCESS:     206563  HIT:     204812  MISS:       1751
LLC TOTAL     ACCESS:    5232209  HIT:     288515  MISS:    4943694
LLC LOAD      ACCESS:    5058224  HIT:     115315  MISS:    4942909
LLC RFO       ACCESS:        410  HIT:        276  MISS:        134
LLC PREFETCH  ACCESS:          0  HIT:          0  MISS:          0
LLC WRITEBACK ACCESS:     173575  HIT:     172924  MISS:        651

CPU 3 cumulative IPC: 0.480891 instructions: 345867124 cycles: 719221951
L1D TOTAL     ACCESS:   57865901  HIT:   52515725  MISS:    5350176
L1D LOAD      ACCESS:   51914937  HIT:   46992573  MISS:    4922364
L1D RFO       ACCESS:    5950964  HIT:    5523152  MISS:     427812
L1D PREFETCH  ACCESS:          0  HIT:          0  MISS:          0
L1D WRITEBACK ACCESS:          0  HIT:          0  MISS:          0
L1I TOTAL     ACCESS:   94254141  HIT:   94252996  MISS:       1145
L1I LOAD      ACCESS:   94254141  HIT:   94252996  MISS:       1145
L1I RFO       ACCESS:          0  HIT:          0  MISS:          0
L1I PREFETCH  ACCESS:          0  HIT:          0  MISS:          0
L1I WRITEBACK ACCESS:          0  HIT:          0  MISS:          0
L2C TOTAL     ACCESS:    5892384  HIT:    1386438  MISS:    4505946
L2C LOAD      ACCESS:    4923508  HIT:     801777  MISS:    4121731
L2C RFO       ACCESS:     427799  HIT:      44605  MISS:     383194
L2C PREFETCH  ACCESS:          0  HIT:          0  MISS:          0
L2C WRITEBACK ACCESS:     541077  HIT:     540056  MISS:       1021
LLC TOTAL     ACCESS:    4981698  HIT:    1827217  MISS:    3154481
LLC LOAD      ACCESS:    4121726  HIT:    1202230  MISS:    2919496
LLC RFO       ACCESS:     383194  HIT:     148686  MISS:     234508
LLC PREFETCH  ACCESS:          0  HIT:          0  MISS:          0
LLC WRITEBACK ACCESS:     476778  HIT:     476301  MISS:        477

CPU 4 cumulative IPC: 0.412863 instructions: 296940392 cycles: 719221951
L1D TOTAL     ACCESS:   41395137  HIT:   36550774  MISS:    4844363
L1D LOAD      ACCESS:   29124410  HIT:   25453338  MISS:    3671072
L1D RFO       ACCESS:   12270727  HIT:   11097436  MISS:    1173291
L1D PREFETCH  ACCESS:          0  HIT:          0  MISS:          0
L1D WRITEBACK ACCESS:          0  HIT:          0  MISS:          0
L1I TOTAL     ACCESS:   68039365  HIT:   68039286  MISS:         79
L1I LOAD      ACCESS:   68039365  HIT:   68039286  MISS:         79
L1I RFO       ACCESS:          0  HIT:          0  MISS:          0
L1I PREFETCH  ACCESS:          0  HIT:          0  MISS:          0
L1I WRITEBACK ACCESS:          0  HIT:          0  MISS:          0
L2C TOTAL     ACCESS:    6537294  HIT:    1692839  MISS:    4844455
L2C LOAD      ACCESS:    3671151  HIT:          0  MISS:    3671151
L2C RFO       ACCESS:    1173291  HIT:          0  MISS:    1173291
L2C PREFETCH  ACCESS:          0  HIT:          0  MISS:          0
L2C WRITEBACK ACCESS:    1692852  HIT:    1692839  MISS:         13
LLC TOTAL     ACCESS:    6539722  HIT:    1692294  MISS:    4847428
LLC LOAD      ACCESS:    3671151  HIT:        323  MISS:    3670828
LLC RFO       ACCESS:    1173291  HIT:        256  MISS:    1173035
LLC PREFETCH  ACCESS:          0  HIT:          0  MISS:          0
LLC WRITEBACK ACCESS:    1695280  HIT:    1691715  MISS:       3565

CPU 5 cumulative IPC: 0.331726 instructions: 238584486 cycles: 719221951
L1D TOTAL     ACCESS:   34739862  HIT:   28582488  MISS:    6157374
L1D LOAD      ACCESS:   25742387  HIT:   19585061  MISS:    6157326
L1D RFO       ACCESS:    8997475  HIT:    8997427  MISS:         48
L1D PREFETCH  ACCESS:          0  HIT:          0  MISS:          0
L1D WRITEBACK ACCESS:          0  HIT:          0  MISS:          0
L1I TOTAL     ACCESS:   75390189  HIT:   75390188  MISS:          1
L1I LOAD      ACCESS:   75390189  HIT:   75390188  MISS:          1
L1I RFO       ACCESS:          0  HIT:          0  MISS:          0
L1I PREFETCH  ACCESS:          0  HIT:          0  MISS:          0
L1I WRITEBACK ACCESS:          0  HIT:          0  MISS:          0
L2C TOTAL     ACCESS:    8612581  HIT:    2455206  MISS:    6157375
L2C LOAD      ACCESS:    6157327  HIT:          0  MISS:    6157327
L2C RFO       ACCESS:         48  HIT:          0  MISS:         48
L2C PREFETCH  ACCESS:          0  HIT:          0  MISS:          0
L2C WRITEBACK ACCESS:    2455206  HIT:    2455206  MISS:          0
LLC TOTAL     ACCESS:    8609892  HIT:    2452517  MISS:    6157375
LLC LOAD      ACCESS:    6157327  HIT:          0  MISS:    6157327
LLC RFO       ACCESS:         48  HIT:          0  MISS:         48
LLC PREFETCH  ACCESS:          0  HIT:          0  MISS:          0
LLC WRITEBACK ACCESS:    2452517  HIT:    2452517  MISS:          0

CPU 6 cumulative IPC: 0.541615 instructions: 389541056 cycles: 719221951
L1D TOTAL     ACCESS:  118384543  HIT:  114193862  MISS:    4190681
L1D LOAD      ACCESS:  107956632  HIT:  104791356  MISS:    3165276
L1D RFO       ACCESS:   10427911  HIT:    9402506  MISS:    1025405
L1D PREFETCH  ACCESS:          0  HIT:          0  MISS:          0
L1D WRITEBACK ACCESS:          0  HIT:          0  MISS:          0
L1I TOTAL     ACCESS:   93953649  HIT:   93953414  MISS:        235
L1I LOAD      ACCESS:   93953649  HIT:   93953414  MISS:        235
L1I RFO       ACCESS:          0  HIT:          0  MISS:          0
L1I PREFETCH  ACCESS:          0  HIT:          0  MISS:          0
L1I WRITEBACK ACCESS:          0  HIT:          0  MISS:          0
L2C TOTAL     ACCESS:    5554349  HIT:    2708804  MISS:    2845545
L2C LOAD      ACCESS:    3165496  HIT:     946451  MISS:    2219045
L2C RFO       ACCESS:    1025397  HIT:     398954  MISS:     626443
L2C PREFETCH  ACCESS:          0  HIT:          0  MISS:          0
L2C WRITEBACK ACCESS:    1363456  HIT:    1363399  MISS:         57
LLC TOTAL     ACCESS:    3605320  HIT:     908790  MISS:    2696530
LLC LOAD      ACCESS:    2219045  HIT:     118479  MISS:    2100566
LLC RFO       ACCESS:     626443  HIT:      34328  MISS:     592115
LLC PREFETCH  ACCESS:          0  HIT:          0  MISS:          0
LLC WRITEBACK ACCESS:     759832  HIT:     755983  MISS:       3849

CPU 7 cumulative IPC: 0.369325 instructions: 265626458 cycles: 719221951
L1D TOTAL     ACCESS:   47468717  HIT:   42428784  MISS:    5039933
L1D LOAD      ACCESS:   40462800  HIT:   35710041  MISS:    4752759
L1D RFO       ACCESS:    7005917  HIT:    6718743  MISS:     287174
L1D PREFETCH  ACCESS:          0  HIT:          0  MISS:          0
L1D WRITEBACK ACCESS:          0  HIT:          0  MISS:          0
L1I TOTAL     ACCESS:   70190245  HIT:   70189905  MISS:        340
L1I LOAD      ACCESS:   70190245  HIT:   70189905  MISS:        340
L1I RFO       ACCESS:          0  HIT:          0  MISS:          0
L1I PREFETCH  ACCESS:          0  HIT:          0  MISS:          0
L1I WRITEBACK ACCESS:          0  HIT:          0  MISS:          0
L2C TOTAL     ACCESS:    5511813  HIT:    1717742  MISS:    3794071
L2C LOAD      ACCESS:    4753098  HIT:    1191999  MISS:    3561099
L2C RFO       ACCESS:     287150  HIT:      54934  MISS:     232216
L2C PREFETCH  ACCESS:          0  HIT:          0  MISS:          0
L2C WRITEBACK ACCESS:     471565  HIT:     470809  MISS:        756
LLC TOTAL     ACCESS:    4175744  HIT:     722147  MISS:    3453597
LLC LOAD      ACCESS:    3561096  HIT:     306427  MISS:    3254669
LLC RFO       ACCESS:     232216  HIT:      35953  MISS:     196263
LLC PREFETCH  ACCESS:          0  HIT:          0  MISS:          0
LLC WRITEBACK ACCESS:     382432  HIT:     379767  MISS:       2665

Region of Interest Statistics

CPU 0 cumulative IPC: 0.417212 instructions: 100000003 cycles: 239686245
L1D TOTAL     ACCESS:   17125703  HIT:   15441165  MISS:    1684538
L1D LOAD      ACCESS:   15046787  HIT:   13480217  MISS:    1566570
L1D RFO       ACCESS:    2078916  HIT:    1960948  MISS:     117968
L1D PREFETCH  ACCESS:          0  HIT:          0  MISS:          0
L1D WRITEBACK ACCESS:          0  HIT:          0  MISS:          0
L1D PREFETCH  REQUESTED:          0  ISSUED:          0  USEFUL:          0  USELESS:          0
L1I TOTAL     ACCESS:   26954767  HIT:   26954609  MISS:        158
L1I LOAD      ACCESS:   26954767  HIT:   26954609  MISS:        158
L1I RFO       ACCESS:          0  HIT:          0  MISS:          0
L1I PREFETCH  ACCESS:          0  HIT:          0  MISS:          0
L1I WRITEBACK ACCESS:          0  HIT:          0  MISS:          0
L1I PREFETCH  REQUESTED:          0  ISSUED:          0  USEFUL:          0  USELESS:          0
L2C TOTAL     ACCESS:    1852819  HIT:     495374  MISS:    1357445
L2C LOAD      ACCESS:    1566726  HIT:     311369  MISS:    1255357
L2C RFO       ACCESS:     117963  HIT:      16193  MISS:     101770
L2C PREFETCH  ACCESS:          0  HIT:          0  MISS:          0
L2C WRITEBACK ACCESS:     168130  HIT:     167812  MISS:        318
L2C PREFETCH  REQUESTED:          0  ISSUED:          0  USEFUL:          0  USELESS:          0
LLC TOTAL     ACCESS:    1498395  HIT:     349691  MISS:    1148704
LLC LOAD      ACCESS:    1255356  HIT:     184227  MISS:    1071129
LLC RFO       ACCESS:     101770  HIT:      24528  MISS:      77242
LLC PREFETCH  ACCESS:          0  HIT:          0  MISS:          0
LLC WRITEBACK ACCESS:     141269  HIT:     140936  MISS:        333
LLC PREFETCH  REQUESTED:          0  ISSUED:          0  USEFUL:          0  USELESS:          0
Major fault: 0 Minor fault: 3469

CPU 1 cumulative IPC: 0.481844 instructions: 100000000 cycles: 207536125
L1D TOTAL     ACCESS:   58778723  HIT:   57927816  MISS:     850907
L1D LOAD      ACCESS:   52872272  HIT:   52021435  MISS:     850837
L1D RFO       ACCESS:    5906451  HIT:    5906381  MISS:         70
L1D PREFETCH  ACCESS:          0  HIT:          0  MISS:          0
L1D WRITEBACK ACCESS:          0  HIT:          0  MISS:          0
L1D PREFETCH  REQUESTED:          0  ISSUED:          0  USEFUL:          0  USELESS:          0
L1I TOTAL     ACCESS:   28011065  HIT:   28011009  MISS:         56
L1I LOAD      ACCESS:   28011065  HIT:   28011009  MISS:         56
L1I RFO       ACCESS:          0  HIT:          0  MISS:          0
L1I PREFETCH  ACCESS:          0  HIT:          0  MISS:          0
L1I WRITEBACK ACCESS:          0  HIT:          0  MISS:          0
L1I PREFETCH  REQUESTED:          0  ISSUED:          0  USEFUL:          0  USELESS:          0
L2C TOTAL     ACCESS:    1227689  HIT:     546670  MISS:     681019
L2C LOAD      ACCESS:     850805  HIT:     169814  MISS:     680991
L2C RFO       ACCESS:         64  HIT:         46  MISS:         18
L2C PREFETCH  ACCESS:          0  HIT:          0  MISS:          0
L2C WRITEBACK ACCESS:     376820  HIT:     376810  MISS:         10
L2C PREFETCH  REQUESTED:          0  ISSUED:          0  USEFUL:          0  USELESS:          0
LLC TOTAL     ACCESS:    1054599  HIT:     379273  MISS:     675326
LLC LOAD      ACCESS:     680991  HIT:       5743  MISS:     675248
LLC RFO       ACCESS:         16  HIT:         11  MISS:          5
LLC PREFETCH  ACCESS:          0  HIT:          0  MISS:          0
LLC WRITEBACK ACCESS:     373592  HIT:     373519  MISS:         73
LLC PREFETCH  REQUESTED:          0  ISSUED:          0  USEFUL:          0  USELESS:          0
Major fault: 0 Minor fault: 94182

CPU 2 cumulative IPC: 0.139039 instructions: 100000000 cycles: 719221951
L1D TOTAL     ACCESS:   37537469  HIT:   32433419  MISS:    5104050
L1D LOAD      ACCESS:   16950212  HIT:   11847672  MISS:    5102540
L1D RFO       ACCESS:   20587257  HIT:   20585747  MISS:       1510
L1D PREFETCH  ACCESS:          0  HIT:          0  MISS:          0
L1D WRITEBACK ACCESS:          0  HIT:          0  MISS:          0
L1D PREFETCH  REQUESTED:          0  ISSUED:          0  USEFUL:          0  USELESS:          0
L1I TOTAL     ACCESS:   29159277  HIT:   29159277  MISS:          0
L1I LOAD      ACCESS:   29159277  HIT:   29159277  MISS:          0
L1I RFO       ACCESS:          0  HIT:          0  MISS:          0
L1I PREFETCH  ACCESS:          0  HIT:          0  MISS:          0
L1I WRITEBACK ACCESS:          0  HIT:          0  MISS:          0
L1I PREFETCH  REQUESTED:          0  ISSUED:          0  USEFUL:          0  USELESS:          0
L2C TOTAL     ACCESS:    5310307  HIT:     249922  MISS:    5060385
L2C LOAD      ACCESS:    5102234  HIT:      44010  MISS:    5058224
L2C RFO       ACCESS:       1510  HIT:       1100  MISS:        410
L2C PREFETCH  ACCESS:          0  HIT:          0  MISS:          0
L2C WRITEBACK ACCESS:     206563  HIT:     204812  MISS:       1751
L2C PREFETCH  REQUESTED:          0  ISSUED:          0  USEFUL:          0  USELESS:          0
LLC TOTAL     ACCESS:    5232209  HIT:     288515  MISS:    4943694
LLC LOAD      ACCESS:    5058224  HIT:     115315  MISS:    4942909
LLC RFO       ACCESS:        410  HIT:        276  MISS:        134
LLC PREFETCH  ACCESS:          0  HIT:          0  MISS:          0
LLC WRITEBACK ACCESS:     173575  HIT:     172924  MISS:        651
LLC PREFETCH  REQUESTED:          0  ISSUED:          0  USEFUL:          0  USELESS:          0
Major fault: 0 Minor fault: 10545

CPU 3 cumulative IPC: 0.549931 instructions: 100000001 cycles: 181841094
L1D TOTAL     ACCESS:   16552993  HIT:   15100854  MISS:    1452139
L1D LOAD      ACCESS:   15038583  HIT:   13709325  MISS:    1329258
L1D RFO       ACCESS:    1514410  HIT:    1391529  MISS:     122881
L1D PREFETCH  ACCESS:          0  HIT:          0  MISS:          0
L1D WRITEBACK ACCESS:          0  HIT:          0  MISS:          0
L1D PREFETCH  REQUESTED:          0  ISSUED:          0  USEFUL:          0  USELESS:          0
L1I TOTAL     ACCESS:   27476374  HIT:   27476215  MISS:        159
L1I LOAD      ACCESS:   27476374  HIT:   27476215  MISS:        159
L1I RFO       ACCESS:          0  HIT:          0  MISS:          0
L1I PREFETCH  ACCESS:          0  HIT:          0  MISS:          0
L1I WRITEBACK ACCESS:          0  HIT:          0  MISS:          0
L1I PREFETCH  REQUESTED:          0  ISSUED:          0  USEFUL:          0  USELESS:          0
L2C TOTAL     ACCESS:    1591033  HIT:     330714  MISS:    1260319
L2C LOAD      ACCESS:    1329417  HIT:     182838  MISS:    1146579
L2C RFO       ACCESS:     122880  HIT:       9435  MISS:     113445
L2C PREFETCH  ACCESS:          0  HIT:          0  MISS:          0
L2C WRITEBACK ACCESS:     138736  HIT:     138441  MISS:        295
L2C PREFETCH  REQUESTED:          0  ISSUED:          0  USEFUL:          0  USELESS:          0
LLC TOTAL     ACCESS:    1385815  HIT:     670841  MISS:     714974
LLC LOAD      ACCESS:    1146578  HIT:     486648  MISS:     659930
LLC RFO       ACCESS:     113445  HIT:      58475  MISS:      54970
LLC PREFETCH  ACCESS:          0  HIT:          0  MISS:          0
LLC WRITEBACK ACCESS:     125792  HIT:     125718  MISS:         74
LLC PREFETCH  REQUESTED:          0  ISSUED:          0  USEFUL:          0  USELESS:          0
Major fault: 0 Minor fault: 3226

CPU 4 cumulative IPC: 0.48026 instructions: 100000003 cycles: 208220434
L1D TOTAL     ACCESS:   13608831  HIT:   11971526  MISS:    1637305
L1D LOAD      ACCESS:    9946514  HIT:    8904266  MISS:    1042248
L1D RFO       ACCESS:    3662317  HIT:    3067260  MISS:     595057
L1D PREFETCH  ACCESS:          0  HIT:          0  MISS:          0
L1D WRITEBACK ACCESS:          0  HIT:          0  MISS:          0
L1D PREFETCH  REQUESTED:          0  ISSUED:          0  USEFUL:          0  USELESS:          0
L1I TOTAL     ACCESS:   22683155  HIT:   22683105  MISS:         50
L1I LOAD      ACCESS:   22683155  HIT:   22683105  MISS:         50
L1I RFO       ACCESS:          0  HIT:          0  MISS:          0
L1I PREFETCH  ACCESS:          0  HIT:          0  MISS:          0
L1I WRITEBACK ACCESS:          0  HIT:          0  MISS:          0
L1I PREFETCH  REQUESTED:          0  ISSUED:          0  USEFUL:          0  USELESS:          0
L2C TOTAL     ACCESS:    2271614  HIT:     634253  MISS:    1637361
L2C LOAD      ACCESS:    1042298  HIT:          0  MISS:    1042298
L2C RFO       ACCESS:     595057  HIT:          0  MISS:     595057
L2C PREFETCH  ACCESS:          0  HIT:          0  MISS:          0
L2C WRITEBACK ACCESS:     634259  HIT:     634253  MISS:          6
L2C PREFETCH  REQUESTED:          0  ISSUED:          0  USEFUL:          0  USELESS:          0
LLC TOTAL     ACCESS:    2271573  HIT:     632942  MISS:    1638631
LLC LOAD      ACCESS:    1042298  HIT:         80  MISS:    1042218
LLC RFO       ACCESS:     595057  HIT:          0  MISS:     595057
LLC PREFETCH  ACCESS:          0  HIT:          0  MISS:          0
LLC WRITEBACK ACCESS:     634218  HIT:     632862  MISS:       1356
LLC PREFETCH  REQUESTED:          0  ISSUED:          0  USEFUL:          0  USELESS:          0
Major fault: 0 Minor fault: 109242

CPU 5 cumulative IPC: 0.352084 instructions: 100000003 cycles: 284023454
L1D TOTAL     ACCESS:   13606989  HIT:   11084821  MISS:    2522168
L1D LOAD      ACCESS:   10777643  HIT:    8255495  MISS:    2522148
L1D RFO       ACCESS:    2829346  HIT:    2829326  MISS:         20
L1D PREFETCH  ACCESS:          0  HIT:          0  MISS:          0
L1D WRITEBACK ACCESS:          0  HIT:          0  MISS:          0
L1D PREFETCH  REQUESTED:          0  ISSUED:          0  USEFUL:          0  USELESS:          0
L1I TOTAL     ACCESS:   33994726  HIT:   33994726  MISS:          0
L1I LOAD      ACCESS:   33994726  HIT:   33994726  MISS:          0
L1I RFO       ACCESS:          0  HIT:          0  MISS:          0
L1I PREFETCH  ACCESS:          0  HIT:          0  MISS:          0
L1I WRITEBACK ACCESS:          0  HIT:          0  MISS:          0
L1I PREFETCH  REQUESTED:          0  ISSUED:          0  USEFUL:          0  USELESS:          0
L2C TOTAL     ACCESS:    3271893  HIT:     749725  MISS:    2522168
L2C LOAD      ACCESS:    2522148  HIT:          0  MISS:    2522148
L2C RFO       ACCESS:         20  HIT:          0  MISS:         20
L2C PREFETCH  ACCESS:          0  HIT:          0  MISS:          0
L2C WRITEBACK ACCESS:     749725  HIT:     749725  MISS:          0
L2C PREFETCH  REQUESTED:          0  ISSUED:          0  USEFUL:          0  USELESS:          0
LLC TOTAL     ACCESS:    3268420  HIT:     746252  MISS:    2522168
LLC LOAD      ACCESS:    2522148  HIT:          0  MISS:    2522148
LLC RFO       ACCESS:         20  HIT:          0  MISS:         20
LLC PREFETCH  ACCESS:          0  HIT:          0  MISS:          0
LLC WRITEBACK ACCESS:     746252  HIT:     746252  MISS:          0
LLC PREFETCH  REQUESTED:          0  ISSUED:          0  USEFUL:          0  USELESS:          0
Major fault: 0 Minor fault: 8199

CPU 6 cumulative IPC: 0.620385 instructions: 100000000 cycles: 161190156
L1D TOTAL     ACCESS:   30167260  HIT:   29036940  MISS:    1130320
L1D LOAD      ACCESS:   26709580  HIT:   25844191  MISS:     865389
L1D RFO       ACCESS:    3457680  HIT:    3192749  MISS:     264931
L1D PREFETCH  ACCESS:          0  HIT:          0  MISS:          0
L1D WRITEBACK ACCESS:          0  HIT:          0  MISS:          0
L1D PREFETCH  REQUESTED:          0  ISSUED:          0  USEFUL:          0  USELESS:          0
L1I TOTAL     ACCESS:   24210845  HIT:   24210775  MISS:         70
L1I LOAD      ACCESS:   24210845  HIT:   24210775  MISS:         70
L1I RFO       ACCESS:          0  HIT:          0  MISS:          0
L1I PREFETCH  ACCESS:          0  HIT:          0  MISS:          0
L1I WRITEBACK ACCESS:          0  HIT:          0  MISS:          0
L1I PREFETCH  REQUESTED:          0  ISSUED:          0  USEFUL:          0  USELESS:          0
L2C TOTAL     ACCESS:    1491451  HIT:     924905  MISS:     566546
L2C LOAD      ACCESS:     865454  HIT:     393306  MISS:     472148
L2C RFO       ACCESS:     264928  HIT:     170582  MISS:      94346
L2C PREFETCH  ACCESS:          0  HIT:          0  MISS:          0
L2C WRITEBACK ACCESS:     361069  HIT:     361017  MISS:         52
L2C PREFETCH  REQUESTED:          0  ISSUED:          0  USEFUL:          0  USELESS:          0
LLC TOTAL     ACCESS:     658498  HIT:      92722  MISS:     565776
LLC LOAD      ACCESS:     472148  HIT:       1470  MISS:     470678
LLC RFO       ACCESS:      94346  HIT:        119  MISS:      94227
LLC PREFETCH  ACCESS:          0  HIT:          0  MISS:          0
LLC WRITEBACK ACCESS:      92004  HIT:      91133  MISS:        871
LLC PREFETCH  REQUESTED:          0  ISSUED:          0  USEFUL:          0  USELESS:          0
Major fault: 0 Minor fault: 14551

CPU 7 cumulative IPC: 0.366983 instructions: 100000002 cycles: 272491871
L1D TOTAL     ACCESS:   18064893  HIT:   16097820  MISS:    1967073
L1D LOAD      ACCESS:   15269898  HIT:   13410257  MISS:    1859641
L1D RFO       ACCESS:    2794995  HIT:    2687563  MISS:     107432
L1D PREFETCH  ACCESS:          0  HIT:          0  MISS:          0
L1D WRITEBACK ACCESS:          0  HIT:          0  MISS:          0
L1D PREFETCH  REQUESTED:          0  ISSUED:          0  USEFUL:          0  USELESS:          0
L1I TOTAL     ACCESS:   26254743  HIT:   26254587  MISS:        156
L1I LOAD      ACCESS:   26254743  HIT:   26254587  MISS:        156
L1I RFO       ACCESS:          0  HIT:          0  MISS:          0
L1I PREFETCH  ACCESS:          0  HIT:          0  MISS:          0
L1I WRITEBACK ACCESS:          0  HIT:          0  MISS:          0
L1I PREFETCH  REQUESTED:          0  ISSUED:          0  USEFUL:          0  USELESS:          0
L2C TOTAL     ACCESS:    2155262  HIT:     692641  MISS:    1462621
L2C LOAD      ACCESS:    1859797  HIT:     481950  MISS:    1377847
L2C RFO       ACCESS:     107420  HIT:      22924  MISS:      84496
L2C PREFETCH  ACCESS:          0  HIT:          0  MISS:          0
L2C WRITEBACK ACCESS:     188045  HIT:     187767  MISS:        278
L2C PREFETCH  REQUESTED:          0  ISSUED:          0  USEFUL:          0  USELESS:          0
LLC TOTAL     ACCESS:    1613022  HIT:     290735  MISS:    1322287
LLC LOAD      ACCESS:    1377846  HIT:     128394  MISS:    1249452
LLC RFO       ACCESS:      84496  HIT:      12642  MISS:      71854
LLC PREFETCH  ACCESS:          0  HIT:          0  MISS:          0
LLC WRITEBACK ACCESS:     150680  HIT:     149699  MISS:        981
LLC PREFETCH  REQUESTED:          0  ISSUED:          0  USEFUL:          0  USELESS:          0
Major fault: 0 Minor fault: 4318

DRAM Statistics
 CHANNEL 0
 RQ ROW_BUFFER_HIT:    6274709  ROW_BUFFER_MISS:    9600739
 DBUS_CONGESTED:   19708408
 WQ ROW_BUFFER_HIT:     280481  ROW_BUFFER_MISS:    3212832  FULL:          0

 CHANNEL 1
 RQ ROW_BUFFER_HIT:    5890150  ROW_BUFFER_MISS:    9125867
 DBUS_CONGESTED:   19708408
 WQ ROW_BUFFER_HIT:     305846  ROW_BUFFER_MISS:    3326115  FULL:          0

 AVG_CONGESTED_CYCLE: 12
