
*** ChampSim Multicore Out-of-Order Simulator ***

Warmup Instructions: 20000000
Simulation Instructions: 100000000
Number of CPUs: 8
LLC sets: 16384
LLC ways: 16
Off-chip DRAM Size: 8192 MB Channels: 2 Width: 64-bit Data Rate: 1600 MT/s

CPU 0 runs /scratch/user/djimenez/champsim-traces/speccpu2006/xz/482.sphinx3-417B.champsimtrace.xz
CPU 1 runs /scratch/user/djimenez/champsim-traces/speccpu2006/xz/433.milc-337B.champsimtrace.xz
CPU 2 runs /scratch/user/djimenez/champsim-traces/speccpu2006/xz/473.astar-42B.champsimtrace.xz
CPU 3 runs /scratch/user/djimenez/champsim-traces/speccpu2006/xz/437.leslie3d-271B.champsimtrace.xz
CPU 4 runs /scratch/user/djimenez/champsim-traces/speccpu2006/xz/437.leslie3d-273B.champsimtrace.xz
CPU 5 runs /scratch/user/djimenez/champsim-traces/speccpu2006/xz/482.sphinx3-234B.champsimtrace.xz
CPU 6 runs /scratch/user/djimenez/champsim-traces/speccpu2006/xz/482.sphinx3-1522B.champsimtrace.xz
CPU 7 runs /scratch/user/djimenez/champsim-traces/speccpu2006/xz/437.leslie3d-134B.champsimtrace.xz
Heartbeat CPU 6 instructions: 10000001 cycles: 3745614 heartbeat IPC: 2.66979 cumulative IPC: 2.66979 (Simulation time: 0 hr 2 min 50 sec) 
Heartbeat CPU 5 instructions: 10000003 cycles: 3847958 heartbeat IPC: 2.59878 cumulative IPC: 2.59878 (Simulation time: 0 hr 2 min 54 sec) 
Heartbeat CPU 1 instructions: 10000000 cycles: 4047527 heartbeat IPC: 2.47064 cumulative IPC: 2.47064 (Simulation time: 0 hr 3 min 3 sec) 
Heartbeat CPU 0 instructions: 10000000 cycles: 4069186 heartbeat IPC: 2.45749 cumulative IPC: 2.45749 (Simulation time: 0 hr 3 min 4 sec) 
Heartbeat CPU 4 instructions: 10000002 cycles: 4936355 heartbeat IPC: 2.02579 cumulative IPC: 2.02579 (Simulation time: 0 hr 3 min 44 sec) 
Heartbeat CPU 7 instructions: 10000000 cycles: 5001137 heartbeat IPC: 1.99955 cumulative IPC: 1.99955 (Simulation time: 0 hr 3 min 47 sec) 
Heartbeat CPU 3 instructions: 10000003 cycles: 5166348 heartbeat IPC: 1.9356 cumulative IPC: 1.9356 (Simulation time: 0 hr 3 min 54 sec) 
Heartbeat CPU 2 instructions: 10000003 cycles: 7185561 heartbeat IPC: 1.39168 cumulative IPC: 1.39168 (Simulation time: 0 hr 5 min 26 sec) 
Heartbeat CPU 6 instructions: 20000000 cycles: 7616865 heartbeat IPC: 2.58314 cumulative IPC: 2.62575 (Simulation time: 0 hr 5 min 45 sec) 
Heartbeat CPU 5 instructions: 20000000 cycles: 7679908 heartbeat IPC: 2.60964 cumulative IPC: 2.6042 (Simulation time: 0 hr 5 min 48 sec) 
Heartbeat CPU 0 instructions: 20000000 cycles: 8054164 heartbeat IPC: 2.50942 cumulative IPC: 2.48319 (Simulation time: 0 hr 6 min 5 sec) 
Heartbeat CPU 1 instructions: 20000000 cycles: 8092927 heartbeat IPC: 2.47194 cumulative IPC: 2.47129 (Simulation time: 0 hr 6 min 6 sec) 
Heartbeat CPU 4 instructions: 20000000 cycles: 9816840 heartbeat IPC: 2.04898 cumulative IPC: 2.03732 (Simulation time: 0 hr 7 min 24 sec) 
Heartbeat CPU 7 instructions: 20000000 cycles: 9993373 heartbeat IPC: 2.00311 cumulative IPC: 2.00133 (Simulation time: 0 hr 7 min 32 sec) 
Heartbeat CPU 3 instructions: 20000000 cycles: 10332739 heartbeat IPC: 1.93559 cumulative IPC: 1.9356 (Simulation time: 0 hr 7 min 48 sec) 
Heartbeat CPU 6 instructions: 30000001 cycles: 11382903 heartbeat IPC: 2.65531 cumulative IPC: 0.878511 (Simulation time: 0 hr 8 min 36 sec) 
Heartbeat CPU 5 instructions: 30000000 cycles: 11588191 heartbeat IPC: 2.55867 cumulative IPC: 0.862947 (Simulation time: 0 hr 8 min 46 sec) 
Heartbeat CPU 0 instructions: 30000001 cycles: 11893018 heartbeat IPC: 2.60494 cumulative IPC: 0.84083 (Simulation time: 0 hr 9 min 0 sec) 
Heartbeat CPU 1 instructions: 30000002 cycles: 12139601 heartbeat IPC: 2.47117 cumulative IPC: 0.82375 (Simulation time: 0 hr 9 min 12 sec) 
Heartbeat CPU 2 instructions: 20000000 cycles: 13985220 heartbeat IPC: 1.47066 cumulative IPC: 1.43008 (Simulation time: 0 hr 10 min 37 sec) 

Warmup complete CPU 0 instructions: 35484797 cycles: 13985221 (Simulation time: 0 hr 10 min 37 sec) 
Warmup complete CPU 1 instructions: 34562941 cycles: 13985221 (Simulation time: 0 hr 10 min 37 sec) 
Warmup complete CPU 2 instructions: 20000001 cycles: 13985221 (Simulation time: 0 hr 10 min 37 sec) 
Warmup complete CPU 3 instructions: 27069969 cycles: 13985220 (Simulation time: 0 hr 10 min 37 sec) 
Warmup complete CPU 4 instructions: 28260962 cycles: 13985220 (Simulation time: 0 hr 10 min 37 sec) 
Warmup complete CPU 5 instructions: 36432135 cycles: 13985220 (Simulation time: 0 hr 10 min 37 sec) 
Warmup complete CPU 6 instructions: 36927762 cycles: 13985220 (Simulation time: 0 hr 10 min 37 sec) 
Warmup complete CPU 7 instructions: 27984857 cycles: 13985220 (Simulation time: 0 hr 10 min 37 sec) 

Heartbeat CPU 4 instructions: 30000000 cycles: 16542990 heartbeat IPC: 1.48673 cumulative IPC: 0.679904 (Simulation time: 0 hr 11 min 24 sec) 
Heartbeat CPU 7 instructions: 30000000 cycles: 17071427 heartbeat IPC: 1.41282 cumulative IPC: 0.652951 (Simulation time: 0 hr 11 min 34 sec) 
Heartbeat CPU 3 instructions: 30000002 cycles: 17997694 heartbeat IPC: 1.30464 cumulative IPC: 0.730231 (Simulation time: 0 hr 11 min 51 sec) 
Heartbeat CPU 6 instructions: 40000000 cycles: 19041146 heartbeat IPC: 1.30578 cumulative IPC: 0.607651 (Simulation time: 0 hr 12 min 13 sec) 
Heartbeat CPU 0 instructions: 40000000 cycles: 21816101 heartbeat IPC: 1.00775 cumulative IPC: 0.576589 (Simulation time: 0 hr 13 min 6 sec) 
Heartbeat CPU 5 instructions: 40000000 cycles: 22425610 heartbeat IPC: 0.922729 cumulative IPC: 0.422713 (Simulation time: 0 hr 13 min 18 sec) 
Heartbeat CPU 1 instructions: 40000000 cycles: 24983141 heartbeat IPC: 0.778601 cumulative IPC: 0.494372 (Simulation time: 0 hr 14 min 6 sec) 
Heartbeat CPU 4 instructions: 40000000 cycles: 31589253 heartbeat IPC: 0.664617 cumulative IPC: 0.666838 (Simulation time: 0 hr 16 min 3 sec) 
Heartbeat CPU 3 instructions: 40000000 cycles: 31823495 heartbeat IPC: 0.723285 cumulative IPC: 0.724848 (Simulation time: 0 hr 16 min 7 sec) 
Heartbeat CPU 7 instructions: 40000000 cycles: 32773213 heartbeat IPC: 0.63687 cumulative IPC: 0.639512 (Simulation time: 0 hr 16 min 24 sec) 
Heartbeat CPU 6 instructions: 50000000 cycles: 36396310 heartbeat IPC: 0.576197 cumulative IPC: 0.583293 (Simulation time: 0 hr 17 min 28 sec) 
Heartbeat CPU 0 instructions: 50000001 cycles: 37498819 heartbeat IPC: 0.637645 cumulative IPC: 0.617311 (Simulation time: 0 hr 17 min 48 sec) 
Heartbeat CPU 1 instructions: 50000001 cycles: 45509947 heartbeat IPC: 0.487168 cumulative IPC: 0.489681 (Simulation time: 0 hr 20 min 11 sec) 
Heartbeat CPU 3 instructions: 50000001 cycles: 45820694 heartbeat IPC: 0.714429 cumulative IPC: 0.720267 (Simulation time: 0 hr 20 min 16 sec) 
Heartbeat CPU 5 instructions: 50000001 cycles: 46450406 heartbeat IPC: 0.416237 cumulative IPC: 0.41792 (Simulation time: 0 hr 20 min 28 sec) 
Heartbeat CPU 4 instructions: 50000003 cycles: 46769228 heartbeat IPC: 0.658763 cumulative IPC: 0.663099 (Simulation time: 0 hr 20 min 34 sec) 
Heartbeat CPU 7 instructions: 50000000 cycles: 48544380 heartbeat IPC: 0.634068 cumulative IPC: 0.637028 (Simulation time: 0 hr 21 min 7 sec) 
Heartbeat CPU 2 instructions: 30000000 cycles: 51859093 heartbeat IPC: 0.264034 cumulative IPC: 0.264034 (Simulation time: 0 hr 22 min 6 sec) 
Heartbeat CPU 6 instructions: 60000000 cycles: 55835593 heartbeat IPC: 0.514422 cumulative IPC: 0.551303 (Simulation time: 0 hr 23 min 16 sec) 
Heartbeat CPU 0 instructions: 60000000 cycles: 59472552 heartbeat IPC: 0.455089 cumulative IPC: 0.538946 (Simulation time: 0 hr 24 min 16 sec) 
Heartbeat CPU 4 instructions: 60000000 cycles: 61938824 heartbeat IPC: 0.659213 cumulative IPC: 0.66187 (Simulation time: 0 hr 24 min 55 sec) 
Heartbeat CPU 7 instructions: 60000000 cycles: 64261222 heartbeat IPC: 0.63626 cumulative IPC: 0.636788 (Simulation time: 0 hr 25 min 35 sec) 
Heartbeat CPU 3 instructions: 60000000 cycles: 64394110 heartbeat IPC: 0.538404 cumulative IPC: 0.653258 (Simulation time: 0 hr 25 min 38 sec) 
Heartbeat CPU 1 instructions: 60000000 cycles: 65028457 heartbeat IPC: 0.512334 cumulative IPC: 0.498343 (Simulation time: 0 hr 25 min 49 sec) 
Heartbeat CPU 5 instructions: 60000000 cycles: 70125505 heartbeat IPC: 0.422385 cumulative IPC: 0.419803 (Simulation time: 0 hr 27 min 12 sec) 
Heartbeat CPU 6 instructions: 70000000 cycles: 75547032 heartbeat IPC: 0.50732 cumulative IPC: 0.53722 (Simulation time: 0 hr 28 min 40 sec) 
Heartbeat CPU 4 instructions: 70000000 cycles: 77290185 heartbeat IPC: 0.651408 cumulative IPC: 0.659333 (Simulation time: 0 hr 29 min 7 sec) 
Heartbeat CPU 7 instructions: 70000000 cycles: 79958361 heartbeat IPC: 0.637059 cumulative IPC: 0.636852 (Simulation time: 0 hr 29 min 48 sec) 
Heartbeat CPU 1 instructions: 70000003 cycles: 83211541 heartbeat IPC: 0.549962 cumulative IPC: 0.511902 (Simulation time: 0 hr 30 min 38 sec) 
Heartbeat CPU 0 instructions: 70000002 cycles: 83789377 heartbeat IPC: 0.411238 cumulative IPC: 0.494458 (Simulation time: 0 hr 30 min 47 sec) 
Heartbeat CPU 2 instructions: 40000000 cycles: 84103194 heartbeat IPC: 0.310134 cumulative IPC: 0.285234 (Simulation time: 0 hr 30 min 52 sec) 
Heartbeat CPU 3 instructions: 70000003 cycles: 91170802 heartbeat IPC: 0.373459 cumulative IPC: 0.556192 (Simulation time: 0 hr 32 min 39 sec) 
Heartbeat CPU 4 instructions: 80000000 cycles: 92562446 heartbeat IPC: 0.654782 cumulative IPC: 0.658448 (Simulation time: 0 hr 33 min 2 sec) 
Heartbeat CPU 5 instructions: 70000000 cycles: 93507687 heartbeat IPC: 0.427676 cumulative IPC: 0.422118 (Simulation time: 0 hr 33 min 17 sec) 
Heartbeat CPU 7 instructions: 80000000 cycles: 95559591 heartbeat IPC: 0.640975 cumulative IPC: 0.637641 (Simulation time: 0 hr 33 min 52 sec) 
Heartbeat CPU 6 instructions: 80000000 cycles: 96303220 heartbeat IPC: 0.481784 cumulative IPC: 0.523242 (Simulation time: 0 hr 34 min 4 sec) 
Heartbeat CPU 1 instructions: 80000000 cycles: 101553144 heartbeat IPC: 0.545208 cumulative IPC: 0.518878 (Simulation time: 0 hr 35 min 23 sec) 
Heartbeat CPU 0 instructions: 80000000 cycles: 110554529 heartbeat IPC: 0.37362 cumulative IPC: 0.460966 (Simulation time: 0 hr 37 min 35 sec) 
Heartbeat CPU 7 instructions: 90000002 cycles: 111153283 heartbeat IPC: 0.641285 cumulative IPC: 0.638226 (Simulation time: 0 hr 37 min 43 sec) 
Heartbeat CPU 5 instructions: 80000000 cycles: 116463085 heartbeat IPC: 0.435627 cumulative IPC: 0.425144 (Simulation time: 0 hr 38 min 59 sec) 
Heartbeat CPU 2 instructions: 50000002 cycles: 117195612 heartbeat IPC: 0.302184 cumulative IPC: 0.290668 (Simulation time: 0 hr 39 min 9 sec) 
Heartbeat CPU 4 instructions: 90000002 cycles: 117351062 heartbeat IPC: 0.403411 cumulative IPC: 0.597287 (Simulation time: 0 hr 39 min 12 sec) 
Heartbeat CPU 6 instructions: 90000000 cycles: 117817890 heartbeat IPC: 0.464799 cumulative IPC: 0.511132 (Simulation time: 0 hr 39 min 18 sec) 
Heartbeat CPU 3 instructions: 80000000 cycles: 118205633 heartbeat IPC: 0.369893 cumulative IPC: 0.507866 (Simulation time: 0 hr 39 min 23 sec) 
Heartbeat CPU 1 instructions: 90000003 cycles: 119855231 heartbeat IPC: 0.546386 cumulative IPC: 0.523633 (Simulation time: 0 hr 39 min 47 sec) 
Heartbeat CPU 7 instructions: 100000000 cycles: 126784388 heartbeat IPC: 0.63975 cumulative IPC: 0.638437 (Simulation time: 0 hr 41 min 30 sec) 
Heartbeat CPU 1 instructions: 100000000 cycles: 138109826 heartbeat IPC: 0.547807 cumulative IPC: 0.527188 (Simulation time: 0 hr 44 min 21 sec) 
Heartbeat CPU 3 instructions: 90000003 cycles: 138629755 heartbeat IPC: 0.489617 cumulative IPC: 0.504876 (Simulation time: 0 hr 44 min 29 sec) 
Heartbeat CPU 0 instructions: 90000001 cycles: 138809400 heartbeat IPC: 0.353921 cumulative IPC: 0.436736 (Simulation time: 0 hr 44 min 32 sec) 
Heartbeat CPU 5 instructions: 90000000 cycles: 139556878 heartbeat IPC: 0.433017 cumulative IPC: 0.426592 (Simulation time: 0 hr 44 min 44 sec) 
Heartbeat CPU 6 instructions: 100000000 cycles: 139753487 heartbeat IPC: 0.45588 cumulative IPC: 0.501496 (Simulation time: 0 hr 44 min 47 sec) 
Heartbeat CPU 7 instructions: 110000001 cycles: 142298637 heartbeat IPC: 0.644569 cumulative IPC: 0.639178 (Simulation time: 0 hr 45 min 26 sec) 
Heartbeat CPU 4 instructions: 100000000 cycles: 143860586 heartbeat IPC: 0.377223 cumulative IPC: 0.552368 (Simulation time: 0 hr 45 min 50 sec) 
Heartbeat CPU 2 instructions: 60000000 cycles: 148520617 heartbeat IPC: 0.319234 cumulative IPC: 0.29732 (Simulation time: 0 hr 47 min 0 sec) 
Heartbeat CPU 1 instructions: 110000000 cycles: 156256374 heartbeat IPC: 0.551069 cumulative IPC: 0.530234 (Simulation time: 0 hr 48 min 58 sec) 
Heartbeat CPU 3 instructions: 100000000 cycles: 157178542 heartbeat IPC: 0.539119 cumulative IPC: 0.509312 (Simulation time: 0 hr 49 min 12 sec) 
Heartbeat CPU 7 instructions: 120000000 cycles: 157781051 heartbeat IPC: 0.645894 cumulative IPC: 0.639901 (Simulation time: 0 hr 49 min 21 sec) 
Heartbeat CPU 6 instructions: 110000003 cycles: 162104577 heartbeat IPC: 0.447406 cumulative IPC: 0.493333 (Simulation time: 0 hr 50 min 26 sec) 
Heartbeat CPU 5 instructions: 100000000 cycles: 163544170 heartbeat IPC: 0.416887 cumulative IPC: 0.425036 (Simulation time: 0 hr 50 min 48 sec) 
Heartbeat CPU 0 instructions: 100000000 cycles: 165028619 heartbeat IPC: 0.3814 cumulative IPC: 0.42713 (Simulation time: 0 hr 51 min 10 sec) 
Heartbeat CPU 4 instructions: 110000002 cycles: 169317091 heartbeat IPC: 0.392827 cumulative IPC: 0.526222 (Simulation time: 0 hr 52 min 17 sec) 
Finished CPU 7 instructions: 100000003 cycles: 156203873 cumulative IPC: 0.640189 (Simulation time: 0 hr 52 min 31 sec) 
Heartbeat CPU 7 instructions: 130000000 cycles: 173240974 heartbeat IPC: 0.646834 cumulative IPC: 0.640574 (Simulation time: 0 hr 53 min 20 sec) 
Heartbeat CPU 1 instructions: 120000000 cycles: 174532442 heartbeat IPC: 0.547164 cumulative IPC: 0.532162 (Simulation time: 0 hr 53 min 41 sec) 
Heartbeat CPU 3 instructions: 110000003 cycles: 175698025 heartbeat IPC: 0.539972 cumulative IPC: 0.512823 (Simulation time: 0 hr 53 min 59 sec) 
Heartbeat CPU 2 instructions: 70000002 cycles: 181186026 heartbeat IPC: 0.306134 cumulative IPC: 0.299042 (Simulation time: 0 hr 55 min 25 sec) 
Heartbeat CPU 6 instructions: 120000000 cycles: 184976117 heartbeat IPC: 0.437224 cumulative IPC: 0.485828 (Simulation time: 0 hr 56 min 27 sec) 
Heartbeat CPU 5 instructions: 110000003 cycles: 186975795 heartbeat IPC: 0.426774 cumulative IPC: 0.425271 (Simulation time: 0 hr 56 min 59 sec) 
Heartbeat CPU 4 instructions: 120000000 cycles: 187998319 heartbeat IPC: 0.535297 cumulative IPC: 0.527196 (Simulation time: 0 hr 57 min 16 sec) 
Heartbeat CPU 7 instructions: 140000000 cycles: 188658931 heartbeat IPC: 0.648594 cumulative IPC: 0.641282 (Simulation time: 0 hr 57 min 27 sec) 
Heartbeat CPU 0 instructions: 110000002 cycles: 191853772 heartbeat IPC: 0.372785 cumulative IPC: 0.418934 (Simulation time: 0 hr 58 min 20 sec) 
Heartbeat CPU 3 instructions: 120000000 cycles: 194345118 heartbeat IPC: 0.536276 cumulative IPC: 0.515248 (Simulation time: 0 hr 59 min 1 sec) 
Heartbeat CPU 1 instructions: 130000002 cycles: 195504635 heartbeat IPC: 0.476822 cumulative IPC: 0.525768 (Simulation time: 0 hr 59 min 19 sec) 
Finished CPU 4 instructions: 100000002 cycles: 189801924 cumulative IPC: 0.526865 (Simulation time: 1 hr 1 min 26 sec) 
Finished CPU 1 instructions: 100000000 cycles: 191228585 cumulative IPC: 0.522934 (Simulation time: 1 hr 1 min 47 sec) 
Finished CPU 3 instructions: 100000000 cycles: 191796215 cumulative IPC: 0.521387 (Simulation time: 1 hr 1 min 55 sec) 
Heartbeat CPU 4 instructions: 130000003 cycles: 207055292 heartbeat IPC: 0.524742 cumulative IPC: 0.526954 (Simulation time: 1 hr 2 min 15 sec) 
Heartbeat CPU 7 instructions: 150000002 cycles: 208261280 heartbeat IPC: 0.510143 cumulative IPC: 0.62805 (Simulation time: 1 hr 2 min 32 sec) 
Heartbeat CPU 6 instructions: 130000001 cycles: 208450969 heartbeat IPC: 0.425988 cumulative IPC: 0.478605 (Simulation time: 1 hr 2 min 35 sec) 
Heartbeat CPU 5 instructions: 120000000 cycles: 210216495 heartbeat IPC: 0.43028 cumulative IPC: 0.425864 (Simulation time: 1 hr 3 min 0 sec) 
Heartbeat CPU 3 instructions: 130000002 cycles: 210425358 heartbeat IPC: 0.621881 cumulative IPC: 0.523977 (Simulation time: 1 hr 3 min 3 sec) 
Heartbeat CPU 1 instructions: 140000000 cycles: 217015263 heartbeat IPC: 0.464886 cumulative IPC: 0.519318 (Simulation time: 1 hr 4 min 38 sec) 
Heartbeat CPU 2 instructions: 80000000 cycles: 219539630 heartbeat IPC: 0.260732 cumulative IPC: 0.291894 (Simulation time: 1 hr 5 min 20 sec) 
Heartbeat CPU 0 instructions: 120000000 cycles: 219602943 heartbeat IPC: 0.360371 cumulative IPC: 0.411031 (Simulation time: 1 hr 5 min 21 sec) 
Finished CPU 6 instructions: 100000001 cycles: 209459088 cumulative IPC: 0.47742 (Simulation time: 1 hr 6 min 21 sec) 
Heartbeat CPU 4 instructions: 140000000 cycles: 226074658 heartbeat IPC: 0.52578 cumulative IPC: 0.526849 (Simulation time: 1 hr 7 min 0 sec) 
Heartbeat CPU 3 instructions: 140000000 cycles: 226414931 heartbeat IPC: 0.625407 cumulative IPC: 0.531611 (Simulation time: 1 hr 7 min 5 sec) 
Heartbeat CPU 6 instructions: 140000000 cycles: 230931121 heartbeat IPC: 0.444837 cumulative IPC: 0.475106 (Simulation time: 1 hr 8 min 12 sec) 
Heartbeat CPU 5 instructions: 130000003 cycles: 234942004 heartbeat IPC: 0.404441 cumulative IPC: 0.423467 (Simulation time: 1 hr 9 min 16 sec) 
Heartbeat CPU 7 instructions: 160000000 cycles: 236395952 heartbeat IPC: 0.355433 cumulative IPC: 0.593565 (Simulation time: 1 hr 9 min 38 sec) 
Heartbeat CPU 1 instructions: 150000003 cycles: 238808343 heartbeat IPC: 0.458861 cumulative IPC: 0.513457 (Simulation time: 1 hr 10 min 15 sec) 
Heartbeat CPU 3 instructions: 150000000 cycles: 242399649 heartbeat IPC: 0.625598 cumulative IPC: 0.538189 (Simulation time: 1 hr 11 min 9 sec) 
Heartbeat CPU 4 instructions: 150000000 cycles: 244600273 heartbeat IPC: 0.539793 cumulative IPC: 0.527889 (Simulation time: 1 hr 11 min 45 sec) 
Heartbeat CPU 0 instructions: 130000001 cycles: 245723112 heartbeat IPC: 0.382846 cumulative IPC: 0.407854 (Simulation time: 1 hr 12 min 3 sec) 
Finished CPU 5 instructions: 100000000 cycles: 237128053 cumulative IPC: 0.421713 (Simulation time: 1 hr 13 min 28 sec) 
Heartbeat CPU 6 instructions: 150000001 cycles: 253618335 heartbeat IPC: 0.440777 cumulative IPC: 0.471856 (Simulation time: 1 hr 14 min 7 sec) 
Heartbeat CPU 3 instructions: 160000000 cycles: 258278714 heartbeat IPC: 0.62976 cumulative IPC: 0.544141 (Simulation time: 1 hr 15 min 19 sec) 
Heartbeat CPU 5 instructions: 140000000 cycles: 259357134 heartbeat IPC: 0.409582 cumulative IPC: 0.422085 (Simulation time: 1 hr 15 min 36 sec) 
Heartbeat CPU 2 instructions: 90000001 cycles: 259562803 heartbeat IPC: 0.249855 cumulative IPC: 0.285042 (Simulation time: 1 hr 15 min 39 sec) 
Finished CPU 0 instructions: 100000000 cycles: 245995359 cumulative IPC: 0.406512 (Simulation time: 1 hr 15 min 46 sec) 
Heartbeat CPU 1 instructions: 160000000 cycles: 260423825 heartbeat IPC: 0.462631 cumulative IPC: 0.508999 (Simulation time: 1 hr 15 min 53 sec) 
Heartbeat CPU 4 instructions: 160000000 cycles: 263471224 heartbeat IPC: 0.529915 cumulative IPC: 0.528042 (Simulation time: 1 hr 16 min 39 sec) 
Heartbeat CPU 7 instructions: 170000001 cycles: 264683199 heartbeat IPC: 0.353516 cumulative IPC: 0.566479 (Simulation time: 1 hr 16 min 58 sec) 
Heartbeat CPU 0 instructions: 140000000 cycles: 272832336 heartbeat IPC: 0.368878 cumulative IPC: 0.403772 (Simulation time: 1 hr 19 min 3 sec) 
Heartbeat CPU 3 instructions: 170000000 cycles: 274304898 heartbeat IPC: 0.623979 cumulative IPC: 0.549056 (Simulation time: 1 hr 19 min 26 sec) 
Heartbeat CPU 6 instructions: 160000000 cycles: 276125017 heartbeat IPC: 0.444312 cumulative IPC: 0.469491 (Simulation time: 1 hr 19 min 54 sec) 
Heartbeat CPU 4 instructions: 170000001 cycles: 282263614 heartbeat IPC: 0.53213 cumulative IPC: 0.528328 (Simulation time: 1 hr 21 min 28 sec) 
Heartbeat CPU 1 instructions: 170000001 cycles: 282381933 heartbeat IPC: 0.455413 cumulative IPC: 0.504615 (Simulation time: 1 hr 21 min 30 sec) 
Heartbeat CPU 5 instructions: 150000001 cycles: 284842299 heartbeat IPC: 0.392385 cumulative IPC: 0.419291 (Simulation time: 1 hr 22 min 7 sec) 
Heartbeat CPU 3 instructions: 180000000 cycles: 290360225 heartbeat IPC: 0.622846 cumulative IPC: 0.553342 (Simulation time: 1 hr 23 min 35 sec) 
Heartbeat CPU 7 instructions: 180000000 cycles: 292947876 heartbeat IPC: 0.353798 cumulative IPC: 0.54493 (Simulation time: 1 hr 24 min 16 sec) 
Heartbeat CPU 2 instructions: 100000000 cycles: 293293236 heartbeat IPC: 0.296468 cumulative IPC: 0.286422 (Simulation time: 1 hr 24 min 22 sec) 
Heartbeat CPU 6 instructions: 170000003 cycles: 298211667 heartbeat IPC: 0.452762 cumulative IPC: 0.468191 (Simulation time: 1 hr 25 min 37 sec) 
Heartbeat CPU 0 instructions: 150000001 cycles: 300094147 heartbeat IPC: 0.366814 cumulative IPC: 0.40025 (Simulation time: 1 hr 26 min 6 sec) 
Heartbeat CPU 4 instructions: 180000000 cycles: 301090009 heartbeat IPC: 0.531169 cumulative IPC: 0.528515 (Simulation time: 1 hr 26 min 22 sec) 
Heartbeat CPU 1 instructions: 180000000 cycles: 304299575 heartbeat IPC: 0.456253 cumulative IPC: 0.500964 (Simulation time: 1 hr 27 min 11 sec) 
Heartbeat CPU 3 instructions: 190000003 cycles: 306452349 heartbeat IPC: 0.621422 cumulative IPC: 0.557088 (Simulation time: 1 hr 27 min 42 sec) 
Heartbeat CPU 5 instructions: 160000000 cycles: 309913552 heartbeat IPC: 0.398863 cumulative IPC: 0.41756 (Simulation time: 1 hr 28 min 33 sec) 
Heartbeat CPU 4 instructions: 190000003 cycles: 319890220 heartbeat IPC: 0.531909 cumulative IPC: 0.528723 (Simulation time: 1 hr 30 min 58 sec) 
Heartbeat CPU 6 instructions: 180000000 cycles: 320609470 heartbeat IPC: 0.446472 cumulative IPC: 0.466604 (Simulation time: 1 hr 31 min 8 sec) 
Heartbeat CPU 7 instructions: 190000003 cycles: 321186189 heartbeat IPC: 0.354129 cumulative IPC: 0.527391 (Simulation time: 1 hr 31 min 17 sec) 
Heartbeat CPU 3 instructions: 200000000 cycles: 322457129 heartbeat IPC: 0.624813 cumulative IPC: 0.560602 (Simulation time: 1 hr 31 min 35 sec) 
Heartbeat CPU 1 instructions: 190000000 cycles: 326049231 heartbeat IPC: 0.459777 cumulative IPC: 0.498094 (Simulation time: 1 hr 32 min 27 sec) 
Heartbeat CPU 0 instructions: 160000000 cycles: 327667943 heartbeat IPC: 0.362663 cumulative IPC: 0.396946 (Simulation time: 1 hr 32 min 53 sec) 
Heartbeat CPU 2 instructions: 110000000 cycles: 328150447 heartbeat IPC: 0.286885 cumulative IPC: 0.286473 (Simulation time: 1 hr 33 min 1 sec) 
Heartbeat CPU 5 instructions: 170000001 cycles: 335380686 heartbeat IPC: 0.392663 cumulative IPC: 0.415587 (Simulation time: 1 hr 34 min 53 sec) 
Heartbeat CPU 3 instructions: 210000003 cycles: 338653144 heartbeat IPC: 0.617436 cumulative IPC: 0.563437 (Simulation time: 1 hr 35 min 46 sec) 
Heartbeat CPU 4 instructions: 200000000 cycles: 339036275 heartbeat IPC: 0.522301 cumulative IPC: 0.528345 (Simulation time: 1 hr 35 min 52 sec) 
Heartbeat CPU 7 instructions: 200000000 cycles: 341016428 heartbeat IPC: 0.50428 cumulative IPC: 0.52599 (Simulation time: 1 hr 36 min 22 sec) 
Heartbeat CPU 6 instructions: 190000002 cycles: 344070542 heartbeat IPC: 0.426238 cumulative IPC: 0.463735 (Simulation time: 1 hr 37 min 12 sec) 
Heartbeat CPU 1 instructions: 200000000 cycles: 350468329 heartbeat IPC: 0.409516 cumulative IPC: 0.491665 (Simulation time: 1 hr 38 min 53 sec) 
Heartbeat CPU 3 instructions: 220000000 cycles: 355224779 heartbeat IPC: 0.603441 cumulative IPC: 0.56538 (Simulation time: 1 hr 40 min 6 sec) 
Heartbeat CPU 0 instructions: 170000002 cycles: 356151944 heartbeat IPC: 0.351074 cumulative IPC: 0.393128 (Simulation time: 1 hr 40 min 19 sec) 
Heartbeat CPU 4 instructions: 210000003 cycles: 358581023 heartbeat IPC: 0.511647 cumulative IPC: 0.527398 (Simulation time: 1 hr 40 min 56 sec) 
Heartbeat CPU 7 instructions: 210000003 cycles: 359041234 heartbeat IPC: 0.554791 cumulative IPC: 0.527494 (Simulation time: 1 hr 41 min 3 sec) 
Heartbeat CPU 5 instructions: 180000000 cycles: 361543227 heartbeat IPC: 0.382226 cumulative IPC: 0.413076 (Simulation time: 1 hr 41 min 41 sec) 
Heartbeat CPU 6 instructions: 200000000 cycles: 366122346 heartbeat IPC: 0.453478 cumulative IPC: 0.463093 (Simulation time: 1 hr 42 min 54 sec) 
Heartbeat CPU 3 instructions: 230000000 cycles: 371476873 heartbeat IPC: 0.615305 cumulative IPC: 0.56765 (Simulation time: 1 hr 44 min 24 sec) 
Heartbeat CPU 7 instructions: 220000000 cycles: 375287630 heartbeat IPC: 0.615521 cumulative IPC: 0.531453 (Simulation time: 1 hr 45 min 26 sec) 
Heartbeat CPU 2 instructions: 120000000 cycles: 375519800 heartbeat IPC: 0.211107 cumulative IPC: 0.276599 (Simulation time: 1 hr 45 min 30 sec) 
Finished CPU 2 instructions: 100000000 cycles: 361534592 cumulative IPC: 0.276599 (Simulation time: 1 hr 45 min 30 sec) 

CPU 0 Branch Prediction Accuracy: 97.0358% MPKI: 2.55068

CPU 1 Branch Prediction Accuracy: 99.9987% MPKI: 0.000381548

CPU 2 Branch Prediction Accuracy: 75.0755% MPKI: 47.0439

CPU 3 Branch Prediction Accuracy: 99.128% MPKI: 0.190802

CPU 4 Branch Prediction Accuracy: 99.166% MPKI: 0.178394

CPU 5 Branch Prediction Accuracy: 96.9643% MPKI: 2.43609

CPU 6 Branch Prediction Accuracy: 97.6442% MPKI: 1.86114

CPU 7 Branch Prediction Accuracy: 99.1326% MPKI: 0.280515

ChampSim completed all CPUs

Total Simulation Statistics (not including warmup)

CPU 0 cumulative IPC: 0.393055 instructions: 142103030 cycles: 361534592
L1D TOTAL     ACCESS:   25628469  HIT:   22821282  MISS:    2807187
L1D LOAD      ACCESS:   21731988  HIT:   19075890  MISS:    2656098
L1D RFO       ACCESS:    3896481  HIT:    3745392  MISS:     151089
L1D PREFETCH  ACCESS:          0  HIT:          0  MISS:          0
L1D WRITEBACK ACCESS:          0  HIT:          0  MISS:          0
L1I TOTAL     ACCESS:   37347139  HIT:   37346983  MISS:        156
L1I LOAD      ACCESS:   37347139  HIT:   37346983  MISS:        156
L1I RFO       ACCESS:          0  HIT:          0  MISS:          0
L1I PREFETCH  ACCESS:          0  HIT:          0  MISS:          0
L1I WRITEBACK ACCESS:          0  HIT:          0  MISS:          0
L2C TOTAL     ACCESS:    3076392  HIT:     983149  MISS:    2093243
L2C LOAD      ACCESS:    2656254  HIT:     683663  MISS:    1972591
L2C RFO       ACCESS:     151076  HIT:      30846  MISS:     120230
L2C PREFETCH  ACCESS:          0  HIT:          0  MISS:          0
L2C WRITEBACK ACCESS:     269062  HIT:     268640  MISS:        422
LLC TOTAL     ACCESS:    2311334  HIT:     597121  MISS:    1714213
LLC LOAD      ACCESS:    1972588  HIT:     344804  MISS:    1627784
LLC RFO       ACCESS:     120228  HIT:      34560  MISS:      85668
LLC PREFETCH  ACCESS:          0  HIT:          0  MISS:          0
LLC WRITEBACK ACCESS:     218518  HIT:     217757  MISS:        761

CPU 1 cumulative IPC: 0.481675 instructions: 174142028 cycles: 361534592
L1D TOTAL     ACCESS:   20085505  HIT:   16763482  MISS:    3322023
L1D LOAD      ACCESS:   14749207  HIT:   12411169  MISS:    2338038
L1D RFO       ACCESS:    5336298  HIT:    4352313  MISS:     983985
L1D PREFETCH  ACCESS:          0  HIT:          0  MISS:          0
L1D WRITEBACK ACCESS:          0  HIT:          0  MISS:          0
L1I TOTAL     ACCESS:   40309728  HIT:   40309674  MISS:         54
L1I LOAD      ACCESS:   40309728  HIT:   40309674  MISS:         54
L1I RFO       ACCESS:          0  HIT:          0  MISS:          0
L1I PREFETCH  ACCESS:          0  HIT:          0  MISS:          0
L1I WRITEBACK ACCESS:          0  HIT:          0  MISS:          0
L2C TOTAL     ACCESS:    4451768  HIT:    1129832  MISS:    3321936
L2C LOAD      ACCESS:    2338092  HIT:        143  MISS:    2337949
L2C RFO       ACCESS:     983985  HIT:          0  MISS:     983985
L2C PREFETCH  ACCESS:          0  HIT:          0  MISS:          0
L2C WRITEBACK ACCESS:    1129691  HIT:    1129689  MISS:          2
LLC TOTAL     ACCESS:    4451604  HIT:    1131533  MISS:    3320071
LLC LOAD      ACCESS:    2337949  HIT:       1108  MISS:    2336841
LLC RFO       ACCESS:     983985  HIT:        757  MISS:     983228
LLC PREFETCH  ACCESS:          0  HIT:          0  MISS:          0
LLC WRITEBACK ACCESS:    1129670  HIT:    1129668  MISS:          2

CPU 2 cumulative IPC: 0.276599 instructions: 100000000 cycles: 361534592
L1D TOTAL     ACCESS:   26997120  HIT:   24098728  MISS:    2898392
L1D LOAD      ACCESS:   22750164  HIT:   19889570  MISS:    2860594
L1D RFO       ACCESS:    4246956  HIT:    4209158  MISS:      37798
L1D PREFETCH  ACCESS:          0  HIT:          0  MISS:          0
L1D WRITEBACK ACCESS:          0  HIT:          0  MISS:          0
L1I TOTAL     ACCESS:   24428106  HIT:   24428001  MISS:        105
L1I LOAD      ACCESS:   24428106  HIT:   24428001  MISS:        105
L1I RFO       ACCESS:          0  HIT:          0  MISS:          0
L1I PREFETCH  ACCESS:          0  HIT:          0  MISS:          0
L1I WRITEBACK ACCESS:          0  HIT:          0  MISS:          0
L2C TOTAL     ACCESS:    3843528  HIT:    1873471  MISS:    1970057
L2C LOAD      ACCESS:    2860625  HIT:     903974  MISS:    1956651
L2C RFO       ACCESS:      37791  HIT:      24570  MISS:      13221
L2C PREFETCH  ACCESS:          0  HIT:          0  MISS:          0
L2C WRITEBACK ACCESS:     945112  HIT:     944927  MISS:        185
LLC TOTAL     ACCESS:    2634403  HIT:    2364568  MISS:     269835
LLC LOAD      ACCESS:    1956602  HIT:    1721610  MISS:     234992
LLC RFO       ACCESS:      13221  HIT:      12706  MISS:        515
LLC PREFETCH  ACCESS:          0  HIT:          0  MISS:          0
LLC WRITEBACK ACCESS:     664580  HIT:     630252  MISS:      34328

CPU 3 cumulative IPC: 0.568197 instructions: 205422838 cycles: 361534593
L1D TOTAL     ACCESS:   63336355  HIT:   61251750  MISS:    2084605
L1D LOAD      ACCESS:   58122477  HIT:   56579983  MISS:    1542494
L1D RFO       ACCESS:    5213878  HIT:    4671767  MISS:     542111
L1D PREFETCH  ACCESS:          0  HIT:          0  MISS:          0
L1D WRITEBACK ACCESS:          0  HIT:          0  MISS:          0
L1I TOTAL     ACCESS:   48063650  HIT:   48063568  MISS:         82
L1I LOAD      ACCESS:   48063650  HIT:   48063568  MISS:         82
L1I RFO       ACCESS:          0  HIT:          0  MISS:          0
L1I PREFETCH  ACCESS:          0  HIT:          0  MISS:          0
L1I WRITEBACK ACCESS:          0  HIT:          0  MISS:          0
L2C TOTAL     ACCESS:    2733081  HIT:    1300756  MISS:    1432325
L2C LOAD      ACCESS:    1542565  HIT:     456257  MISS:    1086308
L2C RFO       ACCESS:     540479  HIT:     194504  MISS:     345975
L2C PREFETCH  ACCESS:          0  HIT:          0  MISS:          0
L2C WRITEBACK ACCESS:     650037  HIT:     649995  MISS:         42
LLC TOTAL     ACCESS:    1780008  HIT:     348977  MISS:    1431031
LLC LOAD      ACCESS:    1086308  HIT:       1666  MISS:    1084642
LLC RFO       ACCESS:     345975  HIT:         84  MISS:     345891
LLC PREFETCH  ACCESS:          0  HIT:          0  MISS:          0
LLC WRITEBACK ACCESS:     347725  HIT:     347227  MISS:        498

CPU 4 cumulative IPC: 0.52725 instructions: 190619270 cycles: 361534593
L1D TOTAL     ACCESS:   59091118  HIT:   57207498  MISS:    1883620
L1D LOAD      ACCESS:   54996521  HIT:   53611836  MISS:    1384685
L1D RFO       ACCESS:    4094597  HIT:    3595662  MISS:     498935
L1D PREFETCH  ACCESS:          0  HIT:          0  MISS:          0
L1D WRITEBACK ACCESS:          0  HIT:          0  MISS:          0
L1I TOTAL     ACCESS:   45462354  HIT:   45462261  MISS:         93
L1I LOAD      ACCESS:   45462354  HIT:   45462261  MISS:         93
L1I RFO       ACCESS:          0  HIT:          0  MISS:          0
L1I PREFETCH  ACCESS:          0  HIT:          0  MISS:          0
L1I WRITEBACK ACCESS:          0  HIT:          0  MISS:          0
L2C TOTAL     ACCESS:    2503419  HIT:    1011480  MISS:    1491939
L2C LOAD      ACCESS:    1384770  HIT:     277928  MISS:    1106842
L2C RFO       ACCESS:     498927  HIT:     113840  MISS:     385087
L2C PREFETCH  ACCESS:          0  HIT:          0  MISS:          0
L2C WRITEBACK ACCESS:     619722  HIT:     619712  MISS:         10
LLC TOTAL     ACCESS:    1943072  HIT:     493303  MISS:    1449769
LLC LOAD      ACCESS:    1106842  HIT:      22567  MISS:    1084275
LLC RFO       ACCESS:     385087  HIT:      21026  MISS:     364061
LLC PREFETCH  ACCESS:          0  HIT:          0  MISS:          0
LLC WRITEBACK ACCESS:     451143  HIT:     449710  MISS:       1433

CPU 5 cumulative IPC: 0.412568 instructions: 149157623 cycles: 361534593
L1D TOTAL     ACCESS:   23936209  HIT:   21680626  MISS:    2255583
L1D LOAD      ACCESS:   21511050  HIT:   19353993  MISS:    2157057
L1D RFO       ACCESS:    2425159  HIT:    2326633  MISS:      98526
L1D PREFETCH  ACCESS:          0  HIT:          0  MISS:          0
L1D WRITEBACK ACCESS:          0  HIT:          0  MISS:          0
L1I TOTAL     ACCESS:   39378888  HIT:   39378795  MISS:         93
L1I LOAD      ACCESS:   39378888  HIT:   39378795  MISS:         93
L1I RFO       ACCESS:          0  HIT:          0  MISS:          0
L1I PREFETCH  ACCESS:          0  HIT:          0  MISS:          0
L1I WRITEBACK ACCESS:          0  HIT:          0  MISS:          0
L2C TOTAL     ACCESS:    2395889  HIT:     494912  MISS:    1900977
L2C LOAD      ACCESS:    2157150  HIT:     341768  MISS:    1815382
L2C RFO       ACCESS:      98523  HIT:      13272  MISS:      85251
L2C PREFETCH  ACCESS:          0  HIT:          0  MISS:          0
L2C WRITEBACK ACCESS:     140216  HIT:     139872  MISS:        344
LLC TOTAL     ACCESS:    2020617  HIT:     294317  MISS:    1726300
LLC LOAD      ACCESS:    1815382  HIT:     152616  MISS:    1662766
LLC RFO       ACCESS:      85251  HIT:      21931  MISS:      63320
LLC PREFETCH  ACCESS:          0  HIT:          0  MISS:          0
LLC WRITEBACK ACCESS:     119984  HIT:     119770  MISS:        214

CPU 6 cumulative IPC: 0.464367 instructions: 167884875 cycles: 361534593
L1D TOTAL     ACCESS:   26890182  HIT:   24479556  MISS:    2410626
L1D LOAD      ACCESS:   24411108  HIT:   22149892  MISS:    2261216
L1D RFO       ACCESS:    2479074  HIT:    2329664  MISS:     149410
L1D PREFETCH  ACCESS:          0  HIT:          0  MISS:          0
L1D WRITEBACK ACCESS:          0  HIT:          0  MISS:          0
L1I TOTAL     ACCESS:   45151426  HIT:   45151187  MISS:        239
L1I LOAD      ACCESS:   45151426  HIT:   45151187  MISS:        239
L1I RFO       ACCESS:          0  HIT:          0  MISS:          0
L1I PREFETCH  ACCESS:          0  HIT:          0  MISS:          0
L1I WRITEBACK ACCESS:          0  HIT:          0  MISS:          0
L2C TOTAL     ACCESS:    2598908  HIT:     486741  MISS:    2112167
L2C LOAD      ACCESS:    2261452  HIT:     285339  MISS:    1976113
L2C RFO       ACCESS:     149409  HIT:      13887  MISS:     135522
L2C PREFETCH  ACCESS:          0  HIT:          0  MISS:          0
L2C WRITEBACK ACCESS:     188047  HIT:     187515  MISS:        532
LLC TOTAL     ACCESS:    2280474  HIT:     660012  MISS:    1620462
LLC LOAD      ACCESS:    1976113  HIT:     439586  MISS:    1536527
LLC RFO       ACCESS:     135522  HIT:      51761  MISS:      83761
LLC PREFETCH  ACCESS:          0  HIT:          0  MISS:          0
LLC WRITEBACK ACCESS:     168839  HIT:     168665  MISS:        174

CPU 7 cumulative IPC: 0.531545 instructions: 192172003 cycles: 361534593
L1D TOTAL     ACCESS:   55866365  HIT:   53209486  MISS:    2656879
L1D LOAD      ACCESS:   47748315  HIT:   45692358  MISS:    2055957
L1D RFO       ACCESS:    8118050  HIT:    7517128  MISS:     600922
L1D PREFETCH  ACCESS:          0  HIT:          0  MISS:          0
L1D WRITEBACK ACCESS:          0  HIT:          0  MISS:          0
L1I TOTAL     ACCESS:   44440174  HIT:   44439501  MISS:        673
L1I LOAD      ACCESS:   44440174  HIT:   44439501  MISS:        673
L1I RFO       ACCESS:          0  HIT:          0  MISS:          0
L1I PREFETCH  ACCESS:          0  HIT:          0  MISS:          0
L1I WRITEBACK ACCESS:          0  HIT:          0  MISS:          0
L2C TOTAL     ACCESS:    3584199  HIT:    1810567  MISS:    1773632
L2C LOAD      ACCESS:    2056620  HIT:     632151  MISS:    1424469
L2C RFO       ACCESS:     600548  HIT:     253450  MISS:     347098
L2C PREFETCH  ACCESS:          0  HIT:          0  MISS:          0
L2C WRITEBACK ACCESS:     927031  HIT:     924966  MISS:       2065
LLC TOTAL     ACCESS:    2401254  HIT:    1069527  MISS:    1331727
LLC LOAD      ACCESS:    1424469  HIT:     346499  MISS:    1077970
LLC RFO       ACCESS:     347098  HIT:      96596  MISS:     250502
LLC PREFETCH  ACCESS:          0  HIT:          0  MISS:          0
LLC WRITEBACK ACCESS:     629687  HIT:     626432  MISS:       3255

Region of Interest Statistics

CPU 0 cumulative IPC: 0.406512 instructions: 100000000 cycles: 245995359
L1D TOTAL     ACCESS:   18022199  HIT:   16069726  MISS:    1952473
L1D LOAD      ACCESS:   15277013  HIT:   13431883  MISS:    1845130
L1D RFO       ACCESS:    2745186  HIT:    2637843  MISS:     107343
L1D PREFETCH  ACCESS:          0  HIT:          0  MISS:          0
L1D WRITEBACK ACCESS:          0  HIT:          0  MISS:          0
L1D PREFETCH  REQUESTED:          0  ISSUED:          0  USEFUL:          0  USELESS:          0
L1I TOTAL     ACCESS:   26275440  HIT:   26275284  MISS:        156
L1I LOAD      ACCESS:   26275440  HIT:   26275284  MISS:        156
L1I RFO       ACCESS:          0  HIT:          0  MISS:          0
L1I PREFETCH  ACCESS:          0  HIT:          0  MISS:          0
L1I WRITEBACK ACCESS:          0  HIT:          0  MISS:          0
L1I PREFETCH  REQUESTED:          0  ISSUED:          0  USEFUL:          0  USELESS:          0
L2C TOTAL     ACCESS:    2139089  HIT:     679178  MISS:    1459911
L2C LOAD      ACCESS:    1845286  HIT:     470632  MISS:    1374654
L2C RFO       ACCESS:     107332  HIT:      22363  MISS:      84969
L2C PREFETCH  ACCESS:          0  HIT:          0  MISS:          0
L2C WRITEBACK ACCESS:     186471  HIT:     186183  MISS:        288
L2C PREFETCH  REQUESTED:          0  ISSUED:          0  USEFUL:          0  USELESS:          0
LLC TOTAL     ACCESS:    1610275  HIT:     459367  MISS:    1150908
LLC LOAD      ACCESS:    1374652  HIT:     282313  MISS:    1092339
LLC RFO       ACCESS:      84969  HIT:      26842  MISS:      58127
LLC PREFETCH  ACCESS:          0  HIT:          0  MISS:          0
LLC WRITEBACK ACCESS:     150654  HIT:     150212  MISS:        442
LLC PREFETCH  REQUESTED:          0  ISSUED:          0  USEFUL:          0  USELESS:          0
Major fault: 0 Minor fault: 4249

CPU 1 cumulative IPC: 0.522934 instructions: 100000000 cycles: 191228585
L1D TOTAL     ACCESS:   10840201  HIT:    8983346  MISS:    1856855
L1D LOAD      ACCESS:    8933675  HIT:    7640386  MISS:    1293289
L1D RFO       ACCESS:    1906526  HIT:    1342960  MISS:     563566
L1D PREFETCH  ACCESS:          0  HIT:          0  MISS:          0
L1D WRITEBACK ACCESS:          0  HIT:          0  MISS:          0
L1D PREFETCH  REQUESTED:          0  ISSUED:          0  USEFUL:          0  USELESS:          0
L1I TOTAL     ACCESS:   22968588  HIT:   22968568  MISS:         20
L1I LOAD      ACCESS:   22968588  HIT:   22968568  MISS:         20
L1I RFO       ACCESS:          0  HIT:          0  MISS:          0
L1I PREFETCH  ACCESS:          0  HIT:          0  MISS:          0
L1I WRITEBACK ACCESS:          0  HIT:          0  MISS:          0
L1I PREFETCH  REQUESTED:          0  ISSUED:          0  USEFUL:          0  USELESS:          0
L2C TOTAL     ACCESS:    2420445  HIT:     563711  MISS:    1856734
L2C LOAD      ACCESS:    1293309  HIT:        143  MISS:    1293166
L2C RFO       ACCESS:     563566  HIT:          0  MISS:     563566
L2C PREFETCH  ACCESS:          0  HIT:          0  MISS:          0
L2C WRITEBACK ACCESS:     563570  HIT:     563568  MISS:          2
L2C PREFETCH  REQUESTED:          0  ISSUED:          0  USEFUL:          0  USELESS:          0
LLC TOTAL     ACCESS:    2420302  HIT:     565367  MISS:    1854935
LLC LOAD      ACCESS:    1293166  HIT:       1042  MISS:    1292124
LLC RFO       ACCESS:     563566  HIT:        757  MISS:     562809
LLC PREFETCH  ACCESS:          0  HIT:          0  MISS:          0
LLC WRITEBACK ACCESS:     563570  HIT:     563568  MISS:          2
LLC PREFETCH  REQUESTED:          0  ISSUED:          0  USEFUL:          0  USELESS:          0
Major fault: 0 Minor fault: 90041

CPU 2 cumulative IPC: 0.276599 instructions: 100000000 cycles: 361534592
L1D TOTAL     ACCESS:   26997120  HIT:   24098728  MISS:    2898392
L1D LOAD      ACCESS:   22750164  HIT:   19889570  MISS:    2860594
L1D RFO       ACCESS:    4246956  HIT:    4209158  MISS:      37798
L1D PREFETCH  ACCESS:          0  HIT:          0  MISS:          0
L1D WRITEBACK ACCESS:          0  HIT:          0  MISS:          0
L1D PREFETCH  REQUESTED:          0  ISSUED:          0  USEFUL:          0  USELESS:          0
L1I TOTAL     ACCESS:   24428106  HIT:   24428001  MISS:        105
L1I LOAD      ACCESS:   24428106  HIT:   24428001  MISS:        105
L1I RFO       ACCESS:          0  HIT:          0  MISS:          0
L1I PREFETCH  ACCESS:          0  HIT:          0  MISS:          0
L1I WRITEBACK ACCESS:          0  HIT:          0  MISS:          0
L1I PREFETCH  REQUESTED:          0  ISSUED:          0  USEFUL:          0  USELESS:          0
L2C TOTAL     ACCESS:    3843528  HIT:    1873471  MISS:    1970057
L2C LOAD      ACCESS:    2860625  HIT:     903974  MISS:    1956651
L2C RFO       ACCESS:      37791  HIT:      24570  MISS:      13221
L2C PREFETCH  ACCESS:          0  HIT:          0  MISS:          0
L2C WRITEBACK ACCESS:     945112  HIT:     944927  MISS:        185
L2C PREFETCH  REQUESTED:          0  ISSUED:          0  USEFUL:          0  USELESS:          0
LLC TOTAL     ACCESS:    2634403  HIT:    2364568  MISS:     269835
LLC LOAD      ACCESS:    1956602  HIT:    1721610  MISS:     234992
LLC RFO       ACCESS:      13221  HIT:      12706  MISS:        515
LLC PREFETCH  ACCESS:          0  HIT:          0  MISS:          0
LLC WRITEBACK ACCESS:     664580  HIT:     630252  MISS:      34328
LLC PREFETCH  REQUESTED:          0  ISSUED:          0  USEFUL:          0  USELESS:          0
Major fault: 0 Minor fault: 5929

CPU 3 cumulative IPC: 0.521387 instructions: 100000000 cycles: 191796215
L1D TOTAL     ACCESS:   31457582  HIT:   30560362  MISS:     897220
L1D LOAD      ACCESS:   29901644  HIT:   29271252  MISS:     630392
L1D RFO       ACCESS:    1555938  HIT:    1289110  MISS:     266828
L1D PREFETCH  ACCESS:          0  HIT:          0  MISS:          0
L1D WRITEBACK ACCESS:          0  HIT:          0  MISS:          0
L1D PREFETCH  REQUESTED:          0  ISSUED:          0  USEFUL:          0  USELESS:          0
L1I TOTAL     ACCESS:   22488713  HIT:   22488631  MISS:         82
L1I LOAD      ACCESS:   22488713  HIT:   22488631  MISS:         82
L1I RFO       ACCESS:          0  HIT:          0  MISS:          0
L1I PREFETCH  ACCESS:          0  HIT:          0  MISS:          0
L1I WRITEBACK ACCESS:          0  HIT:          0  MISS:          0
L1I PREFETCH  REQUESTED:          0  ISSUED:          0  USEFUL:          0  USELESS:          0
L2C TOTAL     ACCESS:    1169059  HIT:     330476  MISS:     838583
L2C LOAD      ACCESS:     630473  HIT:      42559  MISS:     587914
L2C RFO       ACCESS:     265205  HIT:      14548  MISS:     250657
L2C PREFETCH  ACCESS:          0  HIT:          0  MISS:          0
L2C WRITEBACK ACCESS:     273381  HIT:     273369  MISS:         12
L2C PREFETCH  REQUESTED:          0  ISSUED:          0  USEFUL:          0  USELESS:          0
LLC TOTAL     ACCESS:    1090564  HIT:     252001  MISS:     838563
LLC LOAD      ACCESS:     587914  HIT:         32  MISS:     587882
LLC RFO       ACCESS:     250657  HIT:          2  MISS:     250655
LLC PREFETCH  ACCESS:          0  HIT:          0  MISS:          0
LLC WRITEBACK ACCESS:     251993  HIT:     251967  MISS:         26
LLC PREFETCH  REQUESTED:          0  ISSUED:          0  USEFUL:          0  USELESS:          0
Major fault: 0 Minor fault: 12787

CPU 4 cumulative IPC: 0.526865 instructions: 100000002 cycles: 189801924
L1D TOTAL     ACCESS:   30937469  HIT:   30148245  MISS:     789224
L1D LOAD      ACCESS:   29770995  HIT:   29269772  MISS:     501223
L1D RFO       ACCESS:    1166474  HIT:     878473  MISS:     288001
L1D PREFETCH  ACCESS:          0  HIT:          0  MISS:          0
L1D WRITEBACK ACCESS:          0  HIT:          0  MISS:          0
L1D PREFETCH  REQUESTED:          0  ISSUED:          0  USEFUL:          0  USELESS:          0
L1I TOTAL     ACCESS:   23974744  HIT:   23974718  MISS:         26
L1I LOAD      ACCESS:   23974744  HIT:   23974718  MISS:         26
L1I RFO       ACCESS:          0  HIT:          0  MISS:          0
L1I PREFETCH  ACCESS:          0  HIT:          0  MISS:          0
L1I WRITEBACK ACCESS:          0  HIT:          0  MISS:          0
L1I PREFETCH  REQUESTED:          0  ISSUED:          0  USEFUL:          0  USELESS:          0
L2C TOTAL     ACCESS:    1077371  HIT:     288196  MISS:     789175
L2C LOAD      ACCESS:     501249  HIT:         75  MISS:     501174
L2C RFO       ACCESS:     288001  HIT:          0  MISS:     288001
L2C PREFETCH  ACCESS:          0  HIT:          0  MISS:          0
L2C WRITEBACK ACCESS:     288121  HIT:     288121  MISS:          0
L2C PREFETCH  REQUESTED:          0  ISSUED:          0  USEFUL:          0  USELESS:          0
LLC TOTAL     ACCESS:    1078217  HIT:     289158  MISS:     789059
LLC LOAD      ACCESS:     501174  HIT:        107  MISS:     501067
LLC RFO       ACCESS:     288001  HIT:         17  MISS:     287984
LLC PREFETCH  ACCESS:          0  HIT:          0  MISS:          0
LLC WRITEBACK ACCESS:     289042  HIT:     289034  MISS:          8
LLC PREFETCH  REQUESTED:          0  ISSUED:          0  USEFUL:          0  USELESS:          0
Major fault: 0 Minor fault: 12951

CPU 5 cumulative IPC: 0.421713 instructions: 100000000 cycles: 237128053
L1D TOTAL     ACCESS:   16023899  HIT:   14540572  MISS:    1483327
L1D LOAD      ACCESS:   14430012  HIT:   13016050  MISS:    1413962
L1D RFO       ACCESS:    1593887  HIT:    1524522  MISS:      69365
L1D PREFETCH  ACCESS:          0  HIT:          0  MISS:          0
L1D WRITEBACK ACCESS:          0  HIT:          0  MISS:          0
L1D PREFETCH  REQUESTED:          0  ISSUED:          0  USEFUL:          0  USELESS:          0
L1I TOTAL     ACCESS:   26495959  HIT:   26495866  MISS:         93
L1I LOAD      ACCESS:   26495959  HIT:   26495866  MISS:         93
L1I RFO       ACCESS:          0  HIT:          0  MISS:          0
L1I PREFETCH  ACCESS:          0  HIT:          0  MISS:          0
L1I WRITEBACK ACCESS:          0  HIT:          0  MISS:          0
L1I PREFETCH  REQUESTED:          0  ISSUED:          0  USEFUL:          0  USELESS:          0
L2C TOTAL     ACCESS:    1577014  HIT:     318518  MISS:    1258496
L2C LOAD      ACCESS:    1414055  HIT:     216480  MISS:    1197575
L2C RFO       ACCESS:      69362  HIT:       8694  MISS:      60668
L2C PREFETCH  ACCESS:          0  HIT:          0  MISS:          0
L2C WRITEBACK ACCESS:      93597  HIT:      93344  MISS:        253
L2C PREFETCH  REQUESTED:          0  ISSUED:          0  USEFUL:          0  USELESS:          0
LLC TOTAL     ACCESS:    1337452  HIT:     192346  MISS:    1145106
LLC LOAD      ACCESS:    1197575  HIT:      97489  MISS:    1100086
LLC RFO       ACCESS:      60668  HIT:      15789  MISS:      44879
LLC PREFETCH  ACCESS:          0  HIT:          0  MISS:          0
LLC WRITEBACK ACCESS:      79209  HIT:      79068  MISS:        141
LLC PREFETCH  REQUESTED:          0  ISSUED:          0  USEFUL:          0  USELESS:          0
Major fault: 0 Minor fault: 4146

CPU 6 cumulative IPC: 0.47742 instructions: 100000001 cycles: 209459088
L1D TOTAL     ACCESS:   16053254  HIT:   14614463  MISS:    1438791
L1D LOAD      ACCESS:   14544663  HIT:   13194821  MISS:    1349842
L1D RFO       ACCESS:    1508591  HIT:    1419642  MISS:      88949
L1D PREFETCH  ACCESS:          0  HIT:          0  MISS:          0
L1D WRITEBACK ACCESS:          0  HIT:          0  MISS:          0
L1D PREFETCH  REQUESTED:          0  ISSUED:          0  USEFUL:          0  USELESS:          0
L1I TOTAL     ACCESS:   26863504  HIT:   26863359  MISS:        145
L1I LOAD      ACCESS:   26863504  HIT:   26863359  MISS:        145
L1I RFO       ACCESS:          0  HIT:          0  MISS:          0
L1I PREFETCH  ACCESS:          0  HIT:          0  MISS:          0
L1I WRITEBACK ACCESS:          0  HIT:          0  MISS:          0
L1I PREFETCH  REQUESTED:          0  ISSUED:          0  USEFUL:          0  USELESS:          0
L2C TOTAL     ACCESS:    1549880  HIT:     292260  MISS:    1257620
L2C LOAD      ACCESS:    1349986  HIT:     172917  MISS:    1177069
L2C RFO       ACCESS:      88948  HIT:       8715  MISS:      80233
L2C PREFETCH  ACCESS:          0  HIT:          0  MISS:          0
L2C WRITEBACK ACCESS:     110946  HIT:     110628  MISS:        318
L2C PREFETCH  REQUESTED:          0  ISSUED:          0  USEFUL:          0  USELESS:          0
LLC TOTAL     ACCESS:    1356549  HIT:     428585  MISS:     927964
LLC LOAD      ACCESS:    1177069  HIT:     297027  MISS:     880042
LLC RFO       ACCESS:      80233  HIT:      32394  MISS:      47839
LLC PREFETCH  ACCESS:          0  HIT:          0  MISS:          0
LLC WRITEBACK ACCESS:      99247  HIT:      99164  MISS:         83
LLC PREFETCH  REQUESTED:          0  ISSUED:          0  USEFUL:          0  USELESS:          0
Major fault: 0 Minor fault: 2337

CPU 7 cumulative IPC: 0.640189 instructions: 100000003 cycles: 156203873
L1D TOTAL     ACCESS:   29955783  HIT:   28543940  MISS:    1411843
L1D LOAD      ACCESS:   26139791  HIT:   24994833  MISS:    1144958
L1D RFO       ACCESS:    3815992  HIT:    3549107  MISS:     266885
L1D PREFETCH  ACCESS:          0  HIT:          0  MISS:          0
L1D WRITEBACK ACCESS:          0  HIT:          0  MISS:          0
L1D PREFETCH  REQUESTED:          0  ISSUED:          0  USEFUL:          0  USELESS:          0
L1I TOTAL     ACCESS:   23671613  HIT:   23671613  MISS:          0
L1I LOAD      ACCESS:   23671613  HIT:   23671613  MISS:          0
L1I RFO       ACCESS:          0  HIT:          0  MISS:          0
L1I PREFETCH  ACCESS:          0  HIT:          0  MISS:          0
L1I WRITEBACK ACCESS:          0  HIT:          0  MISS:          0
L1I PREFETCH  REQUESTED:          0  ISSUED:          0  USEFUL:          0  USELESS:          0
L2C TOTAL     ACCESS:    1831675  HIT:    1144946  MISS:     686729
L2C LOAD      ACCESS:    1144948  HIT:     515606  MISS:     629342
L2C RFO       ACCESS:     266560  HIT:     210770  MISS:      55790
L2C PREFETCH  ACCESS:          0  HIT:          0  MISS:          0
L2C WRITEBACK ACCESS:     420167  HIT:     418570  MISS:       1597
L2C PREFETCH  REQUESTED:          0  ISSUED:          0  USEFUL:          0  USELESS:          0
LLC TOTAL     ACCESS:     858209  HIT:     499185  MISS:     359024
LLC LOAD      ACCESS:     629342  HIT:     273383  MISS:     355959
LLC RFO       ACCESS:      55790  HIT:      55430  MISS:        360
LLC PREFETCH  ACCESS:          0  HIT:          0  MISS:          0
LLC WRITEBACK ACCESS:     173077  HIT:     170372  MISS:       2705
LLC PREFETCH  REQUESTED:          0  ISSUED:          0  USEFUL:          0  USELESS:          0
Major fault: 0 Minor fault: 15742

DRAM Statistics
 CHANNEL 0
 RQ ROW_BUFFER_HIT:    2548724  ROW_BUFFER_MISS:    3865258
 DBUS_CONGESTED:    7336740
 WQ ROW_BUFFER_HIT:     109678  ROW_BUFFER_MISS:    1284246  FULL:          0

 CHANNEL 1
 RQ ROW_BUFFER_HIT:    2507514  ROW_BUFFER_MISS:    3901048
 DBUS_CONGESTED:    7336740
 WQ ROW_BUFFER_HIT:     129336  ROW_BUFFER_MISS:    1419264  FULL:          0

 AVG_CONGESTED_CYCLE: 12
