
*** ChampSim Multicore Out-of-Order Simulator ***

Warmup Instructions: 20000000
Simulation Instructions: 100000000
Number of CPUs: 8
LLC sets: 16384
LLC ways: 16
Off-chip DRAM Size: 8192 MB Channels: 2 Width: 64-bit Data Rate: 1600 MT/s

CPU 0 runs /scratch/user/djimenez/champsim-traces/speccpu2017/xz/648.exchange2_s/648.exchange2_s-353B.champsimtrace.xz
CPU 1 runs /scratch/user/djimenez/champsim-traces/speccpu2017/xz/638.imagick_s/638.imagick_s-824B.champsimtrace.xz
CPU 2 runs /scratch/user/djimenez/champsim-traces/speccpu2017/xz/654.roms_s/654.roms_s-294B.champsimtrace.xz
CPU 3 runs /scratch/user/djimenez/champsim-traces/speccpu2017/xz/603.bwaves_s/603.bwaves_s-891B.champsimtrace.xz
CPU 4 runs /scratch/user/djimenez/champsim-traces/speccpu2017/xz/654.roms_s/654.roms_s-1070B.champsimtrace.xz
CPU 5 runs /scratch/user/djimenez/champsim-traces/speccpu2017/xz/654.roms_s/654.roms_s-1390B.champsimtrace.xz
CPU 6 runs /scratch/user/djimenez/champsim-traces/speccpu2017/xz/654.roms_s/654.roms_s-1613B.champsimtrace.xz
CPU 7 runs /scratch/user/djimenez/champsim-traces/speccpu2017/xz/649.fotonik3d_s/649.fotonik3d_s-7084B.champsimtrace.xz
L2C Best-offset prefetcher
L2C Best-offset prefetcher
L2C Best-offset prefetcher
L2C Best-offset prefetcher
L2C Best-offset prefetcher
L2C Best-offset prefetcher
L2C Best-offset prefetcher
L2C Best-offset prefetcher
Heartbeat CPU 3 instructions: 10000003 cycles: 3200076 heartbeat IPC: 3.12493 cumulative IPC: 3.12493 (Simulation time: 0 hr 4 min 0 sec) 
Heartbeat CPU 7 instructions: 10000000 cycles: 4192214 heartbeat IPC: 2.38537 cumulative IPC: 2.38537 (Simulation time: 0 hr 5 min 12 sec) 
Heartbeat CPU 0 instructions: 10000001 cycles: 4292913 heartbeat IPC: 2.32942 cumulative IPC: 2.32942 (Simulation time: 0 hr 5 min 19 sec) 
Heartbeat CPU 6 instructions: 10000003 cycles: 4453907 heartbeat IPC: 2.24522 cumulative IPC: 2.24522 (Simulation time: 0 hr 5 min 31 sec) 
Heartbeat CPU 1 instructions: 10000000 cycles: 4705819 heartbeat IPC: 2.12503 cumulative IPC: 2.12503 (Simulation time: 0 hr 5 min 54 sec) 
Heartbeat CPU 2 instructions: 10000003 cycles: 4879259 heartbeat IPC: 2.04949 cumulative IPC: 2.04949 (Simulation time: 0 hr 6 min 4 sec) 
Heartbeat CPU 4 instructions: 10000001 cycles: 4948899 heartbeat IPC: 2.02065 cumulative IPC: 2.02065 (Simulation time: 0 hr 6 min 13 sec) 
Heartbeat CPU 3 instructions: 20000000 cycles: 6401074 heartbeat IPC: 3.12402 cumulative IPC: 3.12448 (Simulation time: 0 hr 7 min 46 sec) 
Heartbeat CPU 5 instructions: 10000001 cycles: 6744203 heartbeat IPC: 1.48276 cumulative IPC: 1.48276 (Simulation time: 0 hr 8 min 6 sec) 
Heartbeat CPU 7 instructions: 20000000 cycles: 8382454 heartbeat IPC: 2.3865 cumulative IPC: 2.38594 (Simulation time: 0 hr 9 min 45 sec) 
Heartbeat CPU 0 instructions: 20000000 cycles: 8608061 heartbeat IPC: 2.31742 cumulative IPC: 2.3234 (Simulation time: 0 hr 9 min 59 sec) 
Heartbeat CPU 6 instructions: 20000000 cycles: 8907519 heartbeat IPC: 2.24537 cumulative IPC: 2.24529 (Simulation time: 0 hr 10 min 17 sec) 
Heartbeat CPU 1 instructions: 20000000 cycles: 9401627 heartbeat IPC: 2.12956 cumulative IPC: 2.12729 (Simulation time: 0 hr 10 min 47 sec) 
Heartbeat CPU 3 instructions: 30000003 cycles: 9602084 heartbeat IPC: 3.12401 cumulative IPC: 1.04144 (Simulation time: 0 hr 10 min 59 sec) 
Heartbeat CPU 2 instructions: 20000000 cycles: 9758165 heartbeat IPC: 2.04964 cumulative IPC: 2.04957 (Simulation time: 0 hr 11 min 8 sec) 
Heartbeat CPU 4 instructions: 20000000 cycles: 10008503 heartbeat IPC: 1.97644 cumulative IPC: 1.9983 (Simulation time: 0 hr 11 min 23 sec) 
Heartbeat CPU 5 instructions: 20000000 cycles: 11878843 heartbeat IPC: 1.94756 cumulative IPC: 1.68367 (Simulation time: 0 hr 13 min 20 sec) 

Warmup complete CPU 0 instructions: 27592961 cycles: 11878852 (Simulation time: 0 hr 13 min 20 sec) 
Warmup complete CPU 1 instructions: 25283251 cycles: 11878852 (Simulation time: 0 hr 13 min 20 sec) 
Warmup complete CPU 2 instructions: 24345782 cycles: 11878852 (Simulation time: 0 hr 13 min 20 sec) 
Warmup complete CPU 3 instructions: 37107254 cycles: 11878852 (Simulation time: 0 hr 13 min 20 sec) 
Warmup complete CPU 4 instructions: 23707579 cycles: 11878852 (Simulation time: 0 hr 13 min 20 sec) 
Warmup complete CPU 5 instructions: 20000001 cycles: 11878852 (Simulation time: 0 hr 13 min 20 sec) 
Warmup complete CPU 6 instructions: 26671404 cycles: 11878851 (Simulation time: 0 hr 13 min 20 sec) 
Warmup complete CPU 7 instructions: 28365492 cycles: 11878851 (Simulation time: 0 hr 13 min 20 sec) 

Heartbeat CPU 0 instructions: 30000001 cycles: 13358964 heartbeat IPC: 2.10486 cumulative IPC: 1.62626 (Simulation time: 0 hr 14 min 9 sec) 
Heartbeat CPU 7 instructions: 30000002 cycles: 13714224 heartbeat IPC: 1.87555 cumulative IPC: 0.89056 (Simulation time: 0 hr 14 min 19 sec) 
Heartbeat CPU 6 instructions: 30000001 cycles: 16514859 heartbeat IPC: 1.31452 cumulative IPC: 0.717988 (Simulation time: 0 hr 15 min 37 sec) 
Heartbeat CPU 3 instructions: 40000000 cycles: 18685581 heartbeat IPC: 1.1009 cumulative IPC: 0.424983 (Simulation time: 0 hr 16 min 37 sec) 
Heartbeat CPU 2 instructions: 30000002 cycles: 19056574 heartbeat IPC: 1.07545 cumulative IPC: 0.787746 (Simulation time: 0 hr 16 min 47 sec) 
Heartbeat CPU 0 instructions: 40000000 cycles: 19647351 heartbeat IPC: 1.59023 cumulative IPC: 1.5971 (Simulation time: 0 hr 17 min 3 sec) 
Heartbeat CPU 1 instructions: 30000002 cycles: 19815878 heartbeat IPC: 0.960223 cumulative IPC: 0.594272 (Simulation time: 0 hr 17 min 8 sec) 
Heartbeat CPU 4 instructions: 30000000 cycles: 21621152 heartbeat IPC: 0.86113 cumulative IPC: 0.645887 (Simulation time: 0 hr 17 min 57 sec) 
Heartbeat CPU 7 instructions: 40000000 cycles: 24539041 heartbeat IPC: 0.923803 cumulative IPC: 0.918984 (Simulation time: 0 hr 19 min 13 sec) 
Heartbeat CPU 0 instructions: 50000001 cycles: 25901830 heartbeat IPC: 1.59885 cumulative IPC: 1.59788 (Simulation time: 0 hr 19 min 49 sec) 
Heartbeat CPU 6 instructions: 40000000 cycles: 30418001 heartbeat IPC: 0.719262 cumulative IPC: 0.718943 (Simulation time: 0 hr 21 min 46 sec) 
Heartbeat CPU 2 instructions: 40000000 cycles: 31072865 heartbeat IPC: 0.832203 cumulative IPC: 0.815578 (Simulation time: 0 hr 22 min 3 sec) 
Heartbeat CPU 0 instructions: 60000000 cycles: 32102558 heartbeat IPC: 1.61271 cumulative IPC: 1.60243 (Simulation time: 0 hr 22 min 29 sec) 
Heartbeat CPU 5 instructions: 30000002 cycles: 35097247 heartbeat IPC: 0.430693 cumulative IPC: 0.430693 (Simulation time: 0 hr 23 min 40 sec) 
Heartbeat CPU 1 instructions: 40000000 cycles: 36640530 heartbeat IPC: 0.594366 cumulative IPC: 0.594336 (Simulation time: 0 hr 24 min 15 sec) 
Heartbeat CPU 7 instructions: 50000000 cycles: 36858142 heartbeat IPC: 0.811748 cumulative IPC: 0.866098 (Simulation time: 0 hr 24 min 20 sec) 
Heartbeat CPU 4 instructions: 40000000 cycles: 37474984 heartbeat IPC: 0.630762 cumulative IPC: 0.636519 (Simulation time: 0 hr 24 min 34 sec) 
Heartbeat CPU 0 instructions: 70000002 cycles: 38308229 heartbeat IPC: 1.61143 cumulative IPC: 1.60454 (Simulation time: 0 hr 24 min 54 sec) 
Heartbeat CPU 3 instructions: 50000001 cycles: 41619625 heartbeat IPC: 0.436033 cumulative IPC: 0.433504 (Simulation time: 0 hr 26 min 11 sec) 
Heartbeat CPU 2 instructions: 50000001 cycles: 43364565 heartbeat IPC: 0.813557 cumulative IPC: 0.814789 (Simulation time: 0 hr 26 min 51 sec) 
Heartbeat CPU 0 instructions: 80000000 cycles: 45421495 heartbeat IPC: 1.40582 cumulative IPC: 1.5624 (Simulation time: 0 hr 27 min 40 sec) 
Heartbeat CPU 7 instructions: 60000000 cycles: 47680389 heartbeat IPC: 0.924022 cumulative IPC: 0.883608 (Simulation time: 0 hr 28 min 33 sec) 
Heartbeat CPU 4 instructions: 50000000 cycles: 50917937 heartbeat IPC: 0.743884 cumulative IPC: 0.67349 (Simulation time: 0 hr 30 min 0 sec) 
Heartbeat CPU 0 instructions: 90000000 cycles: 51655339 heartbeat IPC: 1.60415 cumulative IPC: 1.56894 (Simulation time: 0 hr 30 min 21 sec) 
Heartbeat CPU 1 instructions: 50000001 cycles: 53397562 heartbeat IPC: 0.596764 cumulative IPC: 0.595316 (Simulation time: 0 hr 31 min 8 sec) 
Heartbeat CPU 2 instructions: 60000000 cycles: 55869208 heartbeat IPC: 0.799703 cumulative IPC: 0.810501 (Simulation time: 0 hr 32 min 13 sec) 
Heartbeat CPU 6 instructions: 50000000 cycles: 56650071 heartbeat IPC: 0.381213 cumulative IPC: 0.521062 (Simulation time: 0 hr 32 min 34 sec) 
Heartbeat CPU 5 instructions: 40000000 cycles: 57176659 heartbeat IPC: 0.452911 cumulative IPC: 0.441522 (Simulation time: 0 hr 32 min 47 sec) 
Heartbeat CPU 0 instructions: 100000000 cycles: 57897221 heartbeat IPC: 1.60208 cumulative IPC: 1.57344 (Simulation time: 0 hr 33 min 6 sec) 
Heartbeat CPU 7 instructions: 70000001 cycles: 58170489 heartbeat IPC: 0.95328 cumulative IPC: 0.899396 (Simulation time: 0 hr 33 min 13 sec) 
Heartbeat CPU 0 instructions: 110000001 cycles: 64060105 heartbeat IPC: 1.62262 cumulative IPC: 1.57925 (Simulation time: 0 hr 35 min 49 sec) 
Heartbeat CPU 3 instructions: 60000000 cycles: 66643301 heartbeat IPC: 0.399622 cumulative IPC: 0.418022 (Simulation time: 0 hr 36 min 58 sec) 
Heartbeat CPU 7 instructions: 80000000 cycles: 68696193 heartbeat IPC: 0.950055 cumulative IPC: 0.908781 (Simulation time: 0 hr 37 min 52 sec) 
Heartbeat CPU 2 instructions: 70000000 cycles: 68859718 heartbeat IPC: 0.769793 cumulative IPC: 0.80122 (Simulation time: 0 hr 37 min 57 sec) 
Heartbeat CPU 1 instructions: 60000000 cycles: 70226730 heartbeat IPC: 0.594206 cumulative IPC: 0.594996 (Simulation time: 0 hr 38 min 33 sec) 
Heartbeat CPU 0 instructions: 120000000 cycles: 70306952 heartbeat IPC: 1.60081 cumulative IPC: 1.58155 (Simulation time: 0 hr 38 min 35 sec) 
Heartbeat CPU 6 instructions: 60000000 cycles: 70631601 heartbeat IPC: 0.715229 cumulative IPC: 0.567269 (Simulation time: 0 hr 38 min 44 sec) 
Heartbeat CPU 4 instructions: 60000000 cycles: 70641925 heartbeat IPC: 0.506997 cumulative IPC: 0.617606 (Simulation time: 0 hr 38 min 44 sec) 
Finished CPU 0 instructions: 100000000 cycles: 63142239 cumulative IPC: 1.58373 (Simulation time: 0 hr 40 min 40 sec) 
Heartbeat CPU 5 instructions: 50000003 cycles: 75524516 heartbeat IPC: 0.545023 cumulative IPC: 0.47136 (Simulation time: 0 hr 40 min 53 sec) 
Heartbeat CPU 0 instructions: 130000001 cycles: 76492129 heartbeat IPC: 1.61677 cumulative IPC: 1.58492 (Simulation time: 0 hr 41 min 19 sec) 
Heartbeat CPU 7 instructions: 90000003 cycles: 79043650 heartbeat IPC: 0.966421 cumulative IPC: 0.917661 (Simulation time: 0 hr 42 min 28 sec) 
Heartbeat CPU 2 instructions: 80000000 cycles: 81086714 heartbeat IPC: 0.817862 cumulative IPC: 0.80416 (Simulation time: 0 hr 43 min 24 sec) 
Heartbeat CPU 0 instructions: 140000000 cycles: 82645518 heartbeat IPC: 1.62512 cumulative IPC: 1.58842 (Simulation time: 0 hr 44 min 8 sec) 
Heartbeat CPU 6 instructions: 70000001 cycles: 84508021 heartbeat IPC: 0.720647 cumulative IPC: 0.596573 (Simulation time: 0 hr 45 min 3 sec) 
Heartbeat CPU 4 instructions: 70000001 cycles: 84951142 heartbeat IPC: 0.69885 cumulative IPC: 0.633515 (Simulation time: 0 hr 45 min 17 sec) 
Heartbeat CPU 1 instructions: 70000001 cycles: 86980417 heartbeat IPC: 0.596884 cumulative IPC: 0.595417 (Simulation time: 0 hr 46 min 18 sec) 
Heartbeat CPU 7 instructions: 100000000 cycles: 88144807 heartbeat IPC: 1.09876 cumulative IPC: 0.939272 (Simulation time: 0 hr 46 min 54 sec) 
Heartbeat CPU 5 instructions: 60000000 cycles: 88165784 heartbeat IPC: 0.79106 cumulative IPC: 0.524336 (Simulation time: 0 hr 46 min 54 sec) 
Heartbeat CPU 3 instructions: 70000002 cycles: 88411906 heartbeat IPC: 0.459377 cumulative IPC: 0.429785 (Simulation time: 0 hr 47 min 2 sec) 
Heartbeat CPU 0 instructions: 150000001 cycles: 88709766 heartbeat IPC: 1.64901 cumulative IPC: 1.5932 (Simulation time: 0 hr 47 min 11 sec) 
Heartbeat CPU 2 instructions: 90000001 cycles: 91352670 heartbeat IPC: 0.974093 cumulative IPC: 0.826111 (Simulation time: 0 hr 48 min 39 sec) 
Heartbeat CPU 0 instructions: 160000000 cycles: 94904127 heartbeat IPC: 1.61437 cumulative IPC: 1.59478 (Simulation time: 0 hr 50 min 28 sec) 
Heartbeat CPU 7 instructions: 110000002 cycles: 97193648 heartbeat IPC: 1.10511 cumulative IPC: 0.956862 (Simulation time: 0 hr 51 min 32 sec) 
Heartbeat CPU 6 instructions: 80000000 cycles: 98354449 heartbeat IPC: 0.722208 cumulative IPC: 0.61669 (Simulation time: 0 hr 52 min 5 sec) 
Heartbeat CPU 4 instructions: 80000000 cycles: 99570624 heartbeat IPC: 0.684019 cumulative IPC: 0.641935 (Simulation time: 0 hr 52 min 39 sec) 
Heartbeat CPU 5 instructions: 70000002 cycles: 100301696 heartbeat IPC: 0.824001 cumulative IPC: 0.565465 (Simulation time: 0 hr 53 min 0 sec) 
Heartbeat CPU 0 instructions: 170000000 cycles: 101241671 heartbeat IPC: 1.5779 cumulative IPC: 1.59358 (Simulation time: 0 hr 53 min 26 sec) 
Heartbeat CPU 2 instructions: 100000000 cycles: 102449732 heartbeat IPC: 0.901139 cumulative IPC: 0.835304 (Simulation time: 0 hr 54 min 1 sec) 
Heartbeat CPU 1 instructions: 80000000 cycles: 103807706 heartbeat IPC: 0.594273 cumulative IPC: 0.595208 (Simulation time: 0 hr 54 min 40 sec) 
Heartbeat CPU 7 instructions: 120000000 cycles: 106555048 heartbeat IPC: 1.06822 cumulative IPC: 0.967873 (Simulation time: 0 hr 55 min 59 sec) 
Heartbeat CPU 0 instructions: 180000000 cycles: 107375473 heartbeat IPC: 1.63031 cumulative IPC: 1.59594 (Simulation time: 0 hr 56 min 22 sec) 
Heartbeat CPU 3 instructions: 80000000 cycles: 108493041 heartbeat IPC: 0.49798 cumulative IPC: 0.443959 (Simulation time: 0 hr 56 min 54 sec) 
Heartbeat CPU 6 instructions: 90000001 cycles: 112263441 heartbeat IPC: 0.718959 cumulative IPC: 0.63086 (Simulation time: 0 hr 58 min 42 sec) 
Heartbeat CPU 5 instructions: 80000000 cycles: 112498143 heartbeat IPC: 0.819911 cumulative IPC: 0.596307 (Simulation time: 0 hr 58 min 48 sec) 
Heartbeat CPU 0 instructions: 190000002 cycles: 113692711 heartbeat IPC: 1.58297 cumulative IPC: 1.59514 (Simulation time: 0 hr 59 min 22 sec) 
Heartbeat CPU 2 instructions: 110000002 cycles: 113932003 heartbeat IPC: 0.870908 cumulative IPC: 0.83931 (Simulation time: 0 hr 59 min 28 sec) 
Finished CPU 7 instructions: 100000001 cycles: 102350570 cumulative IPC: 0.977034 (Simulation time: 0 hr 59 min 37 sec) 
Heartbeat CPU 4 instructions: 90000001 cycles: 115461176 heartbeat IPC: 0.629305 cumulative IPC: 0.639997 (Simulation time: 1 hr 0 min 10 sec) 
Heartbeat CPU 7 instructions: 130000001 cycles: 115669513 heartbeat IPC: 1.09716 cumulative IPC: 0.979226 (Simulation time: 1 hr 0 min 15 sec) 
Heartbeat CPU 1 instructions: 90000000 cycles: 120577738 heartbeat IPC: 0.596302 cumulative IPC: 0.595376 (Simulation time: 1 hr 2 min 28 sec) 
Heartbeat CPU 0 instructions: 200000000 cycles: 120999863 heartbeat IPC: 1.36852 cumulative IPC: 1.57996 (Simulation time: 1 hr 2 min 39 sec) 
Heartbeat CPU 7 instructions: 140000000 cycles: 125076210 heartbeat IPC: 1.06307 cumulative IPC: 0.986194 (Simulation time: 1 hr 4 min 28 sec) 
Heartbeat CPU 2 instructions: 120000000 cycles: 125418087 heartbeat IPC: 0.870619 cumulative IPC: 0.842477 (Simulation time: 1 hr 4 min 38 sec) 
Heartbeat CPU 6 instructions: 100000000 cycles: 126145918 heartbeat IPC: 0.720333 cumulative IPC: 0.64173 (Simulation time: 1 hr 4 min 58 sec) 
Heartbeat CPU 4 instructions: 100000000 cycles: 126396441 heartbeat IPC: 0.914472 cumulative IPC: 0.666207 (Simulation time: 1 hr 5 min 5 sec) 
Heartbeat CPU 3 instructions: 90000000 cycles: 128600074 heartbeat IPC: 0.497338 cumulative IPC: 0.453155 (Simulation time: 1 hr 6 min 5 sec) 
Finished CPU 2 instructions: 100000002 cycles: 118716126 cumulative IPC: 0.842346 (Simulation time: 1 hr 6 min 57 sec) 
Heartbeat CPU 0 instructions: 210000003 cycles: 130877442 heartbeat IPC: 1.01239 cumulative IPC: 1.53285 (Simulation time: 1 hr 7 min 5 sec) 
Heartbeat CPU 5 instructions: 90000002 cycles: 132366829 heartbeat IPC: 0.503305 cumulative IPC: 0.580971 (Simulation time: 1 hr 7 min 43 sec) 
Heartbeat CPU 7 instructions: 150000002 cycles: 134837030 heartbeat IPC: 1.0245 cumulative IPC: 0.989235 (Simulation time: 1 hr 8 min 49 sec) 
Heartbeat CPU 1 instructions: 100000000 cycles: 137394291 heartbeat IPC: 0.594652 cumulative IPC: 0.595279 (Simulation time: 1 hr 9 min 56 sec) 
Heartbeat CPU 2 instructions: 130000000 cycles: 137436108 heartbeat IPC: 0.832084 cumulative IPC: 0.841482 (Simulation time: 1 hr 9 min 57 sec) 
Heartbeat CPU 0 instructions: 220000000 cycles: 140030041 heartbeat IPC: 1.09259 cumulative IPC: 1.50141 (Simulation time: 1 hr 11 min 6 sec) 
Heartbeat CPU 6 instructions: 110000001 cycles: 140083302 heartbeat IPC: 0.717495 cumulative IPC: 0.649966 (Simulation time: 1 hr 11 min 7 sec) 
Heartbeat CPU 4 instructions: 110000001 cycles: 143545275 heartbeat IPC: 0.58313 cumulative IPC: 0.655387 (Simulation time: 1 hr 12 min 39 sec) 
Heartbeat CPU 7 instructions: 160000000 cycles: 144710864 heartbeat IPC: 1.01278 cumulative IPC: 0.990985 (Simulation time: 1 hr 13 min 11 sec) 
Heartbeat CPU 0 instructions: 230000002 cycles: 148353996 heartbeat IPC: 1.20135 cumulative IPC: 1.48311 (Simulation time: 1 hr 14 min 52 sec) 
Heartbeat CPU 2 instructions: 140000000 cycles: 149522759 heartbeat IPC: 0.827359 cumulative IPC: 0.840242 (Simulation time: 1 hr 15 min 23 sec) 
Heartbeat CPU 5 instructions: 100000000 cycles: 149774225 heartbeat IPC: 0.574468 cumulative IPC: 0.58015 (Simulation time: 1 hr 15 min 30 sec) 
Heartbeat CPU 3 instructions: 100000000 cycles: 150965690 heartbeat IPC: 0.447115 cumulative IPC: 0.452183 (Simulation time: 1 hr 16 min 1 sec) 
Heartbeat CPU 1 instructions: 110000003 cycles: 154164012 heartbeat IPC: 0.596313 cumulative IPC: 0.595401 (Simulation time: 1 hr 17 min 24 sec) 
Heartbeat CPU 0 instructions: 240000000 cycles: 154603099 heartbeat IPC: 1.60023 cumulative IPC: 1.48823 (Simulation time: 1 hr 17 min 36 sec) 
Heartbeat CPU 4 instructions: 120000000 cycles: 154727099 heartbeat IPC: 0.894308 cumulative IPC: 0.674089 (Simulation time: 1 hr 17 min 39 sec) 
Heartbeat CPU 7 instructions: 170000001 cycles: 155262388 heartbeat IPC: 0.94773 cumulative IPC: 0.987802 (Simulation time: 1 hr 17 min 52 sec) 
Finished CPU 4 instructions: 100000000 cycles: 147431350 cumulative IPC: 0.678282 (Simulation time: 1 hr 19 min 37 sec) 
Heartbeat CPU 0 instructions: 250000000 cycles: 160857599 heartbeat IPC: 1.59885 cumulative IPC: 1.49288 (Simulation time: 1 hr 20 min 15 sec) 
Heartbeat CPU 2 instructions: 150000000 cycles: 161482858 heartbeat IPC: 0.836113 cumulative IPC: 0.839912 (Simulation time: 1 hr 20 min 30 sec) 
Heartbeat CPU 7 instructions: 180000000 cycles: 165383656 heartbeat IPC: 0.988018 cumulative IPC: 0.987816 (Simulation time: 1 hr 22 min 4 sec) 
Heartbeat CPU 6 instructions: 120000000 cycles: 166954206 heartbeat IPC: 0.37215 cumulative IPC: 0.601827 (Simulation time: 1 hr 22 min 46 sec) 
Heartbeat CPU 0 instructions: 260000000 cycles: 167079215 heartbeat IPC: 1.6073 cumulative IPC: 1.49746 (Simulation time: 1 hr 22 min 49 sec) 
Heartbeat CPU 5 instructions: 110000000 cycles: 170233022 heartbeat IPC: 0.488787 cumulative IPC: 0.568346 (Simulation time: 1 hr 24 min 17 sec) 
Heartbeat CPU 4 instructions: 130000001 cycles: 170872366 heartbeat IPC: 0.619377 cumulative IPC: 0.668533 (Simulation time: 1 hr 24 min 35 sec) 
Heartbeat CPU 1 instructions: 120000000 cycles: 170983896 heartbeat IPC: 0.594534 cumulative IPC: 0.59531 (Simulation time: 1 hr 24 min 38 sec) 
Heartbeat CPU 0 instructions: 270000000 cycles: 173236983 heartbeat IPC: 1.62397 cumulative IPC: 1.50229 (Simulation time: 1 hr 25 min 42 sec) 
Heartbeat CPU 2 instructions: 160000000 cycles: 173938417 heartbeat IPC: 0.802854 cumulative IPC: 0.837064 (Simulation time: 1 hr 26 min 2 sec) 
Heartbeat CPU 3 instructions: 110000002 cycles: 174106002 heartbeat IPC: 0.432146 cumulative IPC: 0.449325 (Simulation time: 1 hr 26 min 7 sec) 
Heartbeat CPU 7 instructions: 190000001 cycles: 175169887 heartbeat IPC: 1.02184 cumulative IPC: 0.989855 (Simulation time: 1 hr 26 min 37 sec) 
Finished CPU 6 instructions: 100000001 cycles: 164364464 cumulative IPC: 0.608404 (Simulation time: 1 hr 27 min 8 sec) 
Heartbeat CPU 0 instructions: 280000000 cycles: 179489759 heartbeat IPC: 1.59929 cumulative IPC: 1.50591 (Simulation time: 1 hr 28 min 40 sec) 
Finished CPU 1 instructions: 100000002 cycles: 167994680 cumulative IPC: 0.595257 (Simulation time: 1 hr 28 min 51 sec) 
Heartbeat CPU 6 instructions: 130000000 cycles: 180871823 heartbeat IPC: 0.718514 cumulative IPC: 0.611437 (Simulation time: 1 hr 29 min 20 sec) 
Heartbeat CPU 5 instructions: 120000000 cycles: 183916350 heartbeat IPC: 0.730816 cumulative IPC: 0.581269 (Simulation time: 1 hr 30 min 50 sec) 
Finished CPU 5 instructions: 100000001 cycles: 172037506 cumulative IPC: 0.581269 (Simulation time: 1 hr 30 min 50 sec) 
Heartbeat CPU 7 instructions: 200000000 cycles: 184668639 heartbeat IPC: 1.05277 cumulative IPC: 0.993314 (Simulation time: 1 hr 31 min 12 sec) 
Heartbeat CPU 4 instructions: 140000000 cycles: 184925027 heartbeat IPC: 0.711609 cumulative IPC: 0.672031 (Simulation time: 1 hr 31 min 20 sec) 
Heartbeat CPU 0 instructions: 290000000 cycles: 185672006 heartbeat IPC: 1.61753 cumulative IPC: 1.50988 (Simulation time: 1 hr 31 min 41 sec) 
Heartbeat CPU 2 instructions: 170000003 cycles: 185673592 heartbeat IPC: 0.852139 cumulative IPC: 0.838082 (Simulation time: 1 hr 31 min 41 sec) 
Heartbeat CPU 1 instructions: 130000003 cycles: 187782251 heartbeat IPC: 0.595297 cumulative IPC: 0.595308 (Simulation time: 1 hr 32 min 43 sec) 
Heartbeat CPU 0 instructions: 300000000 cycles: 191881058 heartbeat IPC: 1.61055 cumulative IPC: 1.51335 (Simulation time: 1 hr 34 min 41 sec) 
Heartbeat CPU 7 instructions: 210000002 cycles: 194260320 heartbeat IPC: 1.04257 cumulative IPC: 0.995904 (Simulation time: 1 hr 35 min 52 sec) 
Heartbeat CPU 6 instructions: 140000000 cycles: 194803708 heartbeat IPC: 0.717778 cumulative IPC: 0.619536 (Simulation time: 1 hr 36 min 8 sec) 
Heartbeat CPU 3 instructions: 120000000 cycles: 195037380 heartbeat IPC: 0.477752 cumulative IPC: 0.452574 (Simulation time: 1 hr 36 min 15 sec) 
Heartbeat CPU 4 instructions: 150000002 cycles: 196726889 heartbeat IPC: 0.847324 cumulative IPC: 0.683223 (Simulation time: 1 hr 37 min 3 sec) 
Heartbeat CPU 2 instructions: 180000000 cycles: 197209593 heartbeat IPC: 0.866851 cumulative IPC: 0.839873 (Simulation time: 1 hr 37 min 16 sec) 
Heartbeat CPU 5 instructions: 130000001 cycles: 198087730 heartbeat IPC: 0.705648 cumulative IPC: 0.590734 (Simulation time: 1 hr 37 min 40 sec) 
Heartbeat CPU 0 instructions: 310000001 cycles: 198175454 heartbeat IPC: 1.58871 cumulative IPC: 1.5159 (Simulation time: 1 hr 37 min 43 sec) 
Heartbeat CPU 7 instructions: 220000000 cycles: 203947875 heartbeat IPC: 1.03225 cumulative IPC: 0.997738 (Simulation time: 1 hr 40 min 15 sec) 
Heartbeat CPU 0 instructions: 320000000 cycles: 204356627 heartbeat IPC: 1.61782 cumulative IPC: 1.51917 (Simulation time: 1 hr 40 min 27 sec) 
Heartbeat CPU 1 instructions: 140000000 cycles: 204570683 heartbeat IPC: 0.595648 cumulative IPC: 0.595338 (Simulation time: 1 hr 40 min 32 sec) 
Heartbeat CPU 6 instructions: 150000003 cycles: 208726670 heartbeat IPC: 0.718238 cumulative IPC: 0.626517 (Simulation time: 1 hr 42 min 25 sec) 
Heartbeat CPU 2 instructions: 190000001 cycles: 209505245 heartbeat IPC: 0.813296 cumulative IPC: 0.838219 (Simulation time: 1 hr 42 min 47 sec) 
Heartbeat CPU 0 instructions: 330000000 cycles: 210576946 heartbeat IPC: 1.60763 cumulative IPC: 1.52194 (Simulation time: 1 hr 43 min 17 sec) 
Heartbeat CPU 7 instructions: 230000003 cycles: 213743561 heartbeat IPC: 1.02086 cumulative IPC: 0.99886 (Simulation time: 1 hr 44 min 46 sec) 
Heartbeat CPU 0 instructions: 340000000 cycles: 216652907 heartbeat IPC: 1.64583 cumulative IPC: 1.52562 (Simulation time: 1 hr 46 min 9 sec) 
Heartbeat CPU 4 instructions: 160000000 cycles: 217436575 heartbeat IPC: 0.482866 cumulative IPC: 0.663037 (Simulation time: 1 hr 46 min 30 sec) 
Heartbeat CPU 3 instructions: 130000003 cycles: 217587264 heartbeat IPC: 0.443461 cumulative IPC: 0.451575 (Simulation time: 1 hr 46 min 35 sec) 
Heartbeat CPU 5 instructions: 140000000 cycles: 217873921 heartbeat IPC: 0.505403 cumulative IPC: 0.582538 (Simulation time: 1 hr 46 min 42 sec) 
Heartbeat CPU 2 instructions: 200000000 cycles: 221398387 heartbeat IPC: 0.840821 cumulative IPC: 0.838367 (Simulation time: 1 hr 48 min 19 sec) 
Heartbeat CPU 1 instructions: 150000000 cycles: 221404712 heartbeat IPC: 0.594035 cumulative IPC: 0.595233 (Simulation time: 1 hr 48 min 19 sec) 
Heartbeat CPU 6 instructions: 160000000 cycles: 222638052 heartbeat IPC: 0.718836 cumulative IPC: 0.632611 (Simulation time: 1 hr 48 min 50 sec) 
Heartbeat CPU 0 instructions: 350000001 cycles: 224026618 heartbeat IPC: 1.35617 cumulative IPC: 1.51973 (Simulation time: 1 hr 49 min 29 sec) 
Heartbeat CPU 7 instructions: 240000000 cycles: 224375429 heartbeat IPC: 0.940568 cumulative IPC: 0.995943 (Simulation time: 1 hr 49 min 39 sec) 
Heartbeat CPU 4 instructions: 170000003 cycles: 227839447 heartbeat IPC: 0.961273 cumulative IPC: 0.677403 (Simulation time: 1 hr 51 min 15 sec) 
Heartbeat CPU 0 instructions: 360000000 cycles: 230268871 heartbeat IPC: 1.60199 cumulative IPC: 1.52208 (Simulation time: 1 hr 52 min 22 sec) 
Finished CPU 3 instructions: 100000002 cycles: 220949370 cumulative IPC: 0.452592 (Simulation time: 1 hr 53 min 31 sec) 

CPU 0 Branch Prediction Accuracy: 97.0815% MPKI: 3.99054

CPU 1 Branch Prediction Accuracy: 99.7658% MPKI: 0.256423

CPU 2 Branch Prediction Accuracy: 99.9299% MPKI: 0.0343885

CPU 3 Branch Prediction Accuracy: 99.8669% MPKI: 0.19226

CPU 4 Branch Prediction Accuracy: 99.8821% MPKI: 0.0610945

CPU 5 Branch Prediction Accuracy: 99.7344% MPKI: 0.102949

CPU 6 Branch Prediction Accuracy: 99.9665% MPKI: 0.0237795

CPU 7 Branch Prediction Accuracy: 99.1859% MPKI: 0.0541415

ChampSim completed all CPUs

Total Simulation Statistics (not including warmup)

CPU 0 cumulative IPC: 1.52271 instructions: 336441081 cycles: 220949370
L1D TOTAL     ACCESS:   93784014  HIT:   93783902  MISS:        112
L1D LOAD      ACCESS:   41149026  HIT:   41148982  MISS:         44
L1D RFO       ACCESS:   52634988  HIT:   52634920  MISS:         68
L1D PREFETCH  ACCESS:          0  HIT:          0  MISS:          0
L1D WRITEBACK ACCESS:          0  HIT:          0  MISS:          0
L1I TOTAL     ACCESS:   74122985  HIT:   74102740  MISS:      20245
L1I LOAD      ACCESS:   74122985  HIT:   74102740  MISS:      20245
L1I RFO       ACCESS:          0  HIT:          0  MISS:          0
L1I PREFETCH  ACCESS:          0  HIT:          0  MISS:          0
L1I WRITEBACK ACCESS:          0  HIT:          0  MISS:          0
L2C TOTAL     ACCESS:      20774  HIT:      19585  MISS:       1189
L2C LOAD      ACCESS:      20289  HIT:      19512  MISS:        777
L2C RFO       ACCESS:         68  HIT:          8  MISS:         60
L2C PREFETCH  ACCESS:        417  HIT:         65  MISS:        352
L2C WRITEBACK ACCESS:          0  HIT:          0  MISS:          0

L2C Best-offset prefetcher final stats
LLC TOTAL     ACCESS:       1191  HIT:          2  MISS:       1189
LLC LOAD      ACCESS:        657  HIT:          2  MISS:        655
LLC RFO       ACCESS:         60  HIT:          0  MISS:         60
LLC PREFETCH  ACCESS:        474  HIT:          0  MISS:        474
LLC WRITEBACK ACCESS:          0  HIT:          0  MISS:          0

CPU 1 cumulative IPC: 0.595241 instructions: 131518195 cycles: 220949370
L1D TOTAL     ACCESS:   26498380  HIT:   26470064  MISS:      28316
L1D LOAD      ACCESS:   19912987  HIT:   19884752  MISS:      28235
L1D RFO       ACCESS:    6585393  HIT:    6585312  MISS:         81
L1D PREFETCH  ACCESS:          0  HIT:          0  MISS:          0
L1D WRITEBACK ACCESS:          0  HIT:          0  MISS:          0
L1I TOTAL     ACCESS:   56643162  HIT:   56643162  MISS:          0
L1I LOAD      ACCESS:   56643162  HIT:   56643162  MISS:          0
L1I RFO       ACCESS:          0  HIT:          0  MISS:          0
L1I PREFETCH  ACCESS:          0  HIT:          0  MISS:          0
L1I WRITEBACK ACCESS:          0  HIT:          0  MISS:          0
L2C TOTAL     ACCESS:      84005  HIT:      56009  MISS:      27996
L2C LOAD      ACCESS:      28235  HIT:      27798  MISS:        437
L2C RFO       ACCESS:         81  HIT:         81  MISS:          0
L2C PREFETCH  ACCESS:      27559  HIT:          0  MISS:      27559
L2C WRITEBACK ACCESS:      28130  HIT:      28130  MISS:          0

L2C Best-offset prefetcher final stats
LLC TOTAL     ACCESS:      55802  HIT:          0  MISS:      55802
LLC LOAD      ACCESS:        437  HIT:          0  MISS:        437
LLC RFO       ACCESS:          0  HIT:          0  MISS:          0
LLC PREFETCH  ACCESS:      27559  HIT:          0  MISS:      27559
LLC WRITEBACK ACCESS:      27806  HIT:          0  MISS:      27806

CPU 2 cumulative IPC: 0.83857 instructions: 185281610 cycles: 220949370
L1D TOTAL     ACCESS:   55874287  HIT:   52405358  MISS:    3468929
L1D LOAD      ACCESS:   49665785  HIT:   46216392  MISS:    3449393
L1D RFO       ACCESS:    6208502  HIT:    6188966  MISS:      19536
L1D PREFETCH  ACCESS:          0  HIT:          0  MISS:          0
L1D WRITEBACK ACCESS:          0  HIT:          0  MISS:          0
L1I TOTAL     ACCESS:   46683379  HIT:   46683379  MISS:          0
L1I LOAD      ACCESS:   46683379  HIT:   46683379  MISS:          0
L1I RFO       ACCESS:          0  HIT:          0  MISS:          0
L1I PREFETCH  ACCESS:          0  HIT:          0  MISS:          0
L1I WRITEBACK ACCESS:          0  HIT:          0  MISS:          0
L2C TOTAL     ACCESS:    6249883  HIT:    3830364  MISS:    2419519
L2C LOAD      ACCESS:    3449239  HIT:    3105885  MISS:     343354
L2C RFO       ACCESS:      19536  HIT:          0  MISS:      19536
L2C PREFETCH  ACCESS:    2057257  HIT:        628  MISS:    2056629
L2C WRITEBACK ACCESS:     723851  HIT:     723851  MISS:          0

L2C Best-offset prefetcher final stats
LLC TOTAL     ACCESS:    2440687  HIT:     418461  MISS:    2022226
LLC LOAD      ACCESS:      91387  HIT:      16605  MISS:      74782
LLC RFO       ACCESS:      19536  HIT:        187  MISS:      19349
LLC PREFETCH  ACCESS:    2310190  HIT:     382111  MISS:    1928079
LLC WRITEBACK ACCESS:      19574  HIT:      19558  MISS:         16

CPU 3 cumulative IPC: 0.452592 instructions: 100000002 cycles: 220949370
L1D TOTAL     ACCESS:    8773873  HIT:    7147296  MISS:    1626577
L1D LOAD      ACCESS:    6041431  HIT:    4414855  MISS:    1626576
L1D RFO       ACCESS:    2732442  HIT:    2732441  MISS:          1
L1D PREFETCH  ACCESS:          0  HIT:          0  MISS:          0
L1D WRITEBACK ACCESS:          0  HIT:          0  MISS:          0
L1I TOTAL     ACCESS:   22361664  HIT:   22361660  MISS:          4
L1I LOAD      ACCESS:   22361664  HIT:   22361660  MISS:          4
L1I RFO       ACCESS:          0  HIT:          0  MISS:          0
L1I PREFETCH  ACCESS:          0  HIT:          0  MISS:          0
L1I WRITEBACK ACCESS:          0  HIT:          0  MISS:          0
L2C TOTAL     ACCESS:    2048534  HIT:     421615  MISS:    1626919
L2C LOAD      ACCESS:    1626578  HIT:     341799  MISS:    1284779
L2C RFO       ACCESS:          1  HIT:          0  MISS:          1
L2C PREFETCH  ACCESS:     342147  HIT:         61  MISS:     342086
L2C WRITEBACK ACCESS:      79808  HIT:      79755  MISS:         53

L2C Best-offset prefetcher final stats
LLC TOTAL     ACCESS:    1710701  HIT:      84605  MISS:    1626096
LLC LOAD      ACCESS:      63585  HIT:       2577  MISS:      61008
LLC RFO       ACCESS:          1  HIT:          0  MISS:          1
LLC PREFETCH  ACCESS:    1565461  HIT:        381  MISS:    1565080
LLC WRITEBACK ACCESS:      81654  HIT:      81647  MISS:          7

CPU 4 cumulative IPC: 0.680393 instructions: 150332517 cycles: 220949370
L1D TOTAL     ACCESS:   38764753  HIT:   35477436  MISS:    3287317
L1D LOAD      ACCESS:   36258201  HIT:   33981275  MISS:    2276926
L1D RFO       ACCESS:    2506552  HIT:    1496161  MISS:    1010391
L1D PREFETCH  ACCESS:          0  HIT:          0  MISS:          0
L1D WRITEBACK ACCESS:          0  HIT:          0  MISS:          0
L1I TOTAL     ACCESS:   42194920  HIT:   42194920  MISS:          0
L1I LOAD      ACCESS:   42194920  HIT:   42194920  MISS:          0
L1I RFO       ACCESS:          0  HIT:          0  MISS:          0
L1I PREFETCH  ACCESS:          0  HIT:          0  MISS:          0
L1I WRITEBACK ACCESS:          0  HIT:          0  MISS:          0
L2C TOTAL     ACCESS:    6100803  HIT:    2751276  MISS:    3349527
L2C LOAD      ACCESS:    2276925  HIT:    1733339  MISS:     543586
L2C RFO       ACCESS:    1010391  HIT:          6  MISS:    1010385
L2C PREFETCH  ACCESS:    1796924  HIT:       1372  MISS:    1795552
L2C WRITEBACK ACCESS:    1016563  HIT:    1016559  MISS:          4

L2C Best-offset prefetcher final stats
LLC TOTAL     ACCESS:    4463159  HIT:    1103593  MISS:    3359566
LLC LOAD      ACCESS:     400216  HIT:      94625  MISS:     305591
LLC RFO       ACCESS:    1010386  HIT:          0  MISS:    1010386
LLC PREFETCH  ACCESS:    2043688  HIT:        122  MISS:    2043566
LLC WRITEBACK ACCESS:    1008869  HIT:    1008846  MISS:         23

CPU 5 cumulative IPC: 0.583652 instructions: 128957585 cycles: 220949370
L1D TOTAL     ACCESS:   28827834  HIT:   24715079  MISS:    4112755
L1D LOAD      ACCESS:   24677146  HIT:   21483216  MISS:    3193930
L1D RFO       ACCESS:    4150688  HIT:    3231863  MISS:     918825
L1D PREFETCH  ACCESS:          0  HIT:          0  MISS:          0
L1D WRITEBACK ACCESS:          0  HIT:          0  MISS:          0
L1I TOTAL     ACCESS:   30010483  HIT:   30010068  MISS:        415
L1I LOAD      ACCESS:   30010483  HIT:   30010068  MISS:        415
L1I RFO       ACCESS:          0  HIT:          0  MISS:          0
L1I PREFETCH  ACCESS:          0  HIT:          0  MISS:          0
L1I WRITEBACK ACCESS:          0  HIT:          0  MISS:          0
L2C TOTAL     ACCESS:    6967831  HIT:    3539752  MISS:    3428079
L2C LOAD      ACCESS:    3194322  HIT:    2312113  MISS:     882209
L2C RFO       ACCESS:     918825  HIT:         11  MISS:     918814
L2C PREFETCH  ACCESS:    1628031  HIT:       1041  MISS:    1626990
L2C WRITEBACK ACCESS:    1226653  HIT:    1226587  MISS:         66

L2C Best-offset prefetcher final stats
LLC TOTAL     ACCESS:    4787182  HIT:    1363302  MISS:    3423880
LLC LOAD      ACCESS:     453771  HIT:     134745  MISS:     319026
LLC RFO       ACCESS:     918814  HIT:        862  MISS:     917952
LLC PREFETCH  ACCESS:    2195569  HIT:       8708  MISS:    2186861
LLC WRITEBACK ACCESS:    1219028  HIT:    1218987  MISS:         41

CPU 6 cumulative IPC: 0.636527 instructions: 140640287 cycles: 220949371
L1D TOTAL     ACCESS:   35320911  HIT:   34830856  MISS:     490055
L1D LOAD      ACCESS:   21771333  HIT:   21477030  MISS:     294303
L1D RFO       ACCESS:   13549578  HIT:   13353826  MISS:     195752
L1D PREFETCH  ACCESS:          0  HIT:          0  MISS:          0
L1D WRITEBACK ACCESS:          0  HIT:          0  MISS:          0
L1I TOTAL     ACCESS:   56866355  HIT:   56866178  MISS:        177
L1I LOAD      ACCESS:   56866355  HIT:   56866178  MISS:        177
L1I RFO       ACCESS:          0  HIT:          0  MISS:          0
L1I PREFETCH  ACCESS:          0  HIT:          0  MISS:          0
L1I WRITEBACK ACCESS:          0  HIT:          0  MISS:          0
L2C TOTAL     ACCESS:     826934  HIT:     333118  MISS:     493816
L2C LOAD      ACCESS:     294480  HIT:     135978  MISS:     158502
L2C RFO       ACCESS:     195751  HIT:         16  MISS:     195735
L2C PREFETCH  ACCESS:     140932  HIT:       1768  MISS:     139164
L2C WRITEBACK ACCESS:     195771  HIT:     195356  MISS:        415

L2C Best-offset prefetcher final stats
LLC TOTAL     ACCESS:     689145  HIT:     152453  MISS:     536692
LLC LOAD      ACCESS:      28968  HIT:          2  MISS:      28966
LLC RFO       ACCESS:     195735  HIT:          0  MISS:     195735
LLC PREFETCH  ACCESS:     268700  HIT:          1  MISS:     268699
LLC WRITEBACK ACCESS:     195742  HIT:     152450  MISS:      43292

CPU 7 cumulative IPC: 0.99294 instructions: 219389383 cycles: 220949371
L1D TOTAL     ACCESS:   62104594  HIT:   58408945  MISS:    3695649
L1D LOAD      ACCESS:   51316752  HIT:   47621103  MISS:    3695649
L1D RFO       ACCESS:   10787842  HIT:   10787842  MISS:          0
L1D PREFETCH  ACCESS:          0  HIT:          0  MISS:          0
L1D WRITEBACK ACCESS:          0  HIT:          0  MISS:          0
L1I TOTAL     ACCESS:   46713504  HIT:   46713504  MISS:          0
L1I LOAD      ACCESS:   46713504  HIT:   46713504  MISS:          0
L1I RFO       ACCESS:          0  HIT:          0  MISS:          0
L1I PREFETCH  ACCESS:          0  HIT:          0  MISS:          0
L1I WRITEBACK ACCESS:          0  HIT:          0  MISS:          0
L2C TOTAL     ACCESS:    8064942  HIT:    4318572  MISS:    3746370
L2C LOAD      ACCESS:    3695649  HIT:    3155524  MISS:     540125
L2C RFO       ACCESS:          0  HIT:          0  MISS:          0
L2C PREFETCH  ACCESS:    3223660  HIT:      17990  MISS:    3205670
L2C WRITEBACK ACCESS:    1145633  HIT:    1145058  MISS:        575

L2C Best-offset prefetcher final stats
LLC TOTAL     ACCESS:    4979890  HIT:    1229597  MISS:    3750293
LLC LOAD      ACCESS:     423225  HIT:      88764  MISS:     334461
LLC RFO       ACCESS:          0  HIT:          0  MISS:          0
LLC PREFETCH  ACCESS:    3416814  HIT:       1118  MISS:    3415696
LLC WRITEBACK ACCESS:    1139851  HIT:    1139715  MISS:        136

Region of Interest Statistics

CPU 0 cumulative IPC: 1.58373 instructions: 100000000 cycles: 63142239
L1D TOTAL     ACCESS:   28269234  HIT:   28269134  MISS:        100
L1D LOAD      ACCESS:   12174278  HIT:   12174245  MISS:         33
L1D RFO       ACCESS:   16094956  HIT:   16094889  MISS:         67
L1D PREFETCH  ACCESS:          0  HIT:          0  MISS:          0
L1D WRITEBACK ACCESS:          0  HIT:          0  MISS:          0
L1D PREFETCH  REQUESTED:          0  ISSUED:          0  USEFUL:          0  USELESS:          0
L1I TOTAL     ACCESS:   21786595  HIT:   21785383  MISS:       1212
L1I LOAD      ACCESS:   21786595  HIT:   21785383  MISS:       1212
L1I RFO       ACCESS:          0  HIT:          0  MISS:          0
L1I PREFETCH  ACCESS:          0  HIT:          0  MISS:          0
L1I WRITEBACK ACCESS:          0  HIT:          0  MISS:          0
L1I PREFETCH  REQUESTED:          0  ISSUED:          0  USEFUL:          0  USELESS:          0
L2C TOTAL     ACCESS:       1688  HIT:        590  MISS:       1098
L2C LOAD      ACCESS:       1245  HIT:        532  MISS:        713
L2C RFO       ACCESS:         67  HIT:          8  MISS:         59
L2C PREFETCH  ACCESS:        376  HIT:         50  MISS:        326
L2C WRITEBACK ACCESS:          0  HIT:          0  MISS:          0
L2C PREFETCH  REQUESTED:       1393  ISSUED:       1393  USEFUL:        461  USELESS:          0
LLC TOTAL     ACCESS:       1100  HIT:          2  MISS:       1098
LLC LOAD      ACCESS:        602  HIT:          2  MISS:        600
LLC RFO       ACCESS:         59  HIT:          0  MISS:         59
LLC PREFETCH  ACCESS:        439  HIT:          0  MISS:        439
LLC WRITEBACK ACCESS:          0  HIT:          0  MISS:          0
LLC PREFETCH  REQUESTED:          0  ISSUED:          0  USEFUL:     320008  USELESS:   13447265
Major fault: 0 Minor fault: 49

CPU 1 cumulative IPC: 0.595257 instructions: 100000002 cycles: 167994680
L1D TOTAL     ACCESS:   20149376  HIT:   20127832  MISS:      21544
L1D LOAD      ACCESS:   15141567  HIT:   15120083  MISS:      21484
L1D RFO       ACCESS:    5007809  HIT:    5007749  MISS:         60
L1D PREFETCH  ACCESS:          0  HIT:          0  MISS:          0
L1D WRITEBACK ACCESS:          0  HIT:          0  MISS:          0
L1D PREFETCH  REQUESTED:          0  ISSUED:          0  USEFUL:          0  USELESS:          0
L1I TOTAL     ACCESS:   43087880  HIT:   43087880  MISS:          0
L1I LOAD      ACCESS:   43087880  HIT:   43087880  MISS:          0
L1I RFO       ACCESS:          0  HIT:          0  MISS:          0
L1I PREFETCH  ACCESS:          0  HIT:          0  MISS:          0
L1I WRITEBACK ACCESS:          0  HIT:          0  MISS:          0
L1I PREFETCH  REQUESTED:          0  ISSUED:          0  USEFUL:          0  USELESS:          0
L2C TOTAL     ACCESS:      63919  HIT:      42615  MISS:      21304
L2C LOAD      ACCESS:      21484  HIT:      21152  MISS:        332
L2C RFO       ACCESS:         60  HIT:         60  MISS:          0
L2C PREFETCH  ACCESS:      20972  HIT:          0  MISS:      20972
L2C WRITEBACK ACCESS:      21403  HIT:      21403  MISS:          0
L2C PREFETCH  REQUESTED:      32931  ISSUED:      32931  USEFUL:      32860  USELESS:         40
LLC TOTAL     ACCESS:      42418  HIT:          0  MISS:      42418
LLC LOAD      ACCESS:        332  HIT:          0  MISS:        332
LLC RFO       ACCESS:          0  HIT:          0  MISS:          0
LLC PREFETCH  ACCESS:      20972  HIT:          0  MISS:      20972
LLC WRITEBACK ACCESS:      21114  HIT:          0  MISS:      21114
LLC PREFETCH  REQUESTED:          0  ISSUED:          0  USEFUL:     320008  USELESS:   13447265
Major fault: 0 Minor fault: 547

CPU 2 cumulative IPC: 0.842346 instructions: 100000002 cycles: 118716126
L1D TOTAL     ACCESS:   30157033  HIT:   28284826  MISS:    1872207
L1D LOAD      ACCESS:   26806255  HIT:   24944597  MISS:    1861658
L1D RFO       ACCESS:    3350778  HIT:    3340229  MISS:      10549
L1D PREFETCH  ACCESS:          0  HIT:          0  MISS:          0
L1D WRITEBACK ACCESS:          0  HIT:          0  MISS:          0
L1D PREFETCH  REQUESTED:          0  ISSUED:          0  USEFUL:          0  USELESS:          0
L1I TOTAL     ACCESS:   25196922  HIT:   25196922  MISS:          0
L1I LOAD      ACCESS:   25196922  HIT:   25196922  MISS:          0
L1I RFO       ACCESS:          0  HIT:          0  MISS:          0
L1I PREFETCH  ACCESS:          0  HIT:          0  MISS:          0
L1I WRITEBACK ACCESS:          0  HIT:          0  MISS:          0
L1I PREFETCH  REQUESTED:          0  ISSUED:          0  USEFUL:          0  USELESS:          0
L2C TOTAL     ACCESS:    3375767  HIT:    2067585  MISS:    1308182
L2C LOAD      ACCESS:    1861573  HIT:    1676592  MISS:     184981
L2C RFO       ACCESS:      10549  HIT:          0  MISS:      10549
L2C PREFETCH  ACCESS:    1112996  HIT:        344  MISS:    1112652
L2C WRITEBACK ACCESS:     390649  HIT:     390649  MISS:          0
L2C PREFETCH  REQUESTED:    2622263  ISSUED:    2622263  USEFUL:    2316049  USELESS:      45418
LLC TOTAL     ACCESS:    1319793  HIT:     226376  MISS:    1093417
LLC LOAD      ACCESS:      53965  HIT:       9897  MISS:      44068
LLC RFO       ACCESS:      10549  HIT:        101  MISS:      10448
LLC PREFETCH  ACCESS:    1244709  HIT:     205815  MISS:    1038894
LLC WRITEBACK ACCESS:      10570  HIT:      10563  MISS:          7
LLC PREFETCH  REQUESTED:          0  ISSUED:          0  USEFUL:     320008  USELESS:   13447265
Major fault: 0 Minor fault: 68972

CPU 3 cumulative IPC: 0.452592 instructions: 100000002 cycles: 220949370
L1D TOTAL     ACCESS:    8773873  HIT:    7147296  MISS:    1626577
L1D LOAD      ACCESS:    6041431  HIT:    4414855  MISS:    1626576
L1D RFO       ACCESS:    2732442  HIT:    2732441  MISS:          1
L1D PREFETCH  ACCESS:          0  HIT:          0  MISS:          0
L1D WRITEBACK ACCESS:          0  HIT:          0  MISS:          0
L1D PREFETCH  REQUESTED:          0  ISSUED:          0  USEFUL:          0  USELESS:          0
L1I TOTAL     ACCESS:   22361664  HIT:   22361660  MISS:          4
L1I LOAD      ACCESS:   22361664  HIT:   22361660  MISS:          4
L1I RFO       ACCESS:          0  HIT:          0  MISS:          0
L1I PREFETCH  ACCESS:          0  HIT:          0  MISS:          0
L1I WRITEBACK ACCESS:          0  HIT:          0  MISS:          0
L1I PREFETCH  REQUESTED:          0  ISSUED:          0  USEFUL:          0  USELESS:          0
L2C TOTAL     ACCESS:    2048534  HIT:     421615  MISS:    1626919
L2C LOAD      ACCESS:    1626578  HIT:     341799  MISS:    1284779
L2C RFO       ACCESS:          1  HIT:          0  MISS:          1
L2C PREFETCH  ACCESS:     342147  HIT:         61  MISS:     342086
L2C WRITEBACK ACCESS:      79808  HIT:      79755  MISS:         53
L2C PREFETCH  REQUESTED:    2564358  ISSUED:    2564358  USEFUL:    1302646  USELESS:        777
LLC TOTAL     ACCESS:    1710701  HIT:      84605  MISS:    1626096
LLC LOAD      ACCESS:      63585  HIT:       2577  MISS:      61008
LLC RFO       ACCESS:          1  HIT:          0  MISS:          1
LLC PREFETCH  ACCESS:    1565461  HIT:        381  MISS:    1565080
LLC WRITEBACK ACCESS:      81654  HIT:      81647  MISS:          7
LLC PREFETCH  REQUESTED:          0  ISSUED:          0  USEFUL:     320008  USELESS:   13447265
Major fault: 0 Minor fault: 41137

CPU 4 cumulative IPC: 0.678282 instructions: 100000000 cycles: 147431350
L1D TOTAL     ACCESS:   25849615  HIT:   23667831  MISS:    2181784
L1D LOAD      ACCESS:   24200059  HIT:   22686644  MISS:    1513415
L1D RFO       ACCESS:    1649556  HIT:     981187  MISS:     668369
L1D PREFETCH  ACCESS:          0  HIT:          0  MISS:          0
L1D WRITEBACK ACCESS:          0  HIT:          0  MISS:          0
L1D PREFETCH  REQUESTED:          0  ISSUED:          0  USEFUL:          0  USELESS:          0
L1I TOTAL     ACCESS:   28062186  HIT:   28062186  MISS:          0
L1I LOAD      ACCESS:   28062186  HIT:   28062186  MISS:          0
L1I RFO       ACCESS:          0  HIT:          0  MISS:          0
L1I PREFETCH  ACCESS:          0  HIT:          0  MISS:          0
L1I WRITEBACK ACCESS:          0  HIT:          0  MISS:          0
L1I PREFETCH  REQUESTED:          0  ISSUED:          0  USEFUL:          0  USELESS:          0
L2C TOTAL     ACCESS:    4067940  HIT:    1835932  MISS:    2232008
L2C LOAD      ACCESS:    1513415  HIT:    1162684  MISS:     350731
L2C RFO       ACCESS:     668369  HIT:          4  MISS:     668365
L2C PREFETCH  ACCESS:    1213540  HIT:        631  MISS:    1212909
L2C WRITEBACK ACCESS:     672616  HIT:     672613  MISS:          3
L2C PREFETCH  REQUESTED:    2395971  ISSUED:    2395971  USEFUL:    2053399  USELESS:      90514
LLC TOTAL     ACCESS:    2974221  HIT:     734724  MISS:    2239497
LLC LOAD      ACCESS:     299775  HIT:      66254  MISS:     233521
LLC RFO       ACCESS:     668365  HIT:          0  MISS:     668365
LLC PREFETCH  ACCESS:    1337685  HIT:         87  MISS:    1337598
LLC WRITEBACK ACCESS:     668396  HIT:     668383  MISS:         13
LLC PREFETCH  REQUESTED:          0  ISSUED:          0  USEFUL:     320008  USELESS:   13447265
Major fault: 0 Minor fault: 36439

CPU 5 cumulative IPC: 0.581269 instructions: 100000001 cycles: 172037506
L1D TOTAL     ACCESS:   21303943  HIT:   18343584  MISS:    2960359
L1D LOAD      ACCESS:   18030159  HIT:   15823224  MISS:    2206935
L1D RFO       ACCESS:    3273784  HIT:    2520360  MISS:     753424
L1D PREFETCH  ACCESS:          0  HIT:          0  MISS:          0
L1D WRITEBACK ACCESS:          0  HIT:          0  MISS:          0
L1D PREFETCH  REQUESTED:          0  ISSUED:          0  USEFUL:          0  USELESS:          0
L1I TOTAL     ACCESS:   23009587  HIT:   23009300  MISS:        287
L1I LOAD      ACCESS:   23009587  HIT:   23009300  MISS:        287
L1I RFO       ACCESS:          0  HIT:          0  MISS:          0
L1I PREFETCH  ACCESS:          0  HIT:          0  MISS:          0
L1I WRITEBACK ACCESS:          0  HIT:          0  MISS:          0
L1I PREFETCH  REQUESTED:          0  ISSUED:          0  USEFUL:          0  USELESS:          0
L2C TOTAL     ACCESS:    4986182  HIT:    2477643  MISS:    2508539
L2C LOAD      ACCESS:    2207204  HIT:    1551679  MISS:     655525
L2C RFO       ACCESS:     753424  HIT:          7  MISS:     753417
L2C PREFETCH  ACCESS:    1100189  HIT:        642  MISS:    1099547
L2C WRITEBACK ACCESS:     925365  HIT:     925315  MISS:         50
L2C PREFETCH  REQUESTED:    2703484  ISSUED:    2703484  USEFUL:    2031474  USELESS:      80807
LLC TOTAL     ACCESS:    3523531  HIT:    1017186  MISS:    2506345
LLC LOAD      ACCESS:     338038  HIT:      90615  MISS:     247423
LLC RFO       ACCESS:     753417  HIT:        552  MISS:     752865
LLC PREFETCH  ACCESS:    1512236  HIT:       6209  MISS:    1506027
LLC WRITEBACK ACCESS:     919840  HIT:     919810  MISS:         30
LLC PREFETCH  REQUESTED:          0  ISSUED:          0  USEFUL:     320008  USELESS:   13447265
Major fault: 0 Minor fault: 38739

CPU 6 cumulative IPC: 0.608404 instructions: 100000001 cycles: 164364464
L1D TOTAL     ACCESS:   25050847  HIT:   24607874  MISS:     442973
L1D LOAD      ACCESS:   15502698  HIT:   15236726  MISS:     265972
L1D RFO       ACCESS:    9548149  HIT:    9371148  MISS:     177001
L1D PREFETCH  ACCESS:          0  HIT:          0  MISS:          0
L1D WRITEBACK ACCESS:          0  HIT:          0  MISS:          0
L1D PREFETCH  REQUESTED:          0  ISSUED:          0  USEFUL:          0  USELESS:          0
L1I TOTAL     ACCESS:   40234280  HIT:   40234103  MISS:        177
L1I LOAD      ACCESS:   40234280  HIT:   40234103  MISS:        177
L1I RFO       ACCESS:          0  HIT:          0  MISS:          0
L1I PREFETCH  ACCESS:          0  HIT:          0  MISS:          0
L1I WRITEBACK ACCESS:          0  HIT:          0  MISS:          0
L1I PREFETCH  REQUESTED:          0  ISSUED:          0  USEFUL:          0  USELESS:          0
L2C TOTAL     ACCESS:     739336  HIT:     292885  MISS:     446451
L2C LOAD      ACCESS:     266149  HIT:     114493  MISS:     151656
L2C RFO       ACCESS:     177000  HIT:         16  MISS:     176984
L2C PREFETCH  ACCESS:     119164  HIT:       1766  MISS:     117398
L2C WRITEBACK ACCESS:     177023  HIT:     176610  MISS:        413
L2C PREFETCH  REQUESTED:     308356  ISSUED:     308356  USEFUL:     154222  USELESS:       3382
LLC TOTAL     ACCESS:     623077  HIT:     147102  MISS:     475975
LLC LOAD      ACCESS:      28098  HIT:          2  MISS:      28096
LLC RFO       ACCESS:     176984  HIT:          0  MISS:     176984
LLC PREFETCH  ACCESS:     240958  HIT:          1  MISS:     240957
LLC WRITEBACK ACCESS:     177037  HIT:     147099  MISS:      29938
LLC PREFETCH  REQUESTED:          0  ISSUED:          0  USEFUL:     320008  USELESS:   13447265
Major fault: 0 Minor fault: 5969

CPU 7 cumulative IPC: 0.977034 instructions: 100000001 cycles: 102350570
L1D TOTAL     ACCESS:   28306866  HIT:   26620525  MISS:    1686341
L1D LOAD      ACCESS:   23389645  HIT:   21703304  MISS:    1686341
L1D RFO       ACCESS:    4917221  HIT:    4917221  MISS:          0
L1D PREFETCH  ACCESS:          0  HIT:          0  MISS:          0
L1D WRITEBACK ACCESS:          0  HIT:          0  MISS:          0
L1D PREFETCH  REQUESTED:          0  ISSUED:          0  USEFUL:          0  USELESS:          0
L1I TOTAL     ACCESS:   21299033  HIT:   21299033  MISS:          0
L1I LOAD      ACCESS:   21299033  HIT:   21299033  MISS:          0
L1I RFO       ACCESS:          0  HIT:          0  MISS:          0
L1I PREFETCH  ACCESS:          0  HIT:          0  MISS:          0
L1I WRITEBACK ACCESS:          0  HIT:          0  MISS:          0
L1I PREFETCH  REQUESTED:          0  ISSUED:          0  USEFUL:          0  USELESS:          0
L2C TOTAL     ACCESS:    3671638  HIT:    1964389  MISS:    1707249
L2C LOAD      ACCESS:    1686341  HIT:    1433495  MISS:     252846
L2C RFO       ACCESS:          0  HIT:          0  MISS:          0
L2C PREFETCH  ACCESS:    1463052  HIT:       8936  MISS:    1454116
L2C WRITEBACK ACCESS:     522245  HIT:     521958  MISS:        287
L2C PREFETCH  REQUESTED:    3894799  ISSUED:    3894799  USEFUL:    3496796  USELESS:     165471
LLC TOTAL     ACCESS:    2270855  HIT:     561791  MISS:    1709064
LLC LOAD      ACCESS:     197243  HIT:      41761  MISS:     155482
LLC RFO       ACCESS:          0  HIT:          0  MISS:          0
LLC PREFETCH  ACCESS:    1554072  HIT:        553  MISS:    1553519
LLC WRITEBACK ACCESS:     519540  HIT:     519477  MISS:         63
LLC PREFETCH  REQUESTED:          0  ISSUED:          0  USEFUL:     320008  USELESS:   13447265
Major fault: 0 Minor fault: 54148

L2C Best-offset prefetcher final stats

L2C Best-offset prefetcher final stats

L2C Best-offset prefetcher final stats

L2C Best-offset prefetcher final stats

L2C Best-offset prefetcher final stats

L2C Best-offset prefetcher final stats

L2C Best-offset prefetcher final stats

L2C Best-offset prefetcher final stats

DRAM Statistics
 CHANNEL 0
 RQ ROW_BUFFER_HIT:    3355686  ROW_BUFFER_MISS:    3994765
 DBUS_CONGESTED:   13799710
 WQ ROW_BUFFER_HIT:     124024  ROW_BUFFER_MISS:    1732163  FULL:          0

 CHANNEL 1
 RQ ROW_BUFFER_HIT:    3350156  ROW_BUFFER_MISS:    4003810
 DBUS_CONGESTED:   13799710
 WQ ROW_BUFFER_HIT:     124384  ROW_BUFFER_MISS:    1731736  FULL:          0

 AVG_CONGESTED_CYCLE: 13
