
*** ChampSim Multicore Out-of-Order Simulator ***

Warmup Instructions: 20000000
Simulation Instructions: 100000000
Number of CPUs: 8
LLC sets: 16384
LLC ways: 16
Off-chip DRAM Size: 8192 MB Channels: 2 Width: 64-bit Data Rate: 1600 MT/s

CPU 0 runs /scratch/user/djimenez/champsim-traces/speccpu2017/xz/644.nab_s/644.nab_s-9322B.champsimtrace.xz
CPU 1 runs /scratch/user/djimenez/champsim-traces/speccpu2017/xz/605.mcf_s/605.mcf_s-1152B.champsimtrace.xz
CPU 2 runs /scratch/user/djimenez/champsim-traces/speccpu2017/xz/627.cam4_s/627.cam4_s-573B.champsimtrace.xz
CPU 3 runs /scratch/user/djimenez/champsim-traces/speccpu2017/xz/638.imagick_s/638.imagick_s-4128B.champsimtrace.xz
CPU 4 runs /scratch/user/djimenez/champsim-traces/speccpu2017/xz/648.exchange2_s/648.exchange2_s-1511B.champsimtrace.xz
CPU 5 runs /scratch/user/djimenez/champsim-traces/speccpu2017/xz/625.x264_s/625.x264_s-39B.champsimtrace.xz
CPU 6 runs /scratch/user/djimenez/champsim-traces/speccpu2017/xz/628.pop2_s/628.pop2_s-17B.champsimtrace.xz
CPU 7 runs /scratch/user/djimenez/champsim-traces/speccpu2017/xz/600.perlbench_s/600.perlbench_s-1273B.champsimtrace.xz
L2C Best-offset prefetcher
L2C Best-offset prefetcher
L2C Best-offset prefetcher
L2C Best-offset prefetcher
L2C Best-offset prefetcher
L2C Best-offset prefetcher
L2C Best-offset prefetcher
L2C Best-offset prefetcher
Heartbeat CPU 3 instructions: 10000002 cycles: 3808938 heartbeat IPC: 2.6254 cumulative IPC: 2.6254 (Simulation time: 0 hr 2 min 44 sec) 
Heartbeat CPU 6 instructions: 10000002 cycles: 4120623 heartbeat IPC: 2.42682 cumulative IPC: 2.42682 (Simulation time: 0 hr 2 min 58 sec) 
Heartbeat CPU 5 instructions: 10000003 cycles: 4178832 heartbeat IPC: 2.39301 cumulative IPC: 2.39301 (Simulation time: 0 hr 3 min 0 sec) 
Heartbeat CPU 4 instructions: 10000001 cycles: 4340493 heartbeat IPC: 2.30389 cumulative IPC: 2.30389 (Simulation time: 0 hr 3 min 8 sec) 
Heartbeat CPU 2 instructions: 10000003 cycles: 4432045 heartbeat IPC: 2.2563 cumulative IPC: 2.2563 (Simulation time: 0 hr 3 min 12 sec) 
Heartbeat CPU 0 instructions: 10000001 cycles: 5496247 heartbeat IPC: 1.81942 cumulative IPC: 1.81942 (Simulation time: 0 hr 3 min 58 sec) 
Heartbeat CPU 7 instructions: 10000003 cycles: 5916859 heartbeat IPC: 1.69009 cumulative IPC: 1.69009 (Simulation time: 0 hr 4 min 16 sec) 
Heartbeat CPU 1 instructions: 10000001 cycles: 6539359 heartbeat IPC: 1.5292 cumulative IPC: 1.5292 (Simulation time: 0 hr 4 min 44 sec) 
Heartbeat CPU 3 instructions: 20000000 cycles: 7617384 heartbeat IPC: 2.62574 cumulative IPC: 2.62557 (Simulation time: 0 hr 5 min 32 sec) 
Heartbeat CPU 6 instructions: 20000000 cycles: 8232712 heartbeat IPC: 2.43185 cumulative IPC: 2.42933 (Simulation time: 0 hr 5 min 59 sec) 
Heartbeat CPU 5 instructions: 20000000 cycles: 8374509 heartbeat IPC: 2.3834 cumulative IPC: 2.3882 (Simulation time: 0 hr 6 min 6 sec) 
Heartbeat CPU 2 instructions: 20000000 cycles: 8602290 heartbeat IPC: 2.39794 cumulative IPC: 2.32496 (Simulation time: 0 hr 6 min 16 sec) 
Heartbeat CPU 4 instructions: 20000000 cycles: 8623055 heartbeat IPC: 2.33505 cumulative IPC: 2.31936 (Simulation time: 0 hr 6 min 17 sec) 
Heartbeat CPU 0 instructions: 20000000 cycles: 10992125 heartbeat IPC: 1.81955 cumulative IPC: 1.81948 (Simulation time: 0 hr 8 min 9 sec) 
Heartbeat CPU 3 instructions: 30000000 cycles: 11425445 heartbeat IPC: 2.62601 cumulative IPC: 0.875239 (Simulation time: 0 hr 8 min 30 sec) 
Heartbeat CPU 7 instructions: 20000000 cycles: 11738429 heartbeat IPC: 1.71775 cumulative IPC: 1.70381 (Simulation time: 0 hr 8 min 45 sec) 
Heartbeat CPU 6 instructions: 30000002 cycles: 12343496 heartbeat IPC: 2.43263 cumulative IPC: 0.810143 (Simulation time: 0 hr 9 min 14 sec) 
Heartbeat CPU 5 instructions: 30000000 cycles: 12479069 heartbeat IPC: 2.43631 cumulative IPC: 0.801342 (Simulation time: 0 hr 9 min 20 sec) 
Heartbeat CPU 4 instructions: 30000000 cycles: 12762412 heartbeat IPC: 2.41583 cumulative IPC: 0.783551 (Simulation time: 0 hr 9 min 34 sec) 
Heartbeat CPU 2 instructions: 30000001 cycles: 12770202 heartbeat IPC: 2.39928 cumulative IPC: 0.783073 (Simulation time: 0 hr 9 min 34 sec) 
Heartbeat CPU 1 instructions: 20000000 cycles: 13080431 heartbeat IPC: 1.5288 cumulative IPC: 1.529 (Simulation time: 0 hr 9 min 49 sec) 

Warmup complete CPU 0 instructions: 23796229 cycles: 13080433 (Simulation time: 0 hr 9 min 49 sec) 
Warmup complete CPU 1 instructions: 20000004 cycles: 13080433 (Simulation time: 0 hr 9 min 49 sec) 
Warmup complete CPU 2 instructions: 30746815 cycles: 13080432 (Simulation time: 0 hr 9 min 49 sec) 
Warmup complete CPU 3 instructions: 34346241 cycles: 13080432 (Simulation time: 0 hr 9 min 49 sec) 
Warmup complete CPU 4 instructions: 30771713 cycles: 13080432 (Simulation time: 0 hr 9 min 49 sec) 
Warmup complete CPU 5 instructions: 31555591 cycles: 13080432 (Simulation time: 0 hr 9 min 49 sec) 
Warmup complete CPU 6 instructions: 31784914 cycles: 13080432 (Simulation time: 0 hr 9 min 49 sec) 
Warmup complete CPU 7 instructions: 22283811 cycles: 13080432 (Simulation time: 0 hr 9 min 49 sec) 

Heartbeat CPU 3 instructions: 40000000 cycles: 16446550 heartbeat IPC: 1.99159 cumulative IPC: 1.67961 (Simulation time: 0 hr 11 min 34 sec) 
Heartbeat CPU 4 instructions: 40000000 cycles: 18918377 heartbeat IPC: 1.62444 cumulative IPC: 1.58074 (Simulation time: 0 hr 12 min 52 sec) 
Heartbeat CPU 5 instructions: 40000000 cycles: 18971556 heartbeat IPC: 1.54024 cumulative IPC: 1.43341 (Simulation time: 0 hr 12 min 53 sec) 
Heartbeat CPU 6 instructions: 40000000 cycles: 19934346 heartbeat IPC: 1.31738 cumulative IPC: 1.1986 (Simulation time: 0 hr 13 min 24 sec) 
Heartbeat CPU 7 instructions: 30000002 cycles: 20658439 heartbeat IPC: 1.12108 cumulative IPC: 1.01823 (Simulation time: 0 hr 13 min 46 sec) 
Heartbeat CPU 2 instructions: 40000000 cycles: 21896820 heartbeat IPC: 1.0957 cumulative IPC: 1.04954 (Simulation time: 0 hr 14 min 24 sec) 
Heartbeat CPU 3 instructions: 50000000 cycles: 22394431 heartbeat IPC: 1.68127 cumulative IPC: 1.68067 (Simulation time: 0 hr 14 min 39 sec) 
Heartbeat CPU 0 instructions: 30000003 cycles: 23806668 heartbeat IPC: 0.780364 cumulative IPC: 0.578374 (Simulation time: 0 hr 15 min 23 sec) 
Heartbeat CPU 4 instructions: 50000002 cycles: 25293714 heartbeat IPC: 1.56854 cumulative IPC: 1.57438 (Simulation time: 0 hr 16 min 6 sec) 
Heartbeat CPU 5 instructions: 50000003 cycles: 26071412 heartbeat IPC: 1.40848 cumulative IPC: 1.41979 (Simulation time: 0 hr 16 min 28 sec) 
Heartbeat CPU 6 instructions: 50000001 cycles: 28255017 heartbeat IPC: 1.20183 cumulative IPC: 1.20037 (Simulation time: 0 hr 17 min 31 sec) 
Heartbeat CPU 3 instructions: 60000000 cycles: 28342756 heartbeat IPC: 1.68115 cumulative IPC: 1.68086 (Simulation time: 0 hr 17 min 33 sec) 
Heartbeat CPU 4 instructions: 60000000 cycles: 31718806 heartbeat IPC: 1.5564 cumulative IPC: 1.56818 (Simulation time: 0 hr 19 min 11 sec) 
Heartbeat CPU 7 instructions: 40000000 cycles: 32836922 heartbeat IPC: 0.82112 cumulative IPC: 0.896728 (Simulation time: 0 hr 19 min 44 sec) 
Heartbeat CPU 5 instructions: 60000000 cycles: 33110094 heartbeat IPC: 1.42072 cumulative IPC: 1.42011 (Simulation time: 0 hr 19 min 52 sec) 
Heartbeat CPU 2 instructions: 50000001 cycles: 33733824 heartbeat IPC: 0.844808 cumulative IPC: 0.932205 (Simulation time: 0 hr 20 min 10 sec) 
Heartbeat CPU 3 instructions: 70000002 cycles: 34288671 heartbeat IPC: 1.68183 cumulative IPC: 1.68113 (Simulation time: 0 hr 20 min 26 sec) 
Heartbeat CPU 6 instructions: 60000000 cycles: 36547997 heartbeat IPC: 1.20584 cumulative IPC: 1.2023 (Simulation time: 0 hr 21 min 31 sec) 
Heartbeat CPU 4 instructions: 70000000 cycles: 38289290 heartbeat IPC: 1.52196 cumulative IPC: 1.55613 (Simulation time: 0 hr 22 min 21 sec) 
Heartbeat CPU 3 instructions: 80000000 cycles: 40235565 heartbeat IPC: 1.68155 cumulative IPC: 1.68122 (Simulation time: 0 hr 23 min 16 sec) 
Heartbeat CPU 5 instructions: 70000001 cycles: 40317498 heartbeat IPC: 1.38746 cumulative IPC: 1.41147 (Simulation time: 0 hr 23 min 18 sec) 
Heartbeat CPU 0 instructions: 40000000 cycles: 41082380 heartbeat IPC: 0.578847 cumulative IPC: 0.578666 (Simulation time: 0 hr 23 min 39 sec) 
Heartbeat CPU 1 instructions: 30000001 cycles: 41390978 heartbeat IPC: 0.353225 cumulative IPC: 0.353225 (Simulation time: 0 hr 23 min 48 sec) 
Heartbeat CPU 6 instructions: 70000002 cycles: 44746690 heartbeat IPC: 1.21971 cumulative IPC: 1.20681 (Simulation time: 0 hr 25 min 17 sec) 
Heartbeat CPU 4 instructions: 80000000 cycles: 45919554 heartbeat IPC: 1.31057 cumulative IPC: 1.49907 (Simulation time: 0 hr 25 min 49 sec) 
Heartbeat CPU 7 instructions: 50000003 cycles: 45926568 heartbeat IPC: 0.763963 cumulative IPC: 0.843819 (Simulation time: 0 hr 25 min 49 sec) 
Heartbeat CPU 2 instructions: 60000000 cycles: 45958707 heartbeat IPC: 0.818004 cumulative IPC: 0.889742 (Simulation time: 0 hr 25 min 50 sec) 
Heartbeat CPU 3 instructions: 90000002 cycles: 46181558 heartbeat IPC: 1.68181 cumulative IPC: 1.68133 (Simulation time: 0 hr 25 min 57 sec) 
Heartbeat CPU 5 instructions: 80000000 cycles: 47474847 heartbeat IPC: 1.39717 cumulative IPC: 1.4085 (Simulation time: 0 hr 26 min 34 sec) 
Heartbeat CPU 6 instructions: 80000000 cycles: 51800958 heartbeat IPC: 1.41758 cumulative IPC: 1.24521 (Simulation time: 0 hr 28 min 33 sec) 
Heartbeat CPU 3 instructions: 100000000 cycles: 52127210 heartbeat IPC: 1.6819 cumulative IPC: 1.68141 (Simulation time: 0 hr 28 min 42 sec) 
Heartbeat CPU 4 instructions: 90000000 cycles: 52855931 heartbeat IPC: 1.44167 cumulative IPC: 1.48906 (Simulation time: 0 hr 29 min 2 sec) 
Heartbeat CPU 5 instructions: 90000001 cycles: 54749565 heartbeat IPC: 1.37462 cumulative IPC: 1.40258 (Simulation time: 0 hr 29 min 56 sec) 
Heartbeat CPU 2 instructions: 70000000 cycles: 57410180 heartbeat IPC: 0.87325 cumulative IPC: 0.885482 (Simulation time: 0 hr 31 min 14 sec) 
Heartbeat CPU 7 instructions: 60000000 cycles: 57968041 heartbeat IPC: 0.830463 cumulative IPC: 0.840236 (Simulation time: 0 hr 31 min 31 sec) 
Heartbeat CPU 3 instructions: 110000001 cycles: 58074106 heartbeat IPC: 1.68155 cumulative IPC: 1.68143 (Simulation time: 0 hr 31 min 34 sec) 
Heartbeat CPU 0 instructions: 50000002 cycles: 58353758 heartbeat IPC: 0.578993 cumulative IPC: 0.578791 (Simulation time: 0 hr 31 min 42 sec) 
Heartbeat CPU 4 instructions: 100000000 cycles: 59718963 heartbeat IPC: 1.45708 cumulative IPC: 1.48436 (Simulation time: 0 hr 32 min 22 sec) 
Heartbeat CPU 6 instructions: 90000002 cycles: 60663910 heartbeat IPC: 1.12829 cumulative IPC: 1.22343 (Simulation time: 0 hr 32 min 50 sec) 
Heartbeat CPU 5 instructions: 100000000 cycles: 61890578 heartbeat IPC: 1.40036 cumulative IPC: 1.40226 (Simulation time: 0 hr 33 min 25 sec) 
Heartbeat CPU 3 instructions: 120000000 cycles: 64020971 heartbeat IPC: 1.68156 cumulative IPC: 1.68145 (Simulation time: 0 hr 34 min 26 sec) 
Heartbeat CPU 4 instructions: 110000001 cycles: 66590645 heartbeat IPC: 1.45525 cumulative IPC: 1.48062 (Simulation time: 0 hr 35 min 40 sec) 
Heartbeat CPU 5 instructions: 110000001 cycles: 68878258 heartbeat IPC: 1.43109 cumulative IPC: 1.40587 (Simulation time: 0 hr 36 min 47 sec) 
Heartbeat CPU 6 instructions: 100000000 cycles: 68881244 heartbeat IPC: 1.21694 cumulative IPC: 1.22247 (Simulation time: 0 hr 36 min 47 sec) 
Heartbeat CPU 2 instructions: 80000000 cycles: 68915866 heartbeat IPC: 0.869135 cumulative IPC: 0.882113 (Simulation time: 0 hr 36 min 49 sec) 
Heartbeat CPU 1 instructions: 40000000 cycles: 69837272 heartbeat IPC: 0.35154 cumulative IPC: 0.35238 (Simulation time: 0 hr 37 min 16 sec) 
Heartbeat CPU 3 instructions: 130000003 cycles: 69966633 heartbeat IPC: 1.6819 cumulative IPC: 1.68149 (Simulation time: 0 hr 37 min 19 sec) 
Heartbeat CPU 7 instructions: 70000002 cycles: 71936924 heartbeat IPC: 0.715877 cumulative IPC: 0.810721 (Simulation time: 0 hr 38 min 14 sec) 
Finished CPU 3 instructions: 100000000 cycles: 59470379 cumulative IPC: 1.68151 (Simulation time: 0 hr 38 min 30 sec) 
Heartbeat CPU 4 instructions: 120000000 cycles: 73434059 heartbeat IPC: 1.46126 cumulative IPC: 1.47842 (Simulation time: 0 hr 38 min 57 sec) 
Heartbeat CPU 0 instructions: 60000000 cycles: 75663124 heartbeat IPC: 0.577722 cumulative IPC: 0.578495 (Simulation time: 0 hr 39 min 57 sec) 
Heartbeat CPU 3 instructions: 140000000 cycles: 75914385 heartbeat IPC: 1.68131 cumulative IPC: 1.68148 (Simulation time: 0 hr 40 min 3 sec) 
Heartbeat CPU 6 instructions: 110000001 cycles: 76335881 heartbeat IPC: 1.34145 cumulative IPC: 1.2365 (Simulation time: 0 hr 40 min 14 sec) 
Heartbeat CPU 5 instructions: 120000000 cycles: 78129945 heartbeat IPC: 1.08088 cumulative IPC: 1.35965 (Simulation time: 0 hr 41 min 5 sec) 
Heartbeat CPU 4 instructions: 130000002 cycles: 79614380 heartbeat IPC: 1.61804 cumulative IPC: 1.49139 (Simulation time: 0 hr 41 min 47 sec) 
Finished CPU 4 instructions: 100000001 cycles: 67003335 cumulative IPC: 1.49246 (Simulation time: 0 hr 42 min 2 sec) 
Heartbeat CPU 3 instructions: 150000002 cycles: 81864457 heartbeat IPC: 1.68065 cumulative IPC: 1.6814 (Simulation time: 0 hr 42 min 59 sec) 
Heartbeat CPU 2 instructions: 90000002 cycles: 81910564 heartbeat IPC: 0.769545 cumulative IPC: 0.860861 (Simulation time: 0 hr 43 min 0 sec) 
Heartbeat CPU 5 instructions: 130000003 cycles: 82731962 heartbeat IPC: 2.17296 cumulative IPC: 1.41338 (Simulation time: 0 hr 43 min 27 sec) 
Finished CPU 5 instructions: 100000000 cycles: 70319053 cumulative IPC: 1.42209 (Simulation time: 0 hr 43 min 49 sec) 
Heartbeat CPU 7 instructions: 80000000 cycles: 84753103 heartbeat IPC: 0.780264 cumulative IPC: 0.805275 (Simulation time: 0 hr 44 min 30 sec) 
Heartbeat CPU 6 instructions: 120000000 cycles: 84873848 heartbeat IPC: 1.17124 cumulative IPC: 1.22874 (Simulation time: 0 hr 44 min 33 sec) 
Heartbeat CPU 4 instructions: 140000000 cycles: 85802622 heartbeat IPC: 1.61597 cumulative IPC: 1.50199 (Simulation time: 0 hr 45 min 0 sec) 
Heartbeat CPU 3 instructions: 160000000 cycles: 87813191 heartbeat IPC: 1.68103 cumulative IPC: 1.68137 (Simulation time: 0 hr 45 min 59 sec) 
Heartbeat CPU 5 instructions: 140000000 cycles: 88470467 heartbeat IPC: 1.74261 cumulative IPC: 1.43844 (Simulation time: 0 hr 46 min 17 sec) 
Heartbeat CPU 0 instructions: 70000000 cycles: 93079965 heartbeat IPC: 0.574157 cumulative IPC: 0.577551 (Simulation time: 0 hr 48 min 25 sec) 
Heartbeat CPU 4 instructions: 150000000 cycles: 93209275 heartbeat IPC: 1.35014 cumulative IPC: 1.48796 (Simulation time: 0 hr 48 min 28 sec) 
Heartbeat CPU 3 instructions: 170000002 cycles: 93761108 heartbeat IPC: 1.68126 cumulative IPC: 1.68137 (Simulation time: 0 hr 48 min 43 sec) 
Heartbeat CPU 6 instructions: 130000001 cycles: 94180968 heartbeat IPC: 1.07445 cumulative IPC: 1.21103 (Simulation time: 0 hr 48 min 55 sec) 
Heartbeat CPU 2 instructions: 100000000 cycles: 94866358 heartbeat IPC: 0.771855 cumulative IPC: 0.846762 (Simulation time: 0 hr 49 min 13 sec) 
Heartbeat CPU 5 instructions: 150000003 cycles: 95616499 heartbeat IPC: 1.39938 cumulative IPC: 1.43506 (Simulation time: 0 hr 49 min 32 sec) 
Finished CPU 6 instructions: 100000001 cycles: 83006318 cumulative IPC: 1.20473 (Simulation time: 0 hr 49 min 45 sec) 
Heartbeat CPU 7 instructions: 90000001 cycles: 97142837 heartbeat IPC: 0.80712 cumulative IPC: 0.805547 (Simulation time: 0 hr 50 min 12 sec) 
Heartbeat CPU 4 instructions: 160000000 cycles: 99396152 heartbeat IPC: 1.61632 cumulative IPC: 1.49716 (Simulation time: 0 hr 51 min 11 sec) 
Heartbeat CPU 3 instructions: 180000000 cycles: 99710035 heartbeat IPC: 1.68098 cumulative IPC: 1.68134 (Simulation time: 0 hr 51 min 19 sec) 
Heartbeat CPU 1 instructions: 50000000 cycles: 101188516 heartbeat IPC: 0.318967 cumulative IPC: 0.340491 (Simulation time: 0 hr 52 min 0 sec) 
Heartbeat CPU 5 instructions: 160000000 cycles: 102438375 heartbeat IPC: 1.46587 cumulative IPC: 1.43741 (Simulation time: 0 hr 52 min 34 sec) 
Heartbeat CPU 6 instructions: 140000000 cycles: 102485667 heartbeat IPC: 1.20414 cumulative IPC: 1.21039 (Simulation time: 0 hr 52 min 35 sec) 
Heartbeat CPU 4 instructions: 170000003 cycles: 105562855 heartbeat IPC: 1.62161 cumulative IPC: 1.50546 (Simulation time: 0 hr 54 min 1 sec) 
Heartbeat CPU 3 instructions: 190000002 cycles: 105659349 heartbeat IPC: 1.68087 cumulative IPC: 1.68131 (Simulation time: 0 hr 54 min 4 sec) 
Heartbeat CPU 5 instructions: 170000000 cycles: 109018666 heartbeat IPC: 1.51969 cumulative IPC: 1.44306 (Simulation time: 0 hr 55 min 33 sec) 
Heartbeat CPU 7 instructions: 100000000 cycles: 109588212 heartbeat IPC: 0.803511 cumulative IPC: 0.805284 (Simulation time: 0 hr 55 min 49 sec) 
Heartbeat CPU 6 instructions: 150000001 cycles: 110616174 heartbeat IPC: 1.22994 cumulative IPC: 1.21202 (Simulation time: 0 hr 56 min 33 sec) 
Heartbeat CPU 0 instructions: 80000000 cycles: 110741938 heartbeat IPC: 0.566188 cumulative IPC: 0.575496 (Simulation time: 0 hr 56 min 38 sec) 
Heartbeat CPU 3 instructions: 200000000 cycles: 111607755 heartbeat IPC: 1.68112 cumulative IPC: 1.6813 (Simulation time: 0 hr 57 min 23 sec) 
Heartbeat CPU 4 instructions: 180000000 cycles: 111741814 heartbeat IPC: 1.6184 cumulative IPC: 1.51253 (Simulation time: 0 hr 57 min 27 sec) 
Heartbeat CPU 2 instructions: 110000000 cycles: 112848599 heartbeat IPC: 0.556104 cumulative IPC: 0.794373 (Simulation time: 0 hr 58 min 1 sec) 
Heartbeat CPU 5 instructions: 180000000 cycles: 115730735 heartbeat IPC: 1.48985 cumulative IPC: 1.44612 (Simulation time: 0 hr 59 min 25 sec) 
Heartbeat CPU 3 instructions: 210000003 cycles: 117555038 heartbeat IPC: 1.68144 cumulative IPC: 1.68131 (Simulation time: 1 hr 0 min 17 sec) 
Heartbeat CPU 4 instructions: 190000000 cycles: 117917110 heartbeat IPC: 1.61936 cumulative IPC: 1.51882 (Simulation time: 1 hr 0 min 27 sec) 
Heartbeat CPU 6 instructions: 160000000 cycles: 119742458 heartbeat IPC: 1.09574 cumulative IPC: 1.20207 (Simulation time: 1 hr 1 min 19 sec) 
Heartbeat CPU 5 instructions: 190000000 cycles: 122675620 heartbeat IPC: 1.43991 cumulative IPC: 1.44572 (Simulation time: 1 hr 2 min 44 sec) 
Heartbeat CPU 7 instructions: 110000000 cycles: 123001734 heartbeat IPC: 0.745516 cumulative IPC: 0.797991 (Simulation time: 1 hr 2 min 54 sec) 
Heartbeat CPU 3 instructions: 220000000 cycles: 123503789 heartbeat IPC: 1.68102 cumulative IPC: 1.68129 (Simulation time: 1 hr 3 min 10 sec) 
Heartbeat CPU 2 instructions: 120000000 cycles: 123907295 heartbeat IPC: 0.904266 cumulative IPC: 0.805339 (Simulation time: 1 hr 3 min 23 sec) 
Heartbeat CPU 4 instructions: 200000000 cycles: 124111477 heartbeat IPC: 1.61437 cumulative IPC: 1.52415 (Simulation time: 1 hr 3 min 31 sec) 
Heartbeat CPU 0 instructions: 90000003 cycles: 128169391 heartbeat IPC: 0.573807 cumulative IPC: 0.57524 (Simulation time: 1 hr 5 min 35 sec) 
Heartbeat CPU 6 instructions: 170000001 cycles: 129198901 heartbeat IPC: 1.05748 cumulative IPC: 1.19029 (Simulation time: 1 hr 6 min 5 sec) 
Heartbeat CPU 5 instructions: 200000000 cycles: 129301107 heartbeat IPC: 1.50932 cumulative IPC: 1.44935 (Simulation time: 1 hr 6 min 8 sec) 
Heartbeat CPU 3 instructions: 230000001 cycles: 129453702 heartbeat IPC: 1.6807 cumulative IPC: 1.68126 (Simulation time: 1 hr 6 min 12 sec) 
Heartbeat CPU 4 instructions: 210000001 cycles: 130307174 heartbeat IPC: 1.61402 cumulative IPC: 1.5289 (Simulation time: 1 hr 6 min 36 sec) 
Heartbeat CPU 1 instructions: 60000000 cycles: 133074214 heartbeat IPC: 0.31362 cumulative IPC: 0.333351 (Simulation time: 1 hr 7 min 57 sec) 
Heartbeat CPU 2 instructions: 130000000 cycles: 133883420 heartbeat IPC: 1.00239 cumulative IPC: 0.821612 (Simulation time: 1 hr 8 min 20 sec) 
Finished CPU 2 instructions: 100000002 cycles: 121604882 cumulative IPC: 0.822335 (Simulation time: 1 hr 8 min 43 sec) 
Heartbeat CPU 3 instructions: 240000000 cycles: 135401908 heartbeat IPC: 1.68118 cumulative IPC: 1.68126 (Simulation time: 1 hr 9 min 2 sec) 
Heartbeat CPU 5 instructions: 210000000 cycles: 136120407 heartbeat IPC: 1.46643 cumulative IPC: 1.4503 (Simulation time: 1 hr 9 min 23 sec) 
Heartbeat CPU 4 instructions: 220000000 cycles: 137124542 heartbeat IPC: 1.46684 cumulative IPC: 1.52549 (Simulation time: 1 hr 9 min 53 sec) 
Heartbeat CPU 7 instructions: 120000000 cycles: 137507472 heartbeat IPC: 0.689382 cumulative IPC: 0.785329 (Simulation time: 1 hr 10 min 6 sec) 
Heartbeat CPU 6 instructions: 180000000 cycles: 138549228 heartbeat IPC: 1.06948 cumulative IPC: 1.18129 (Simulation time: 1 hr 10 min 38 sec) 
Finished CPU 7 instructions: 100000000 cycles: 127741533 cumulative IPC: 0.782831 (Simulation time: 1 hr 11 min 47 sec) 
Heartbeat CPU 3 instructions: 250000002 cycles: 141347425 heartbeat IPC: 1.68194 cumulative IPC: 1.68129 (Simulation time: 1 hr 12 min 3 sec) 
Heartbeat CPU 5 instructions: 220000000 cycles: 142822567 heartbeat IPC: 1.49206 cumulative IPC: 1.45245 (Simulation time: 1 hr 12 min 47 sec) 
Heartbeat CPU 4 instructions: 230000000 cycles: 143255653 heartbeat IPC: 1.63103 cumulative IPC: 1.53046 (Simulation time: 1 hr 12 min 59 sec) 
Heartbeat CPU 2 instructions: 140000000 cycles: 143706557 heartbeat IPC: 1.018 cumulative IPC: 0.836381 (Simulation time: 1 hr 13 min 13 sec) 
Heartbeat CPU 0 instructions: 100000000 cycles: 145553060 heartbeat IPC: 0.575252 cumulative IPC: 0.575242 (Simulation time: 1 hr 14 min 9 sec) 
Heartbeat CPU 6 instructions: 190000002 cycles: 147053085 heartbeat IPC: 1.17594 cumulative IPC: 1.18095 (Simulation time: 1 hr 14 min 52 sec) 
Heartbeat CPU 3 instructions: 260000000 cycles: 147295448 heartbeat IPC: 1.68123 cumulative IPC: 1.68129 (Simulation time: 1 hr 14 min 59 sec) 
Heartbeat CPU 4 instructions: 240000000 cycles: 149448586 heartbeat IPC: 1.61474 cumulative IPC: 1.53429 (Simulation time: 1 hr 16 min 2 sec) 
Heartbeat CPU 5 instructions: 230000001 cycles: 149462628 heartbeat IPC: 1.50601 cumulative IPC: 1.45506 (Simulation time: 1 hr 16 min 2 sec) 
Heartbeat CPU 7 instructions: 130000003 cycles: 151442075 heartbeat IPC: 0.717638 cumulative IPC: 0.778512 (Simulation time: 1 hr 16 min 59 sec) 
Heartbeat CPU 3 instructions: 270000003 cycles: 153241350 heartbeat IPC: 1.68183 cumulative IPC: 1.68131 (Simulation time: 1 hr 17 min 50 sec) 
Heartbeat CPU 2 instructions: 150000000 cycles: 155141530 heartbeat IPC: 0.87451 cumulative IPC: 0.83945 (Simulation time: 1 hr 18 min 45 sec) 
Heartbeat CPU 6 instructions: 200000000 cycles: 155531271 heartbeat IPC: 1.1795 cumulative IPC: 1.18086 (Simulation time: 1 hr 18 min 55 sec) 
Heartbeat CPU 4 instructions: 250000002 cycles: 155652714 heartbeat IPC: 1.61183 cumulative IPC: 1.53766 (Simulation time: 1 hr 18 min 59 sec) 
Heartbeat CPU 5 instructions: 240000000 cycles: 156289808 heartbeat IPC: 1.46473 cumulative IPC: 1.45552 (Simulation time: 1 hr 19 min 17 sec) 
Heartbeat CPU 3 instructions: 280000000 cycles: 159189991 heartbeat IPC: 1.68106 cumulative IPC: 1.6813 (Simulation time: 1 hr 20 min 38 sec) 
Heartbeat CPU 1 instructions: 70000000 cycles: 162118637 heartbeat IPC: 0.3443 cumulative IPC: 0.335484 (Simulation time: 1 hr 22 min 1 sec) 
Heartbeat CPU 4 instructions: 260000000 cycles: 162410981 heartbeat IPC: 1.47967 cumulative IPC: 1.53504 (Simulation time: 1 hr 22 min 9 sec) 
Heartbeat CPU 0 instructions: 110000002 cycles: 162897490 heartbeat IPC: 0.576554 cumulative IPC: 0.575394 (Simulation time: 1 hr 22 min 23 sec) 
Heartbeat CPU 5 instructions: 250000001 cycles: 162959736 heartbeat IPC: 1.49927 cumulative IPC: 1.45747 (Simulation time: 1 hr 22 min 25 sec) 
Heartbeat CPU 6 instructions: 210000001 cycles: 163974508 heartbeat IPC: 1.18438 cumulative IPC: 1.18106 (Simulation time: 1 hr 22 min 54 sec) 
Heartbeat CPU 3 instructions: 290000002 cycles: 165136677 heartbeat IPC: 1.68161 cumulative IPC: 1.68131 (Simulation time: 1 hr 23 min 28 sec) 
Heartbeat CPU 7 instructions: 140000000 cycles: 165613566 heartbeat IPC: 0.705642 cumulative IPC: 0.771742 (Simulation time: 1 hr 23 min 41 sec) 
Heartbeat CPU 2 instructions: 160000000 cycles: 167335345 heartbeat IPC: 0.820088 cumulative IPC: 0.837919 (Simulation time: 1 hr 24 min 32 sec) 
Heartbeat CPU 4 instructions: 270000002 cycles: 168568807 heartbeat IPC: 1.62395 cumulative IPC: 1.53856 (Simulation time: 1 hr 25 min 8 sec) 
Heartbeat CPU 5 instructions: 260000000 cycles: 169809730 heartbeat IPC: 1.45986 cumulative IPC: 1.45757 (Simulation time: 1 hr 25 min 45 sec) 
Heartbeat CPU 3 instructions: 300000000 cycles: 171083765 heartbeat IPC: 1.68149 cumulative IPC: 1.68132 (Simulation time: 1 hr 26 min 22 sec) 
Heartbeat CPU 6 instructions: 220000000 cycles: 172391492 heartbeat IPC: 1.18807 cumulative IPC: 1.18143 (Simulation time: 1 hr 27 min 1 sec) 
Heartbeat CPU 4 instructions: 280000000 cycles: 174731485 heartbeat IPC: 1.62267 cumulative IPC: 1.54177 (Simulation time: 1 hr 28 min 7 sec) 
Heartbeat CPU 5 instructions: 270000001 cycles: 176492680 heartbeat IPC: 1.49635 cumulative IPC: 1.45916 (Simulation time: 1 hr 28 min 56 sec) 
Heartbeat CPU 3 instructions: 310000001 cycles: 177029842 heartbeat IPC: 1.68178 cumulative IPC: 1.68133 (Simulation time: 1 hr 29 min 11 sec) 
Heartbeat CPU 7 instructions: 150000000 cycles: 177803712 heartbeat IPC: 0.820335 cumulative IPC: 0.775338 (Simulation time: 1 hr 29 min 33 sec) 
Heartbeat CPU 2 instructions: 170000000 cycles: 179258356 heartbeat IPC: 0.838714 cumulative IPC: 0.837976 (Simulation time: 1 hr 30 min 14 sec) 
Heartbeat CPU 0 instructions: 120000000 cycles: 180230807 heartbeat IPC: 0.576923 cumulative IPC: 0.575552 (Simulation time: 1 hr 30 min 43 sec) 
Heartbeat CPU 6 instructions: 230000003 cycles: 180824736 heartbeat IPC: 1.18578 cumulative IPC: 1.18165 (Simulation time: 1 hr 31 min 1 sec) 
Heartbeat CPU 4 instructions: 290000003 cycles: 182041506 heartbeat IPC: 1.36799 cumulative IPC: 1.53425 (Simulation time: 1 hr 31 min 37 sec) 
Heartbeat CPU 3 instructions: 320000000 cycles: 182977388 heartbeat IPC: 1.68137 cumulative IPC: 1.68134 (Simulation time: 1 hr 32 min 5 sec) 
Heartbeat CPU 5 instructions: 280000000 cycles: 183143834 heartbeat IPC: 1.5035 cumulative IPC: 1.46089 (Simulation time: 1 hr 32 min 10 sec) 
Finished CPU 0 instructions: 100000001 cycles: 173753462 cumulative IPC: 0.575528 (Simulation time: 1 hr 33 min 57 sec) 
Heartbeat CPU 4 instructions: 300000000 cycles: 188245036 heartbeat IPC: 1.61198 cumulative IPC: 1.537 (Simulation time: 1 hr 34 min 38 sec) 
Heartbeat CPU 3 instructions: 330000000 cycles: 188922786 heartbeat IPC: 1.68197 cumulative IPC: 1.68136 (Simulation time: 1 hr 34 min 58 sec) 
Heartbeat CPU 6 instructions: 240000000 cycles: 189254738 heartbeat IPC: 1.18624 cumulative IPC: 1.18187 (Simulation time: 1 hr 35 min 9 sec) 
Heartbeat CPU 5 instructions: 290000003 cycles: 189760580 heartbeat IPC: 1.51132 cumulative IPC: 1.46278 (Simulation time: 1 hr 35 min 24 sec) 
Heartbeat CPU 2 instructions: 180000000 cycles: 190073760 heartbeat IPC: 0.924607 cumulative IPC: 0.84327 (Simulation time: 1 hr 35 min 33 sec) 
Heartbeat CPU 1 instructions: 80000000 cycles: 190550316 heartbeat IPC: 0.35172 cumulative IPC: 0.338086 (Simulation time: 1 hr 35 min 47 sec) 
Heartbeat CPU 7 instructions: 160000000 cycles: 191277667 heartbeat IPC: 0.742173 cumulative IPC: 0.77283 (Simulation time: 1 hr 36 min 7 sec) 
Heartbeat CPU 3 instructions: 340000000 cycles: 194871725 heartbeat IPC: 1.68097 cumulative IPC: 1.68134 (Simulation time: 1 hr 37 min 50 sec) 
Heartbeat CPU 4 instructions: 310000000 cycles: 195134617 heartbeat IPC: 1.45147 cumulative IPC: 1.53376 (Simulation time: 1 hr 37 min 58 sec) 
Heartbeat CPU 5 instructions: 300000000 cycles: 196399816 heartbeat IPC: 1.5062 cumulative IPC: 1.46435 (Simulation time: 1 hr 38 min 34 sec) 
Heartbeat CPU 6 instructions: 250000003 cycles: 197500439 heartbeat IPC: 1.21275 cumulative IPC: 1.18325 (Simulation time: 1 hr 39 min 5 sec) 
Heartbeat CPU 0 instructions: 130000001 cycles: 197628811 heartbeat IPC: 0.574779 cumulative IPC: 0.575479 (Simulation time: 1 hr 39 min 9 sec) 
Heartbeat CPU 3 instructions: 350000001 cycles: 200821040 heartbeat IPC: 1.68087 cumulative IPC: 1.68133 (Simulation time: 1 hr 40 min 41 sec) 
Heartbeat CPU 4 instructions: 320000000 cycles: 201517573 heartbeat IPC: 1.56667 cumulative IPC: 1.53488 (Simulation time: 1 hr 41 min 1 sec) 
Heartbeat CPU 5 instructions: 310000000 cycles: 202910677 heartbeat IPC: 1.5359 cumulative IPC: 1.46681 (Simulation time: 1 hr 41 min 41 sec) 
Heartbeat CPU 2 instructions: 190000003 cycles: 203638199 heartbeat IPC: 0.737222 cumulative IPC: 0.835721 (Simulation time: 1 hr 42 min 0 sec) 
Heartbeat CPU 7 instructions: 170000000 cycles: 204831065 heartbeat IPC: 0.737822 cumulative IPC: 0.770356 (Simulation time: 1 hr 42 min 33 sec) 
Heartbeat CPU 6 instructions: 260000000 cycles: 204841203 heartbeat IPC: 1.36226 cumulative IPC: 1.1901 (Simulation time: 1 hr 42 min 33 sec) 
Heartbeat CPU 3 instructions: 360000000 cycles: 206769867 heartbeat IPC: 1.681 cumulative IPC: 1.68132 (Simulation time: 1 hr 43 min 30 sec) 
Heartbeat CPU 4 instructions: 330000003 cycles: 208422771 heartbeat IPC: 1.44818 cumulative IPC: 1.53181 (Simulation time: 1 hr 44 min 16 sec) 
Heartbeat CPU 5 instructions: 320000000 cycles: 209494550 heartbeat IPC: 1.51886 cumulative IPC: 1.46855 (Simulation time: 1 hr 44 min 45 sec) 
Heartbeat CPU 3 instructions: 370000000 cycles: 212719277 heartbeat IPC: 1.68084 cumulative IPC: 1.6813 (Simulation time: 1 hr 46 min 14 sec) 
Heartbeat CPU 6 instructions: 270000001 cycles: 214242470 heartbeat IPC: 1.06369 cumulative IPC: 1.1842 (Simulation time: 1 hr 46 min 57 sec) 
Heartbeat CPU 4 instructions: 340000000 cycles: 214797565 heartbeat IPC: 1.56868 cumulative IPC: 1.53298 (Simulation time: 1 hr 47 min 13 sec) 
Heartbeat CPU 0 instructions: 140000000 cycles: 215008946 heartbeat IPC: 0.575369 cumulative IPC: 0.57547 (Simulation time: 1 hr 47 min 19 sec) 
Heartbeat CPU 2 instructions: 200000000 cycles: 215476208 heartbeat IPC: 0.844736 cumulative IPC: 0.836249 (Simulation time: 1 hr 47 min 33 sec) 
Heartbeat CPU 5 instructions: 330000002 cycles: 216049788 heartbeat IPC: 1.5255 cumulative IPC: 1.47039 (Simulation time: 1 hr 47 min 49 sec) 
Heartbeat CPU 3 instructions: 380000000 cycles: 218667933 heartbeat IPC: 1.68105 cumulative IPC: 1.6813 (Simulation time: 1 hr 49 min 4 sec) 
Heartbeat CPU 1 instructions: 90000002 cycles: 219290278 heartbeat IPC: 0.347948 cumulative IPC: 0.33946 (Simulation time: 1 hr 49 min 22 sec) 
Heartbeat CPU 7 instructions: 180000000 cycles: 219379637 heartbeat IPC: 0.687353 cumulative IPC: 0.764502 (Simulation time: 1 hr 49 min 25 sec) 
Heartbeat CPU 4 instructions: 350000000 cycles: 220895885 heartbeat IPC: 1.6398 cumulative IPC: 1.53611 (Simulation time: 1 hr 50 min 8 sec) 
Heartbeat CPU 5 instructions: 340000000 cycles: 222717832 heartbeat IPC: 1.49969 cumulative IPC: 1.47132 (Simulation time: 1 hr 50 min 58 sec) 
Heartbeat CPU 6 instructions: 280000000 cycles: 223258129 heartbeat IPC: 1.10918 cumulative IPC: 1.18098 (Simulation time: 1 hr 51 min 12 sec) 
Heartbeat CPU 3 instructions: 390000000 cycles: 224618109 heartbeat IPC: 1.68062 cumulative IPC: 1.68128 (Simulation time: 1 hr 51 min 48 sec) 
Heartbeat CPU 4 instructions: 360000000 cycles: 227765531 heartbeat IPC: 1.45568 cumulative IPC: 1.53354 (Simulation time: 1 hr 53 min 10 sec) 
Heartbeat CPU 5 instructions: 350000003 cycles: 229529469 heartbeat IPC: 1.46808 cumulative IPC: 1.47122 (Simulation time: 1 hr 53 min 58 sec) 
Heartbeat CPU 3 instructions: 400000000 cycles: 230570839 heartbeat IPC: 1.6799 cumulative IPC: 1.68124 (Simulation time: 1 hr 54 min 26 sec) 
Heartbeat CPU 0 instructions: 150000000 cycles: 232547457 heartbeat IPC: 0.570174 cumulative IPC: 0.575047 (Simulation time: 1 hr 55 min 21 sec) 
Heartbeat CPU 6 instructions: 290000000 cycles: 232704194 heartbeat IPC: 1.05864 cumulative IPC: 1.17572 (Simulation time: 1 hr 55 min 26 sec) 
Heartbeat CPU 7 instructions: 190000001 cycles: 233848249 heartbeat IPC: 0.691151 cumulative IPC: 0.759695 (Simulation time: 1 hr 55 min 58 sec) 
Heartbeat CPU 4 instructions: 370000001 cycles: 233970959 heartbeat IPC: 1.61149 cumulative IPC: 1.53573 (Simulation time: 1 hr 56 min 2 sec) 
Heartbeat CPU 2 instructions: 210000003 cycles: 235051970 heartbeat IPC: 0.510836 cumulative IPC: 0.80755 (Simulation time: 1 hr 56 min 34 sec) 
Heartbeat CPU 5 instructions: 360000000 cycles: 236321684 heartbeat IPC: 1.47227 cumulative IPC: 1.47125 (Simulation time: 1 hr 57 min 10 sec) 
Heartbeat CPU 3 instructions: 410000003 cycles: 236522506 heartbeat IPC: 1.6802 cumulative IPC: 1.68121 (Simulation time: 1 hr 57 min 17 sec) 
Heartbeat CPU 4 instructions: 380000000 cycles: 240072395 heartbeat IPC: 1.63896 cumulative IPC: 1.53851 (Simulation time: 1 hr 58 min 59 sec) 
Heartbeat CPU 6 instructions: 300000000 cycles: 241730675 heartbeat IPC: 1.10785 cumulative IPC: 1.17304 (Simulation time: 1 hr 59 min 46 sec) 
Heartbeat CPU 3 instructions: 420000000 cycles: 242469855 heartbeat IPC: 1.68142 cumulative IPC: 1.68122 (Simulation time: 2 hr 0 min 8 sec) 
Heartbeat CPU 5 instructions: 370000002 cycles: 242762122 heartbeat IPC: 1.55269 cumulative IPC: 1.47354 (Simulation time: 2 hr 0 min 17 sec) 
Heartbeat CPU 4 instructions: 390000002 cycles: 246170624 heartbeat IPC: 1.63982 cumulative IPC: 1.54116 (Simulation time: 2 hr 1 min 53 sec) 
Heartbeat CPU 2 instructions: 220000000 cycles: 246549596 heartbeat IPC: 0.869744 cumulative IPC: 0.810613 (Simulation time: 2 hr 2 min 3 sec) 
Heartbeat CPU 7 instructions: 200000000 cycles: 246690776 heartbeat IPC: 0.778663 cumulative IPC: 0.760738 (Simulation time: 2 hr 2 min 7 sec) 
Heartbeat CPU 3 instructions: 430000000 cycles: 248417397 heartbeat IPC: 1.68137 cumulative IPC: 1.68122 (Simulation time: 2 hr 2 min 50 sec) 
Heartbeat CPU 0 instructions: 160000000 cycles: 249903815 heartbeat IPC: 0.576158 cumulative IPC: 0.575128 (Simulation time: 2 hr 3 min 27 sec) 
Heartbeat CPU 6 instructions: 310000000 cycles: 251255806 heartbeat IPC: 1.04985 cumulative IPC: 1.16811 (Simulation time: 2 hr 4 min 5 sec) 
Heartbeat CPU 5 instructions: 380000000 cycles: 252200835 heartbeat IPC: 1.05947 cumulative IPC: 1.45719 (Simulation time: 2 hr 4 min 31 sec) 
Heartbeat CPU 4 instructions: 400000000 cycles: 252568928 heartbeat IPC: 1.56291 cumulative IPC: 1.54174 (Simulation time: 2 hr 4 min 42 sec) 
Heartbeat CPU 1 instructions: 100000000 cycles: 253409643 heartbeat IPC: 0.293089 cumulative IPC: 0.332877 (Simulation time: 2 hr 5 min 6 sec) 
Heartbeat CPU 3 instructions: 440000000 cycles: 254364274 heartbeat IPC: 1.68155 cumulative IPC: 1.68123 (Simulation time: 2 hr 5 min 33 sec) 
Heartbeat CPU 5 instructions: 390000002 cycles: 256520220 heartbeat IPC: 2.31514 cumulative IPC: 1.47242 (Simulation time: 2 hr 6 min 37 sec) 
Heartbeat CPU 2 instructions: 230000000 cycles: 256814803 heartbeat IPC: 0.974164 cumulative IPC: 0.817501 (Simulation time: 2 hr 6 min 45 sec) 
Heartbeat CPU 7 instructions: 210000003 cycles: 258901628 heartbeat IPC: 0.818944 cumulative IPC: 0.763629 (Simulation time: 2 hr 7 min 41 sec) 
Heartbeat CPU 4 instructions: 410000002 cycles: 259296388 heartbeat IPC: 1.48645 cumulative IPC: 1.54023 (Simulation time: 2 hr 7 min 52 sec) 
Heartbeat CPU 6 instructions: 320000000 cycles: 259468664 heartbeat IPC: 1.2176 cumulative IPC: 1.16976 (Simulation time: 2 hr 7 min 56 sec) 
Heartbeat CPU 3 instructions: 450000001 cycles: 260308669 heartbeat IPC: 1.68226 cumulative IPC: 1.68126 (Simulation time: 2 hr 8 min 19 sec) 
Heartbeat CPU 5 instructions: 400000000 cycles: 262985921 heartbeat IPC: 1.54662 cumulative IPC: 1.47433 (Simulation time: 2 hr 9 min 30 sec) 
Heartbeat CPU 4 instructions: 420000000 cycles: 265486546 heartbeat IPC: 1.61547 cumulative IPC: 1.54207 (Simulation time: 2 hr 10 min 35 sec) 
Heartbeat CPU 2 instructions: 240000000 cycles: 266654061 heartbeat IPC: 1.01634 cumulative IPC: 0.825217 (Simulation time: 2 hr 11 min 6 sec) 
Heartbeat CPU 3 instructions: 460000000 cycles: 266667414 heartbeat IPC: 1.57264 cumulative IPC: 1.67853 (Simulation time: 2 hr 11 min 7 sec) 
Heartbeat CPU 6 instructions: 330000002 cycles: 267025526 heartbeat IPC: 1.3233 cumulative IPC: 1.17433 (Simulation time: 2 hr 11 min 16 sec) 
Heartbeat CPU 0 instructions: 170000002 cycles: 267305319 heartbeat IPC: 0.574663 cumulative IPC: 0.575096 (Simulation time: 2 hr 11 min 23 sec) 
Heartbeat CPU 5 instructions: 410000002 cycles: 270265270 heartbeat IPC: 1.37375 cumulative IPC: 1.47149 (Simulation time: 2 hr 12 min 43 sec) 
Heartbeat CPU 4 instructions: 430000000 cycles: 271720152 heartbeat IPC: 1.60421 cumulative IPC: 1.54357 (Simulation time: 2 hr 13 min 23 sec) 
Heartbeat CPU 3 instructions: 470000003 cycles: 272614936 heartbeat IPC: 1.68137 cumulative IPC: 1.6786 (Simulation time: 2 hr 13 min 47 sec) 
Heartbeat CPU 7 instructions: 220000000 cycles: 272794884 heartbeat IPC: 0.719773 cumulative IPC: 0.761283 (Simulation time: 2 hr 13 min 52 sec) 
Heartbeat CPU 6 instructions: 340000000 cycles: 276019668 heartbeat IPC: 1.11183 cumulative IPC: 1.17219 (Simulation time: 2 hr 15 min 18 sec) 
Heartbeat CPU 5 instructions: 420000000 cycles: 277451133 heartbeat IPC: 1.39162 cumulative IPC: 1.46932 (Simulation time: 2 hr 15 min 57 sec) 
Heartbeat CPU 2 instructions: 250000003 cycles: 277599126 heartbeat IPC: 0.913654 cumulative IPC: 0.828876 (Simulation time: 2 hr 16 min 1 sec) 
Heartbeat CPU 4 instructions: 440000000 cycles: 278024837 heartbeat IPC: 1.58612 cumulative IPC: 1.54458 (Simulation time: 2 hr 16 min 12 sec) 
Heartbeat CPU 3 instructions: 480000000 cycles: 278560485 heartbeat IPC: 1.68193 cumulative IPC: 1.67867 (Simulation time: 2 hr 16 min 27 sec) 
Heartbeat CPU 1 instructions: 110000000 cycles: 283098149 heartbeat IPC: 0.336831 cumulative IPC: 0.333311 (Simulation time: 2 hr 18 min 26 sec) 
Heartbeat CPU 4 instructions: 450000001 cycles: 284264351 heartbeat IPC: 1.60269 cumulative IPC: 1.54592 (Simulation time: 2 hr 18 min 57 sec) 
Heartbeat CPU 3 instructions: 490000003 cycles: 284508253 heartbeat IPC: 1.6813 cumulative IPC: 1.67873 (Simulation time: 2 hr 19 min 3 sec) 
Heartbeat CPU 5 instructions: 430000000 cycles: 284655052 heartbeat IPC: 1.38813 cumulative IPC: 1.46716 (Simulation time: 2 hr 19 min 7 sec) 
Heartbeat CPU 0 instructions: 180000000 cycles: 284682745 heartbeat IPC: 0.575459 cumulative IPC: 0.575119 (Simulation time: 2 hr 19 min 8 sec) 
Heartbeat CPU 6 instructions: 350000000 cycles: 285412299 heartbeat IPC: 1.06466 cumulative IPC: 1.16848 (Simulation time: 2 hr 19 min 27 sec) 
Heartbeat CPU 7 instructions: 230000001 cycles: 285821774 heartbeat IPC: 0.767643 cumulative IPC: 0.761587 (Simulation time: 2 hr 19 min 38 sec) 
Heartbeat CPU 2 instructions: 260000000 cycles: 289609282 heartbeat IPC: 0.832628 cumulative IPC: 0.829039 (Simulation time: 2 hr 21 min 14 sec) 
Heartbeat CPU 3 instructions: 500000000 cycles: 290457834 heartbeat IPC: 1.68079 cumulative IPC: 1.67877 (Simulation time: 2 hr 21 min 36 sec) 
Heartbeat CPU 4 instructions: 460000000 cycles: 290531588 heartbeat IPC: 1.5956 cumulative IPC: 1.54704 (Simulation time: 2 hr 21 min 37 sec) 
Heartbeat CPU 5 instructions: 440000000 cycles: 291883737 heartbeat IPC: 1.38338 cumulative IPC: 1.46499 (Simulation time: 2 hr 22 min 12 sec) 
Heartbeat CPU 6 instructions: 360000000 cycles: 294995811 heartbeat IPC: 1.04346 cumulative IPC: 1.16423 (Simulation time: 2 hr 23 min 32 sec) 
Heartbeat CPU 3 instructions: 510000003 cycles: 296406598 heartbeat IPC: 1.68102 cumulative IPC: 1.67882 (Simulation time: 2 hr 24 min 9 sec) 
Heartbeat CPU 4 instructions: 470000003 cycles: 296677258 heartbeat IPC: 1.62716 cumulative IPC: 1.54878 (Simulation time: 2 hr 24 min 16 sec) 
Heartbeat CPU 5 instructions: 450000002 cycles: 299105845 heartbeat IPC: 1.38464 cumulative IPC: 1.46296 (Simulation time: 2 hr 25 min 19 sec) 
Heartbeat CPU 7 instructions: 240000000 cycles: 300749687 heartbeat IPC: 0.669886 cumulative IPC: 0.756828 (Simulation time: 2 hr 26 min 2 sec) 
Heartbeat CPU 2 instructions: 270000001 cycles: 301552724 heartbeat IPC: 0.83728 cumulative IPC: 0.82938 (Simulation time: 2 hr 26 min 23 sec) 
Heartbeat CPU 0 instructions: 190000000 cycles: 302071599 heartbeat IPC: 0.575081 cumulative IPC: 0.575117 (Simulation time: 2 hr 26 min 36 sec) 
Heartbeat CPU 3 instructions: 520000000 cycles: 302351704 heartbeat IPC: 1.68206 cumulative IPC: 1.67889 (Simulation time: 2 hr 26 min 43 sec) 
Heartbeat CPU 4 instructions: 480000000 cycles: 302874095 heartbeat IPC: 1.61373 cumulative IPC: 1.55017 (Simulation time: 2 hr 26 min 57 sec) 
Heartbeat CPU 6 instructions: 370000001 cycles: 303526258 heartbeat IPC: 1.17227 cumulative IPC: 1.16447 (Simulation time: 2 hr 27 min 14 sec) 
Heartbeat CPU 5 instructions: 460000000 cycles: 306335096 heartbeat IPC: 1.38327 cumulative IPC: 1.461 (Simulation time: 2 hr 28 min 29 sec) 
Heartbeat CPU 3 instructions: 530000002 cycles: 308296915 heartbeat IPC: 1.68203 cumulative IPC: 1.67895 (Simulation time: 2 hr 29 min 22 sec) 
Heartbeat CPU 4 instructions: 490000001 cycles: 309054598 heartbeat IPC: 1.61799 cumulative IPC: 1.55158 (Simulation time: 2 hr 29 min 42 sec) 
Heartbeat CPU 1 instructions: 120000000 cycles: 311955778 heartbeat IPC: 0.346529 cumulative IPC: 0.334588 (Simulation time: 2 hr 30 min 59 sec) 
Finished CPU 1 instructions: 100000001 cycles: 298875367 cumulative IPC: 0.334588 (Simulation time: 2 hr 30 min 59 sec) 

CPU 0 Branch Prediction Accuracy: 98.2141% MPKI: 2.19271

CPU 1 Branch Prediction Accuracy: 91.1675% MPKI: 18.0413

CPU 2 Branch Prediction Accuracy: 97.3948% MPKI: 3.02637

CPU 3 Branch Prediction Accuracy: 99.5352% MPKI: 0.865494

CPU 4 Branch Prediction Accuracy: 96.8532% MPKI: 4.23744

CPU 5 Branch Prediction Accuracy: 96.8401% MPKI: 1.11076

CPU 6 Branch Prediction Accuracy: 97.7908% MPKI: 3.23033

CPU 7 Branch Prediction Accuracy: 98.5564% MPKI: 1.79357

ChampSim completed all CPUs

Total Simulation Statistics (not including warmup)

CPU 0 cumulative IPC: 0.575153 instructions: 171899080 cycles: 298875367
L1D TOTAL     ACCESS:   51012857  HIT:   49424196  MISS:    1588661
L1D LOAD      ACCESS:   47825346  HIT:   46237523  MISS:    1587823
L1D RFO       ACCESS:    3187511  HIT:    3186673  MISS:        838
L1D PREFETCH  ACCESS:          0  HIT:          0  MISS:          0
L1D WRITEBACK ACCESS:          0  HIT:          0  MISS:          0
L1I TOTAL     ACCESS:   57965527  HIT:   57965527  MISS:          0
L1I LOAD      ACCESS:   57965527  HIT:   57965527  MISS:          0
L1I RFO       ACCESS:          0  HIT:          0  MISS:          0
L1I PREFETCH  ACCESS:          0  HIT:          0  MISS:          0
L1I WRITEBACK ACCESS:          0  HIT:          0  MISS:          0
L2C TOTAL     ACCESS:    1756035  HIT:    1575644  MISS:     180391
L2C LOAD      ACCESS:    1587823  HIT:    1554900  MISS:      32923
L2C RFO       ACCESS:        838  HIT:        728  MISS:        110
L2C PREFETCH  ACCESS:     166536  HIT:      19179  MISS:     147357
L2C WRITEBACK ACCESS:        838  HIT:        837  MISS:          1

L2C Best-offset prefetcher final stats
LLC TOTAL     ACCESS:     180501  HIT:      44572  MISS:     135929
LLC LOAD      ACCESS:      32458  HIT:      18134  MISS:      14324
LLC RFO       ACCESS:        110  HIT:          6  MISS:        104
LLC PREFETCH  ACCESS:     147822  HIT:      26326  MISS:     121496
LLC WRITEBACK ACCESS:        111  HIT:        106  MISS:          5

CPU 1 cumulative IPC: 0.334588 instructions: 100000001 cycles: 298875367
L1D TOTAL     ACCESS:   36786315  HIT:   31182518  MISS:    5603797
L1D LOAD      ACCESS:   27193096  HIT:   21950796  MISS:    5242300
L1D RFO       ACCESS:    9593219  HIT:    9231722  MISS:     361497
L1D PREFETCH  ACCESS:          0  HIT:          0  MISS:          0
L1D WRITEBACK ACCESS:          0  HIT:          0  MISS:          0
L1I TOTAL     ACCESS:   22863354  HIT:   22863354  MISS:          0
L1I LOAD      ACCESS:   22863354  HIT:   22863354  MISS:          0
L1I RFO       ACCESS:          0  HIT:          0  MISS:          0
L1I PREFETCH  ACCESS:          0  HIT:          0  MISS:          0
L1I WRITEBACK ACCESS:          0  HIT:          0  MISS:          0
L2C TOTAL     ACCESS:    9504995  HIT:    2760748  MISS:    6744247
L2C LOAD      ACCESS:    5242290  HIT:    1989134  MISS:    3253156
L2C RFO       ACCESS:     361491  HIT:      69205  MISS:     292286
L2C PREFETCH  ACCESS:    3375031  HIT:     177599  MISS:    3197432
L2C WRITEBACK ACCESS:     526183  HIT:     524810  MISS:       1373

L2C Best-offset prefetcher final stats
LLC TOTAL     ACCESS:    7410520  HIT:    5629914  MISS:    1780606
LLC LOAD      ACCESS:    3189490  HIT:    2840133  MISS:     349357
LLC RFO       ACCESS:     292285  HIT:     291778  MISS:        507
LLC PREFETCH  ACCESS:    3501432  HIT:    2070705  MISS:    1430727
LLC WRITEBACK ACCESS:     427313  HIT:     427298  MISS:         15

CPU 2 cumulative IPC: 0.832842 instructions: 248915903 cycles: 298875368
L1D TOTAL     ACCESS:   51735114  HIT:   49576076  MISS:    2159038
L1D LOAD      ACCESS:   29917156  HIT:   29087175  MISS:     829981
L1D RFO       ACCESS:   21817958  HIT:   20488901  MISS:    1329057
L1D PREFETCH  ACCESS:          0  HIT:          0  MISS:          0
L1D WRITEBACK ACCESS:          0  HIT:          0  MISS:          0
L1I TOTAL     ACCESS:   64672703  HIT:   64578288  MISS:      94415
L1I LOAD      ACCESS:   64672703  HIT:   64578288  MISS:      94415
L1I RFO       ACCESS:          0  HIT:          0  MISS:          0
L1I PREFETCH  ACCESS:          0  HIT:          0  MISS:          0
L1I WRITEBACK ACCESS:          0  HIT:          0  MISS:          0
L2C TOTAL     ACCESS:    3884828  HIT:    2539797  MISS:    1345031
L2C LOAD      ACCESS:     924366  HIT:     787427  MISS:     136939
L2C RFO       ACCESS:    1329043  HIT:     301299  MISS:    1027744
L2C PREFETCH  ACCESS:     207054  HIT:      28085  MISS:     178969
L2C WRITEBACK ACCESS:    1424365  HIT:    1422986  MISS:       1379

L2C Best-offset prefetcher final stats
LLC TOTAL     ACCESS:    2416702  HIT:    1354537  MISS:    1062165
LLC LOAD      ACCESS:     125900  HIT:      66366  MISS:      59534
LLC RFO       ACCESS:    1027737  HIT:     138858  MISS:     888879
LLC PREFETCH  ACCESS:     195786  HIT:      86595  MISS:     109191
LLC WRITEBACK ACCESS:    1067279  HIT:    1062718  MISS:       4561

CPU 3 cumulative IPC: 1.67899 instructions: 501807426 cycles: 298875368
L1D TOTAL     ACCESS:   81630118  HIT:   79494638  MISS:    2135480
L1D LOAD      ACCESS:   66155673  HIT:   64141140  MISS:    2014533
L1D RFO       ACCESS:   15474445  HIT:   15353498  MISS:     120947
L1D PREFETCH  ACCESS:          0  HIT:          0  MISS:          0
L1D WRITEBACK ACCESS:          0  HIT:          0  MISS:          0
L1I TOTAL     ACCESS:  117906831  HIT:  117906755  MISS:         76
L1I LOAD      ACCESS:  117906831  HIT:  117906755  MISS:         76
L1I RFO       ACCESS:          0  HIT:          0  MISS:          0
L1I PREFETCH  ACCESS:          0  HIT:          0  MISS:          0
L1I WRITEBACK ACCESS:          0  HIT:          0  MISS:          0
L2C TOTAL     ACCESS:    2307001  HIT:    2252513  MISS:      54488
L2C LOAD      ACCESS:    2014609  HIT:    2013650  MISS:        959
L2C RFO       ACCESS:     119420  HIT:     117948  MISS:       1472
L2C PREFETCH  ACCESS:      51971  HIT:         11  MISS:      51960
L2C WRITEBACK ACCESS:     121001  HIT:     120904  MISS:         97

L2C Best-offset prefetcher final stats
LLC TOTAL     ACCESS:      55912  HIT:        300  MISS:      55612
LLC LOAD      ACCESS:        937  HIT:          0  MISS:        937
LLC RFO       ACCESS:       1472  HIT:          0  MISS:       1472
LLC PREFETCH  ACCESS:      51982  HIT:          0  MISS:      51982
LLC WRITEBACK ACCESS:       1521  HIT:        300  MISS:       1221

CPU 4 cumulative IPC: 1.55221 instructions: 463918632 cycles: 298875368
L1D TOTAL     ACCESS:  124935019  HIT:  124934863  MISS:        156
L1D LOAD      ACCESS:   53976898  HIT:   53976818  MISS:         80
L1D RFO       ACCESS:   70958121  HIT:   70958045  MISS:         76
L1D PREFETCH  ACCESS:          0  HIT:          0  MISS:          0
L1D WRITEBACK ACCESS:          0  HIT:          0  MISS:          0
L1I TOTAL     ACCESS:  102394113  HIT:  102376199  MISS:      17914
L1I LOAD      ACCESS:  102394113  HIT:  102376199  MISS:      17914
L1I RFO       ACCESS:          0  HIT:          0  MISS:          0
L1I PREFETCH  ACCESS:          0  HIT:          0  MISS:          0
L1I WRITEBACK ACCESS:          0  HIT:          0  MISS:          0
L2C TOTAL     ACCESS:      18530  HIT:      17329  MISS:       1201
L2C LOAD      ACCESS:      17994  HIT:      17241  MISS:        753
L2C RFO       ACCESS:         76  HIT:         12  MISS:         64
L2C PREFETCH  ACCESS:        457  HIT:         73  MISS:        384
L2C WRITEBACK ACCESS:          3  HIT:          3  MISS:          0

L2C Best-offset prefetcher final stats
LLC TOTAL     ACCESS:       1201  HIT:          0  MISS:       1201
LLC LOAD      ACCESS:        658  HIT:          0  MISS:        658
LLC RFO       ACCESS:         64  HIT:          0  MISS:         64
LLC PREFETCH  ACCESS:        479  HIT:          0  MISS:        479
LLC WRITEBACK ACCESS:          0  HIT:          0  MISS:          0

CPU 5 cumulative IPC: 1.45954 instructions: 436219146 cycles: 298875368
L1D TOTAL     ACCESS:   68831519  HIT:   67085659  MISS:    1745860
L1D LOAD      ACCESS:   41090425  HIT:   39836797  MISS:    1253628
L1D RFO       ACCESS:   27741094  HIT:   27248862  MISS:     492232
L1D PREFETCH  ACCESS:          0  HIT:          0  MISS:          0
L1D WRITEBACK ACCESS:          0  HIT:          0  MISS:          0
L1I TOTAL     ACCESS:  100139605  HIT:   98423382  MISS:    1716223
L1I LOAD      ACCESS:  100139605  HIT:   98423382  MISS:    1716223
L1I RFO       ACCESS:          0  HIT:          0  MISS:          0
L1I PREFETCH  ACCESS:          0  HIT:          0  MISS:          0
L1I WRITEBACK ACCESS:          0  HIT:          0  MISS:          0
L2C TOTAL     ACCESS:    4553779  HIT:    3620765  MISS:     933014
L2C LOAD      ACCESS:    2969840  HIT:    2728390  MISS:     241450
L2C RFO       ACCESS:     491112  HIT:     263892  MISS:     227220
L2C PREFETCH  ACCESS:     503834  HIT:      44749  MISS:     459085
L2C WRITEBACK ACCESS:     588993  HIT:     583734  MISS:       5259

L2C Best-offset prefetcher final stats
LLC TOTAL     ACCESS:    1229702  HIT:     747853  MISS:     481849
LLC LOAD      ACCESS:     220854  HIT:     159259  MISS:      61595
LLC RFO       ACCESS:     226383  HIT:      15304  MISS:     211079
LLC PREFETCH  ACCESS:     498332  HIT:     290382  MISS:     207950
LLC WRITEBACK ACCESS:     284133  HIT:     282908  MISS:       1225

CPU 6 cumulative IPC: 1.16478 instructions: 348125280 cycles: 298875368
L1D TOTAL     ACCESS:   63271217  HIT:   57497412  MISS:    5773805
L1D LOAD      ACCESS:   45079888  HIT:   41292893  MISS:    3786995
L1D RFO       ACCESS:   18191329  HIT:   16204519  MISS:    1986810
L1D PREFETCH  ACCESS:          0  HIT:          0  MISS:          0
L1D WRITEBACK ACCESS:          0  HIT:          0  MISS:          0
L1I TOTAL     ACCESS:   84212901  HIT:   84045836  MISS:     167065
L1I LOAD      ACCESS:   84212901  HIT:   84045836  MISS:     167065
L1I RFO       ACCESS:          0  HIT:          0  MISS:          0
L1I PREFETCH  ACCESS:          0  HIT:          0  MISS:          0
L1I WRITEBACK ACCESS:          0  HIT:          0  MISS:          0
L2C TOTAL     ACCESS:    9942313  HIT:    7013853  MISS:    2928460
L2C LOAD      ACCESS:    3953789  HIT:    3369782  MISS:     584007
L2C RFO       ACCESS:    1986701  HIT:    1041419  MISS:     945282
L2C PREFETCH  ACCESS:    1486757  HIT:      89646  MISS:    1397111
L2C WRITEBACK ACCESS:    2515066  HIT:    2513006  MISS:       2060

L2C Best-offset prefetcher final stats
LLC TOTAL     ACCESS:    4244388  HIT:    3144220  MISS:    1100168
LLC LOAD      ACCESS:     468162  HIT:     380455  MISS:      87707
LLC RFO       ACCESS:     945272  HIT:     498219  MISS:     447053
LLC PREFETCH  ACCESS:    1525571  HIT:     964174  MISS:     561397
LLC WRITEBACK ACCESS:    1305383  HIT:    1301372  MISS:       4011

CPU 7 cumulative IPC: 0.753774 instructions: 225284573 cycles: 298875368
L1D TOTAL     ACCESS:   84330010  HIT:   84311652  MISS:      18358
L1D LOAD      ACCESS:   35651776  HIT:   35634168  MISS:      17608
L1D RFO       ACCESS:   48678234  HIT:   48677484  MISS:        750
L1D PREFETCH  ACCESS:          0  HIT:          0  MISS:          0
L1D WRITEBACK ACCESS:          0  HIT:          0  MISS:          0
L1I TOTAL     ACCESS:   61576995  HIT:   61569998  MISS:       6997
L1I LOAD      ACCESS:   61576995  HIT:   61569998  MISS:       6997
L1I RFO       ACCESS:          0  HIT:          0  MISS:          0
L1I PREFETCH  ACCESS:          0  HIT:          0  MISS:          0
L1I WRITEBACK ACCESS:          0  HIT:          0  MISS:          0
L2C TOTAL     ACCESS:      41384  HIT:      20046  MISS:      21338
L2C LOAD      ACCESS:      24605  HIT:      12871  MISS:      11734
L2C RFO       ACCESS:        750  HIT:        292  MISS:        458
L2C PREFETCH  ACCESS:      13899  HIT:       4786  MISS:       9113
L2C WRITEBACK ACCESS:       2130  HIT:       2097  MISS:         33

L2C Best-offset prefetcher final stats
LLC TOTAL     ACCESS:      22988  HIT:         29  MISS:      22959
LLC LOAD      ACCESS:      11338  HIT:          6  MISS:      11332
LLC RFO       ACCESS:        458  HIT:          6  MISS:        452
LLC PREFETCH  ACCESS:       9513  HIT:          0  MISS:       9513
LLC WRITEBACK ACCESS:       1679  HIT:         17  MISS:       1662

Region of Interest Statistics

CPU 0 cumulative IPC: 0.575528 instructions: 100000001 cycles: 173753462
L1D TOTAL     ACCESS:   29670807  HIT:   28745761  MISS:     925046
L1D LOAD      ACCESS:   27815791  HIT:   26891249  MISS:     924542
L1D RFO       ACCESS:    1855016  HIT:    1854512  MISS:        504
L1D PREFETCH  ACCESS:          0  HIT:          0  MISS:          0
L1D WRITEBACK ACCESS:          0  HIT:          0  MISS:          0
L1D PREFETCH  REQUESTED:          0  ISSUED:          0  USEFUL:          0  USELESS:          0
L1I TOTAL     ACCESS:   33689721  HIT:   33689721  MISS:          0
L1I LOAD      ACCESS:   33689721  HIT:   33689721  MISS:          0
L1I RFO       ACCESS:          0  HIT:          0  MISS:          0
L1I PREFETCH  ACCESS:          0  HIT:          0  MISS:          0
L1I WRITEBACK ACCESS:          0  HIT:          0  MISS:          0
L1I PREFETCH  REQUESTED:          0  ISSUED:          0  USEFUL:          0  USELESS:          0
L2C TOTAL     ACCESS:    1014162  HIT:     918521  MISS:      95641
L2C LOAD      ACCESS:     924542  HIT:     907896  MISS:      16646
L2C RFO       ACCESS:        504  HIT:        435  MISS:         69
L2C PREFETCH  ACCESS:      88612  HIT:       9687  MISS:      78925
L2C WRITEBACK ACCESS:        504  HIT:        503  MISS:          1
L2C PREFETCH  REQUESTED:     189162  ISSUED:     189162  USEFUL:     156391  USELESS:       9833
LLC TOTAL     ACCESS:      95711  HIT:      16965  MISS:      78746
LLC LOAD      ACCESS:      16367  HIT:       8198  MISS:       8169
LLC RFO       ACCESS:         69  HIT:          6  MISS:         63
LLC PREFETCH  ACCESS:      79204  HIT:       8694  MISS:      70510
LLC WRITEBACK ACCESS:         71  HIT:         67  MISS:          4
LLC PREFETCH  REQUESTED:          0  ISSUED:          0  USEFUL:     357043  USELESS:    2408149
Major fault: 0 Minor fault: 2699

CPU 1 cumulative IPC: 0.334588 instructions: 100000001 cycles: 298875367
L1D TOTAL     ACCESS:   36786315  HIT:   31182518  MISS:    5603797
L1D LOAD      ACCESS:   27193096  HIT:   21950796  MISS:    5242300
L1D RFO       ACCESS:    9593219  HIT:    9231722  MISS:     361497
L1D PREFETCH  ACCESS:          0  HIT:          0  MISS:          0
L1D WRITEBACK ACCESS:          0  HIT:          0  MISS:          0
L1D PREFETCH  REQUESTED:          0  ISSUED:          0  USEFUL:          0  USELESS:          0
L1I TOTAL     ACCESS:   22863354  HIT:   22863354  MISS:          0
L1I LOAD      ACCESS:   22863354  HIT:   22863354  MISS:          0
L1I RFO       ACCESS:          0  HIT:          0  MISS:          0
L1I PREFETCH  ACCESS:          0  HIT:          0  MISS:          0
L1I WRITEBACK ACCESS:          0  HIT:          0  MISS:          0
L1I PREFETCH  REQUESTED:          0  ISSUED:          0  USEFUL:          0  USELESS:          0
L2C TOTAL     ACCESS:    9504995  HIT:    2760748  MISS:    6744247
L2C LOAD      ACCESS:    5242290  HIT:    1989134  MISS:    3253156
L2C RFO       ACCESS:     361491  HIT:      69205  MISS:     292286
L2C PREFETCH  ACCESS:    3375031  HIT:     177599  MISS:    3197432
L2C WRITEBACK ACCESS:     526183  HIT:     524810  MISS:       1373
L2C PREFETCH  REQUESTED:    4468077  ISSUED:    4468077  USEFUL:    1521861  USELESS:    2397547
LLC TOTAL     ACCESS:    7410520  HIT:    5629914  MISS:    1780606
LLC LOAD      ACCESS:    3189490  HIT:    2840133  MISS:     349357
LLC RFO       ACCESS:     292285  HIT:     291778  MISS:        507
LLC PREFETCH  ACCESS:    3501432  HIT:    2070705  MISS:    1430727
LLC WRITEBACK ACCESS:     427313  HIT:     427298  MISS:         15
LLC PREFETCH  REQUESTED:          0  ISSUED:          0  USEFUL:     357043  USELESS:    2408149
Major fault: 0 Minor fault: 29293

CPU 2 cumulative IPC: 0.822335 instructions: 100000002 cycles: 121604882
L1D TOTAL     ACCESS:   20623175  HIT:   19635953  MISS:     987222
L1D LOAD      ACCESS:   12111213  HIT:   11756569  MISS:     354644
L1D RFO       ACCESS:    8511962  HIT:    7879384  MISS:     632578
L1D PREFETCH  ACCESS:          0  HIT:          0  MISS:          0
L1D WRITEBACK ACCESS:          0  HIT:          0  MISS:          0
L1D PREFETCH  REQUESTED:          0  ISSUED:          0  USEFUL:          0  USELESS:          0
L1I TOTAL     ACCESS:   26037889  HIT:   25999633  MISS:      38256
L1I LOAD      ACCESS:   26037889  HIT:   25999633  MISS:      38256
L1I RFO       ACCESS:          0  HIT:          0  MISS:          0
L1I PREFETCH  ACCESS:          0  HIT:          0  MISS:          0
L1I WRITEBACK ACCESS:          0  HIT:          0  MISS:          0
L1I PREFETCH  REQUESTED:          0  ISSUED:          0  USEFUL:          0  USELESS:          0
L2C TOTAL     ACCESS:    1788073  HIT:    1149530  MISS:     638543
L2C LOAD      ACCESS:     392887  HIT:     340175  MISS:      52712
L2C RFO       ACCESS:     632570  HIT:     122949  MISS:     509621
L2C PREFETCH  ACCESS:      87212  HIT:      11628  MISS:      75584
L2C WRITEBACK ACCESS:     675404  HIT:     674778  MISS:        626
L2C PREFETCH  REQUESTED:     244430  ISSUED:     244430  USEFUL:     117725  USELESS:      70778
LLC TOTAL     ACCESS:    1167133  HIT:     676682  MISS:     490451
LLC LOAD      ACCESS:      47352  HIT:      21861  MISS:      25491
LLC RFO       ACCESS:     509616  HIT:      91661  MISS:     417955
LLC PREFETCH  ACCESS:      83201  HIT:      38561  MISS:      44640
LLC WRITEBACK ACCESS:     526964  HIT:     524599  MISS:       2365
LLC PREFETCH  REQUESTED:          0  ISSUED:          0  USEFUL:     357043  USELESS:    2408149
Major fault: 0 Minor fault: 6835

CPU 3 cumulative IPC: 1.68151 instructions: 100000000 cycles: 59470379
L1D TOTAL     ACCESS:   16256631  HIT:   15830686  MISS:     425945
L1D LOAD      ACCESS:   13181164  HIT:   12779326  MISS:     401838
L1D RFO       ACCESS:    3075467  HIT:    3051360  MISS:      24107
L1D PREFETCH  ACCESS:          0  HIT:          0  MISS:          0
L1D WRITEBACK ACCESS:          0  HIT:          0  MISS:          0
L1D PREFETCH  REQUESTED:          0  ISSUED:          0  USEFUL:          0  USELESS:          0
L1I TOTAL     ACCESS:   23490695  HIT:   23490695  MISS:          0
L1I LOAD      ACCESS:   23490695  HIT:   23490695  MISS:          0
L1I RFO       ACCESS:          0  HIT:          0  MISS:          0
L1I PREFETCH  ACCESS:          0  HIT:          0  MISS:          0
L1I WRITEBACK ACCESS:          0  HIT:          0  MISS:          0
L1I PREFETCH  REQUESTED:          0  ISSUED:          0  USEFUL:          0  USELESS:          0
L2C TOTAL     ACCESS:     460062  HIT:     449220  MISS:      10842
L2C LOAD      ACCESS:     401838  HIT:     401672  MISS:        166
L2C RFO       ACCESS:      23766  HIT:      23473  MISS:        293
L2C PREFETCH  ACCESS:      10355  HIT:          0  MISS:      10355
L2C WRITEBACK ACCESS:      24103  HIT:      24075  MISS:         28
L2C PREFETCH  REQUESTED:      56078  ISSUED:      56078  USEFUL:      55842  USELESS:         90
LLC TOTAL     ACCESS:      11111  HIT:         48  MISS:      11063
LLC LOAD      ACCESS:        166  HIT:          0  MISS:        166
LLC RFO       ACCESS:        293  HIT:          0  MISS:        293
LLC PREFETCH  ACCESS:      10355  HIT:          0  MISS:      10355
LLC WRITEBACK ACCESS:        297  HIT:         48  MISS:        249
LLC PREFETCH  REQUESTED:          0  ISSUED:          0  USEFUL:     357043  USELESS:    2408149
Major fault: 0 Minor fault: 853

CPU 4 cumulative IPC: 1.49246 instructions: 100000001 cycles: 67003335
L1D TOTAL     ACCESS:   26988772  HIT:   26988616  MISS:        156
L1D LOAD      ACCESS:   11833963  HIT:   11833883  MISS:         80
L1D RFO       ACCESS:   15154809  HIT:   15154733  MISS:         76
L1D PREFETCH  ACCESS:          0  HIT:          0  MISS:          0
L1D WRITEBACK ACCESS:          0  HIT:          0  MISS:          0
L1D PREFETCH  REQUESTED:          0  ISSUED:          0  USEFUL:          0  USELESS:          0
L1I TOTAL     ACCESS:   22157444  HIT:   22150485  MISS:       6959
L1I LOAD      ACCESS:   22157444  HIT:   22150485  MISS:       6959
L1I RFO       ACCESS:          0  HIT:          0  MISS:          0
L1I PREFETCH  ACCESS:          0  HIT:          0  MISS:          0
L1I WRITEBACK ACCESS:          0  HIT:          0  MISS:          0
L1I PREFETCH  REQUESTED:          0  ISSUED:          0  USEFUL:          0  USELESS:          0
L2C TOTAL     ACCESS:       7572  HIT:       6377  MISS:       1195
L2C LOAD      ACCESS:       7039  HIT:       6290  MISS:        749
L2C RFO       ACCESS:         76  HIT:         12  MISS:         64
L2C PREFETCH  ACCESS:        454  HIT:         72  MISS:        382
L2C WRITEBACK ACCESS:          3  HIT:          3  MISS:          0
L2C PREFETCH  REQUESTED:       1396  ISSUED:       1396  USEFUL:        468  USELESS:          0
LLC TOTAL     ACCESS:       1195  HIT:          0  MISS:       1195
LLC LOAD      ACCESS:        654  HIT:          0  MISS:        654
LLC RFO       ACCESS:         64  HIT:          0  MISS:         64
LLC PREFETCH  ACCESS:        477  HIT:          0  MISS:        477
LLC WRITEBACK ACCESS:          0  HIT:          0  MISS:          0
LLC PREFETCH  REQUESTED:          0  ISSUED:          0  USEFUL:     357043  USELESS:    2408149
Major fault: 0 Minor fault: 50

CPU 5 cumulative IPC: 1.42209 instructions: 100000000 cycles: 70319053
L1D TOTAL     ACCESS:   16109790  HIT:   15770876  MISS:     338914
L1D LOAD      ACCESS:    9602607  HIT:    9368549  MISS:     234058
L1D RFO       ACCESS:    6507183  HIT:    6402327  MISS:     104856
L1D PREFETCH  ACCESS:          0  HIT:          0  MISS:          0
L1D WRITEBACK ACCESS:          0  HIT:          0  MISS:          0
L1D PREFETCH  REQUESTED:          0  ISSUED:          0  USEFUL:          0  USELESS:          0
L1I TOTAL     ACCESS:   22186727  HIT:   21652475  MISS:     534252
L1I LOAD      ACCESS:   22186727  HIT:   21652475  MISS:     534252
L1I RFO       ACCESS:          0  HIT:          0  MISS:          0
L1I PREFETCH  ACCESS:          0  HIT:          0  MISS:          0
L1I WRITEBACK ACCESS:          0  HIT:          0  MISS:          0
L1I PREFETCH  REQUESTED:          0  ISSUED:          0  USEFUL:          0  USELESS:          0
L2C TOTAL     ACCESS:    1124877  HIT:     900127  MISS:     224750
L2C LOAD      ACCESS:     768308  HIT:     715071  MISS:      53237
L2C RFO       ACCESS:     104749  HIT:      40976  MISS:      63773
L2C PREFETCH  ACCESS:     113788  HIT:       7080  MISS:     106708
L2C WRITEBACK ACCESS:     138032  HIT:     137000  MISS:       1032
L2C PREFETCH  REQUESTED:     602180  ISSUED:     602180  USEFUL:     381013  USELESS:      95458
LLC TOTAL     ACCESS:     319410  HIT:     193152  MISS:     126258
LLC LOAD      ACCESS:      43230  HIT:      30728  MISS:      12502
LLC RFO       ACCESS:      63471  HIT:       2146  MISS:      61325
LLC PREFETCH  ACCESS:     125206  HIT:      72995  MISS:      52211
LLC WRITEBACK ACCESS:      87503  HIT:      87283  MISS:        220
LLC PREFETCH  REQUESTED:          0  ISSUED:          0  USEFUL:     357043  USELESS:    2408149
Major fault: 0 Minor fault: 6334

CPU 6 cumulative IPC: 1.20473 instructions: 100000001 cycles: 83006318
L1D TOTAL     ACCESS:   19008923  HIT:   17137020  MISS:    1871903
L1D LOAD      ACCESS:   13688255  HIT:   12496508  MISS:    1191747
L1D RFO       ACCESS:    5320668  HIT:    4640512  MISS:     680156
L1D PREFETCH  ACCESS:          0  HIT:          0  MISS:          0
L1D WRITEBACK ACCESS:          0  HIT:          0  MISS:          0
L1D PREFETCH  REQUESTED:          0  ISSUED:          0  USEFUL:          0  USELESS:          0
L1I TOTAL     ACCESS:   23328747  HIT:   23281415  MISS:      47332
L1I LOAD      ACCESS:   23328747  HIT:   23281415  MISS:      47332
L1I RFO       ACCESS:          0  HIT:          0  MISS:          0
L1I PREFETCH  ACCESS:          0  HIT:          0  MISS:          0
L1I WRITEBACK ACCESS:          0  HIT:          0  MISS:          0
L1I PREFETCH  REQUESTED:          0  ISSUED:          0  USEFUL:          0  USELESS:          0
L2C TOTAL     ACCESS:    3220377  HIT:    2324439  MISS:     895938
L2C LOAD      ACCESS:    1238968  HIT:    1066757  MISS:     172211
L2C RFO       ACCESS:     680093  HIT:     386369  MISS:     293724
L2C PREFETCH  ACCESS:     455530  HIT:      26096  MISS:     429434
L2C WRITEBACK ACCESS:     845786  HIT:     845217  MISS:        569
L2C PREFETCH  REQUESTED:    1952395  ISSUED:    1952218  USEFUL:    1443699  USELESS:     215028
LLC TOTAL     ACCESS:    1306204  HIT:     974404  MISS:     331800
LLC LOAD      ACCESS:     136889  HIT:     113492  MISS:      23397
LLC RFO       ACCESS:     293721  HIT:     145495  MISS:     148226
LLC PREFETCH  ACCESS:     468213  HIT:     308179  MISS:     160034
LLC WRITEBACK ACCESS:     407381  HIT:     407238  MISS:        143
LLC PREFETCH  REQUESTED:          0  ISSUED:          0  USEFUL:     357043  USELESS:    2408149
Major fault: 0 Minor fault: 13202

CPU 7 cumulative IPC: 0.782831 instructions: 100000000 cycles: 127741533
L1D TOTAL     ACCESS:   37549544  HIT:   37542482  MISS:       7062
L1D LOAD      ACCESS:   15614938  HIT:   15608184  MISS:       6754
L1D RFO       ACCESS:   21934606  HIT:   21934298  MISS:        308
L1D PREFETCH  ACCESS:          0  HIT:          0  MISS:          0
L1D WRITEBACK ACCESS:          0  HIT:          0  MISS:          0
L1D PREFETCH  REQUESTED:          0  ISSUED:          0  USEFUL:          0  USELESS:          0
L1I TOTAL     ACCESS:   27566907  HIT:   27564027  MISS:       2880
L1I LOAD      ACCESS:   27566907  HIT:   27564027  MISS:       2880
L1I RFO       ACCESS:          0  HIT:          0  MISS:          0
L1I PREFETCH  ACCESS:          0  HIT:          0  MISS:          0
L1I WRITEBACK ACCESS:          0  HIT:          0  MISS:          0
L1I PREFETCH  REQUESTED:          0  ISSUED:          0  USEFUL:          0  USELESS:          0
L2C TOTAL     ACCESS:      16153  HIT:       7849  MISS:       8304
L2C LOAD      ACCESS:       9634  HIT:       5063  MISS:       4571
L2C RFO       ACCESS:        308  HIT:        120  MISS:        188
L2C PREFETCH  ACCESS:       5377  HIT:       1843  MISS:       3534
L2C WRITEBACK ACCESS:        834  HIT:        823  MISS:         11
L2C PREFETCH  REQUESTED:      17355  ISSUED:      17355  USEFUL:       4364  USELESS:       5311
LLC TOTAL     ACCESS:       8867  HIT:          8  MISS:       8859
LLC LOAD      ACCESS:       4390  HIT:          4  MISS:       4386
LLC RFO       ACCESS:        188  HIT:          0  MISS:        188
LLC PREFETCH  ACCESS:       3715  HIT:          0  MISS:       3715
LLC WRITEBACK ACCESS:        574  HIT:          4  MISS:        570
LLC PREFETCH  REQUESTED:          0  ISSUED:          0  USEFUL:     357043  USELESS:    2408149
Major fault: 0 Minor fault: 1564

L2C Best-offset prefetcher final stats

L2C Best-offset prefetcher final stats

L2C Best-offset prefetcher final stats

L2C Best-offset prefetcher final stats

L2C Best-offset prefetcher final stats

L2C Best-offset prefetcher final stats

L2C Best-offset prefetcher final stats

L2C Best-offset prefetcher final stats

DRAM Statistics
 CHANNEL 0
 RQ ROW_BUFFER_HIT:    1365633  ROW_BUFFER_MISS:     946199
 DBUS_CONGESTED:    3432365
 WQ ROW_BUFFER_HIT:     157372  ROW_BUFFER_MISS:     722216  FULL:          0

 CHANNEL 1
 RQ ROW_BUFFER_HIT:    1364179  ROW_BUFFER_MISS:     951593
 DBUS_CONGESTED:    3432365
 WQ ROW_BUFFER_HIT:     157213  ROW_BUFFER_MISS:     722846  FULL:          0

 AVG_CONGESTED_CYCLE: 13
