
*** ChampSim Multicore Out-of-Order Simulator ***

Warmup Instructions: 20000000
Simulation Instructions: 100000000
Number of CPUs: 8
LLC sets: 16384
LLC ways: 16
Off-chip DRAM Size: 8192 MB Channels: 2 Width: 64-bit Data Rate: 1600 MT/s

CPU 0 runs /scratch/user/djimenez/champsim-traces/speccpu2017/xz/625.x264_s/625.x264_s-12B.champsimtrace.xz
CPU 1 runs /scratch/user/djimenez/champsim-traces/speccpu2017/xz/649.fotonik3d_s/649.fotonik3d_s-8225B.champsimtrace.xz
CPU 2 runs /scratch/user/djimenez/champsim-traces/speccpu2017/xz/641.leela_s/641.leela_s-334B.champsimtrace.xz
CPU 3 runs /scratch/user/djimenez/champsim-traces/speccpu2017/xz/641.leela_s/641.leela_s-1083B.champsimtrace.xz
CPU 4 runs /scratch/user/djimenez/champsim-traces/speccpu2017/xz/603.bwaves_s/603.bwaves_s-1740B.champsimtrace.xz
CPU 5 runs /scratch/user/djimenez/champsim-traces/speccpu2017/xz/641.leela_s/641.leela_s-1052B.champsimtrace.xz
CPU 6 runs /scratch/user/djimenez/champsim-traces/speccpu2017/xz/654.roms_s/654.roms_s-1007B.champsimtrace.xz
CPU 7 runs /scratch/user/djimenez/champsim-traces/speccpu2017/xz/607.cactuBSSN_s/607.cactuBSSN_s-4004B.champsimtrace.xz
L2C Best-offset prefetcher
L2C Best-offset prefetcher
L2C Best-offset prefetcher
L2C Best-offset prefetcher
L2C Best-offset prefetcher
L2C Best-offset prefetcher
L2C Best-offset prefetcher
L2C Best-offset prefetcher
Heartbeat CPU 0 instructions: 10000001 cycles: 3759939 heartbeat IPC: 2.65962 cumulative IPC: 2.65962 (Simulation time: 0 hr 2 min 51 sec) 
Heartbeat CPU 1 instructions: 10000001 cycles: 4400847 heartbeat IPC: 2.27229 cumulative IPC: 2.27229 (Simulation time: 0 hr 3 min 20 sec) 
Heartbeat CPU 6 instructions: 10000002 cycles: 5109350 heartbeat IPC: 1.9572 cumulative IPC: 1.9572 (Simulation time: 0 hr 3 min 51 sec) 
Heartbeat CPU 4 instructions: 10000001 cycles: 5274050 heartbeat IPC: 1.89608 cumulative IPC: 1.89608 (Simulation time: 0 hr 3 min 59 sec) 
Heartbeat CPU 7 instructions: 10000000 cycles: 5802646 heartbeat IPC: 1.72335 cumulative IPC: 1.72335 (Simulation time: 0 hr 4 min 23 sec) 
Heartbeat CPU 3 instructions: 10000000 cycles: 6307177 heartbeat IPC: 1.5855 cumulative IPC: 1.5855 (Simulation time: 0 hr 4 min 45 sec) 
Heartbeat CPU 5 instructions: 10000002 cycles: 6328311 heartbeat IPC: 1.5802 cumulative IPC: 1.5802 (Simulation time: 0 hr 4 min 46 sec) 
Heartbeat CPU 2 instructions: 10000001 cycles: 6392949 heartbeat IPC: 1.56422 cumulative IPC: 1.56422 (Simulation time: 0 hr 4 min 49 sec) 
Heartbeat CPU 0 instructions: 20000000 cycles: 7571416 heartbeat IPC: 2.62365 cumulative IPC: 2.64151 (Simulation time: 0 hr 5 min 42 sec) 
Heartbeat CPU 1 instructions: 20000000 cycles: 8801438 heartbeat IPC: 2.27242 cumulative IPC: 2.27236 (Simulation time: 0 hr 6 min 37 sec) 
Heartbeat CPU 6 instructions: 20000000 cycles: 10218135 heartbeat IPC: 1.95741 cumulative IPC: 1.9573 (Simulation time: 0 hr 7 min 47 sec) 
Heartbeat CPU 4 instructions: 20000000 cycles: 10550044 heartbeat IPC: 1.89538 cumulative IPC: 1.89573 (Simulation time: 0 hr 8 min 3 sec) 
Heartbeat CPU 0 instructions: 30000001 cycles: 11374997 heartbeat IPC: 2.6291 cumulative IPC: 0.879121 (Simulation time: 0 hr 8 min 42 sec) 
Heartbeat CPU 7 instructions: 20000000 cycles: 11605577 heartbeat IPC: 1.72327 cumulative IPC: 1.72331 (Simulation time: 0 hr 8 min 54 sec) 
Heartbeat CPU 3 instructions: 20000000 cycles: 12630751 heartbeat IPC: 1.58138 cumulative IPC: 1.58344 (Simulation time: 0 hr 9 min 43 sec) 
Heartbeat CPU 5 instructions: 20000000 cycles: 12641557 heartbeat IPC: 1.58397 cumulative IPC: 1.58208 (Simulation time: 0 hr 9 min 44 sec) 
Heartbeat CPU 2 instructions: 20000000 cycles: 12790230 heartbeat IPC: 1.56316 cumulative IPC: 1.56369 (Simulation time: 0 hr 9 min 51 sec) 

Warmup complete CPU 0 instructions: 33730801 cycles: 12790231 (Simulation time: 0 hr 9 min 51 sec) 
Warmup complete CPU 1 instructions: 29065318 cycles: 12790231 (Simulation time: 0 hr 9 min 51 sec) 
Warmup complete CPU 2 instructions: 20000001 cycles: 12790231 (Simulation time: 0 hr 9 min 51 sec) 
Warmup complete CPU 3 instructions: 20253387 cycles: 12790230 (Simulation time: 0 hr 9 min 51 sec) 
Warmup complete CPU 4 instructions: 24244738 cycles: 12790230 (Simulation time: 0 hr 9 min 51 sec) 
Warmup complete CPU 5 instructions: 20246225 cycles: 12790230 (Simulation time: 0 hr 9 min 51 sec) 
Warmup complete CPU 6 instructions: 25034552 cycles: 12790230 (Simulation time: 0 hr 9 min 51 sec) 
Warmup complete CPU 7 instructions: 22042368 cycles: 12790230 (Simulation time: 0 hr 9 min 51 sec) 

Heartbeat CPU 1 instructions: 30000000 cycles: 13853871 heartbeat IPC: 1.97924 cumulative IPC: 0.878758 (Simulation time: 0 hr 10 min 19 sec) 
Heartbeat CPU 0 instructions: 40000000 cycles: 17536467 heartbeat IPC: 1.62299 cumulative IPC: 1.32088 (Simulation time: 0 hr 11 min 57 sec) 
Heartbeat CPU 4 instructions: 30000003 cycles: 18455858 heartbeat IPC: 1.26489 cumulative IPC: 1.01582 (Simulation time: 0 hr 12 min 22 sec) 
Heartbeat CPU 7 instructions: 30000003 cycles: 20321787 heartbeat IPC: 1.14729 cumulative IPC: 1.05657 (Simulation time: 0 hr 13 min 11 sec) 
Heartbeat CPU 6 instructions: 30000000 cycles: 21311956 heartbeat IPC: 0.901403 cumulative IPC: 0.582681 (Simulation time: 0 hr 13 min 37 sec) 
Heartbeat CPU 1 instructions: 40000000 cycles: 24723333 heartbeat IPC: 0.920009 cumulative IPC: 0.916332 (Simulation time: 0 hr 15 min 7 sec) 
Heartbeat CPU 0 instructions: 50000003 cycles: 25054819 heartbeat IPC: 1.33008 cumulative IPC: 1.32652 (Simulation time: 0 hr 15 min 15 sec) 
Heartbeat CPU 4 instructions: 40000000 cycles: 27775232 heartbeat IPC: 1.07303 cumulative IPC: 1.0514 (Simulation time: 0 hr 16 min 27 sec) 
Heartbeat CPU 7 instructions: 40000000 cycles: 29734571 heartbeat IPC: 1.06238 cumulative IPC: 1.0598 (Simulation time: 0 hr 17 min 17 sec) 
Heartbeat CPU 0 instructions: 60000000 cycles: 32653408 heartbeat IPC: 1.31603 cumulative IPC: 1.32251 (Simulation time: 0 hr 18 min 34 sec) 
Heartbeat CPU 5 instructions: 30000002 cycles: 35184550 heartbeat IPC: 0.443597 cumulative IPC: 0.435547 (Simulation time: 0 hr 19 min 40 sec) 
Heartbeat CPU 3 instructions: 30000002 cycles: 35407136 heartbeat IPC: 0.439051 cumulative IPC: 0.430944 (Simulation time: 0 hr 19 min 45 sec) 
Heartbeat CPU 2 instructions: 30000000 cycles: 35823068 heartbeat IPC: 0.434163 cumulative IPC: 0.434163 (Simulation time: 0 hr 19 min 56 sec) 
Heartbeat CPU 4 instructions: 50000003 cycles: 37097345 heartbeat IPC: 1.07272 cumulative IPC: 1.05958 (Simulation time: 0 hr 20 min 29 sec) 
Heartbeat CPU 1 instructions: 50000000 cycles: 38282973 heartbeat IPC: 0.737483 cumulative IPC: 0.821202 (Simulation time: 0 hr 21 min 0 sec) 
Heartbeat CPU 6 instructions: 40000000 cycles: 38449203 heartbeat IPC: 0.583524 cumulative IPC: 0.583244 (Simulation time: 0 hr 21 min 5 sec) 
Heartbeat CPU 7 instructions: 50000000 cycles: 39149896 heartbeat IPC: 1.0621 cumulative IPC: 1.06062 (Simulation time: 0 hr 21 min 23 sec) 
Heartbeat CPU 0 instructions: 70000002 cycles: 40405716 heartbeat IPC: 1.28994 cumulative IPC: 1.31336 (Simulation time: 0 hr 21 min 56 sec) 
Heartbeat CPU 4 instructions: 60000000 cycles: 46432884 heartbeat IPC: 1.07118 cumulative IPC: 1.0628 (Simulation time: 0 hr 25 min 41 sec) 
Heartbeat CPU 0 instructions: 80000000 cycles: 48011680 heartbeat IPC: 1.31476 cumulative IPC: 1.31367 (Simulation time: 0 hr 27 min 0 sec) 
Heartbeat CPU 7 instructions: 60000000 cycles: 48624836 heartbeat IPC: 1.05542 cumulative IPC: 1.05925 (Simulation time: 0 hr 27 min 33 sec) 
Heartbeat CPU 6 instructions: 50000003 cycles: 52926348 heartbeat IPC: 0.690744 cumulative IPC: 0.62202 (Simulation time: 0 hr 29 min 39 sec) 
Heartbeat CPU 1 instructions: 60000000 cycles: 53079325 heartbeat IPC: 0.675842 cumulative IPC: 0.767818 (Simulation time: 0 hr 29 min 43 sec) 
Heartbeat CPU 0 instructions: 90000002 cycles: 55616119 heartbeat IPC: 1.31502 cumulative IPC: 1.31391 (Simulation time: 0 hr 30 min 47 sec) 
Heartbeat CPU 4 instructions: 70000001 cycles: 56536746 heartbeat IPC: 0.989721 cumulative IPC: 1.04592 (Simulation time: 0 hr 31 min 10 sec) 
Heartbeat CPU 5 instructions: 40000000 cycles: 58120522 heartbeat IPC: 0.435996 cumulative IPC: 0.435774 (Simulation time: 0 hr 31 min 47 sec) 
Heartbeat CPU 7 instructions: 70000002 cycles: 58160566 heartbeat IPC: 1.04869 cumulative IPC: 1.05703 (Simulation time: 0 hr 31 min 48 sec) 
Heartbeat CPU 3 instructions: 40000000 cycles: 58485440 heartbeat IPC: 0.433307 cumulative IPC: 0.432137 (Simulation time: 0 hr 31 min 56 sec) 
Heartbeat CPU 2 instructions: 40000000 cycles: 58894400 heartbeat IPC: 0.433438 cumulative IPC: 0.4338 (Simulation time: 0 hr 32 min 6 sec) 
Heartbeat CPU 0 instructions: 100000000 cycles: 63219411 heartbeat IPC: 1.31522 cumulative IPC: 1.3141 (Simulation time: 0 hr 33 min 54 sec) 
Heartbeat CPU 4 instructions: 80000000 cycles: 66459864 heartbeat IPC: 1.00775 cumulative IPC: 1.03886 (Simulation time: 0 hr 35 min 17 sec) 
Heartbeat CPU 7 instructions: 80000000 cycles: 67641759 heartbeat IPC: 1.05472 cumulative IPC: 1.05663 (Simulation time: 0 hr 35 min 47 sec) 
Heartbeat CPU 1 instructions: 70000001 cycles: 67967043 heartbeat IPC: 0.671695 cumulative IPC: 0.741882 (Simulation time: 0 hr 35 min 56 sec) 
Heartbeat CPU 6 instructions: 60000000 cycles: 69643728 heartbeat IPC: 0.59818 cumulative IPC: 0.61501 (Simulation time: 0 hr 36 min 39 sec) 
Heartbeat CPU 0 instructions: 110000003 cycles: 70826693 heartbeat IPC: 1.31453 cumulative IPC: 1.31416 (Simulation time: 0 hr 37 min 9 sec) 
Heartbeat CPU 4 instructions: 90000000 cycles: 75593828 heartbeat IPC: 1.09481 cumulative IPC: 1.047 (Simulation time: 0 hr 39 min 13 sec) 
Heartbeat CPU 7 instructions: 90000000 cycles: 77045785 heartbeat IPC: 1.06337 cumulative IPC: 1.05761 (Simulation time: 0 hr 39 min 50 sec) 
Heartbeat CPU 0 instructions: 120000000 cycles: 78402690 heartbeat IPC: 1.31996 cumulative IPC: 1.31483 (Simulation time: 0 hr 40 min 25 sec) 
Heartbeat CPU 5 instructions: 50000000 cycles: 81069097 heartbeat IPC: 0.435757 cumulative IPC: 0.435768 (Simulation time: 0 hr 41 min 35 sec) 
Heartbeat CPU 1 instructions: 80000000 cycles: 81225736 heartbeat IPC: 0.754222 cumulative IPC: 0.744273 (Simulation time: 0 hr 41 min 39 sec) 
Heartbeat CPU 3 instructions: 50000001 cycles: 81703768 heartbeat IPC: 0.430694 cumulative IPC: 0.431651 (Simulation time: 0 hr 41 min 51 sec) 
Heartbeat CPU 2 instructions: 50000000 cycles: 82166113 heartbeat IPC: 0.429706 cumulative IPC: 0.432427 (Simulation time: 0 hr 42 min 3 sec) 
Heartbeat CPU 4 instructions: 100000000 cycles: 84816328 heartbeat IPC: 1.0843 cumulative IPC: 1.05178 (Simulation time: 0 hr 43 min 11 sec) 
Heartbeat CPU 0 instructions: 130000002 cycles: 86009742 heartbeat IPC: 1.31457 cumulative IPC: 1.3148 (Simulation time: 0 hr 43 min 42 sec) 
Heartbeat CPU 7 instructions: 100000000 cycles: 86436705 heartbeat IPC: 1.06486 cumulative IPC: 1.05854 (Simulation time: 0 hr 43 min 53 sec) 
Heartbeat CPU 6 instructions: 70000003 cycles: 86827495 heartbeat IPC: 0.581945 cumulative IPC: 0.607335 (Simulation time: 0 hr 44 min 3 sec) 
Finished CPU 0 instructions: 100000000 cycles: 76071547 cumulative IPC: 1.31455 (Simulation time: 0 hr 44 min 56 sec) 
Heartbeat CPU 0 instructions: 140000000 cycles: 93611678 heartbeat IPC: 1.31545 cumulative IPC: 1.31486 (Simulation time: 0 hr 46 min 59 sec) 
Heartbeat CPU 4 instructions: 110000000 cycles: 94083986 heartbeat IPC: 1.07902 cumulative IPC: 1.05488 (Simulation time: 0 hr 47 min 12 sec) 
Heartbeat CPU 1 instructions: 90000000 cycles: 94572624 heartbeat IPC: 0.749238 cumulative IPC: 0.745083 (Simulation time: 0 hr 47 min 30 sec) 
Heartbeat CPU 7 instructions: 110000001 cycles: 95818432 heartbeat IPC: 1.0659 cumulative IPC: 1.05937 (Simulation time: 0 hr 48 min 8 sec) 
Heartbeat CPU 0 instructions: 150000001 cycles: 101173474 heartbeat IPC: 1.32244 cumulative IPC: 1.31551 (Simulation time: 0 hr 50 min 27 sec) 
Heartbeat CPU 4 instructions: 120000000 cycles: 103265243 heartbeat IPC: 1.08918 cumulative IPC: 1.05836 (Simulation time: 0 hr 51 min 22 sec) 
Heartbeat CPU 5 instructions: 60000000 cycles: 103972261 heartbeat IPC: 0.436621 cumulative IPC: 0.435983 (Simulation time: 0 hr 51 min 40 sec) 
Heartbeat CPU 6 instructions: 80000000 cycles: 104029087 heartbeat IPC: 0.581341 cumulative IPC: 0.602435 (Simulation time: 0 hr 51 min 41 sec) 
Heartbeat CPU 3 instructions: 60000000 cycles: 104699973 heartbeat IPC: 0.434854 cumulative IPC: 0.432453 (Simulation time: 0 hr 51 min 59 sec) 
Heartbeat CPU 2 instructions: 60000000 cycles: 105167423 heartbeat IPC: 0.434758 cumulative IPC: 0.433007 (Simulation time: 0 hr 52 min 11 sec) 
Heartbeat CPU 7 instructions: 120000000 cycles: 105236759 heartbeat IPC: 1.06176 cumulative IPC: 1.05961 (Simulation time: 0 hr 52 min 13 sec) 
Finished CPU 4 instructions: 100000002 cycles: 94319416 cumulative IPC: 1.06023 (Simulation time: 0 hr 53 min 1 sec) 
Finished CPU 7 instructions: 100000000 cycles: 94362225 cumulative IPC: 1.05975 (Simulation time: 0 hr 53 min 2 sec) 
Heartbeat CPU 1 instructions: 100000000 cycles: 107998953 heartbeat IPC: 0.744805 cumulative IPC: 0.745044 (Simulation time: 0 hr 53 min 24 sec) 
Heartbeat CPU 0 instructions: 160000000 cycles: 108793831 heartbeat IPC: 1.31227 cumulative IPC: 1.31525 (Simulation time: 0 hr 53 min 45 sec) 
Heartbeat CPU 4 instructions: 130000003 cycles: 112345813 heartbeat IPC: 1.10125 cumulative IPC: 1.06227 (Simulation time: 0 hr 55 min 16 sec) 
Heartbeat CPU 7 instructions: 130000003 cycles: 114640152 heartbeat IPC: 1.06345 cumulative IPC: 1.05997 (Simulation time: 0 hr 56 min 16 sec) 
Heartbeat CPU 0 instructions: 170000002 cycles: 116474843 heartbeat IPC: 1.30191 cumulative IPC: 1.31427 (Simulation time: 0 hr 57 min 3 sec) 
Heartbeat CPU 6 instructions: 90000003 cycles: 121261274 heartbeat IPC: 0.58031 cumulative IPC: 0.59892 (Simulation time: 0 hr 59 min 7 sec) 
Heartbeat CPU 1 instructions: 110000002 cycles: 121439816 heartbeat IPC: 0.744 cumulative IPC: 0.744915 (Simulation time: 0 hr 59 min 12 sec) 
Heartbeat CPU 4 instructions: 140000000 cycles: 121576271 heartbeat IPC: 1.08337 cumulative IPC: 1.06406 (Simulation time: 0 hr 59 min 15 sec) 
Heartbeat CPU 7 instructions: 140000000 cycles: 124034844 heartbeat IPC: 1.06443 cumulative IPC: 1.06034 (Simulation time: 1 hr 0 min 26 sec) 
Heartbeat CPU 0 instructions: 180000000 cycles: 124176568 heartbeat IPC: 1.29841 cumulative IPC: 1.31317 (Simulation time: 1 hr 0 min 29 sec) 
Heartbeat CPU 5 instructions: 70000001 cycles: 126811674 heartbeat IPC: 0.43784 cumulative IPC: 0.436355 (Simulation time: 1 hr 1 min 51 sec) 
Heartbeat CPU 2 instructions: 70000000 cycles: 127985575 heartbeat IPC: 0.438248 cumulative IPC: 0.434045 (Simulation time: 1 hr 2 min 25 sec) 
Heartbeat CPU 3 instructions: 70000000 cycles: 127986841 heartbeat IPC: 0.429427 cumulative IPC: 0.431841 (Simulation time: 1 hr 2 min 25 sec) 
Heartbeat CPU 4 instructions: 150000001 cycles: 130648925 heartbeat IPC: 1.10221 cumulative IPC: 1.067 (Simulation time: 1 hr 3 min 47 sec) 
Heartbeat CPU 0 instructions: 190000003 cycles: 132654476 heartbeat IPC: 1.17954 cumulative IPC: 1.30372 (Simulation time: 1 hr 4 min 39 sec) 
Heartbeat CPU 7 instructions: 150000001 cycles: 133436332 heartbeat IPC: 1.06366 cumulative IPC: 1.0606 (Simulation time: 1 hr 5 min 0 sec) 
Heartbeat CPU 1 instructions: 120000000 cycles: 134893325 heartbeat IPC: 0.7433 cumulative IPC: 0.744737 (Simulation time: 1 hr 5 min 38 sec) 
Heartbeat CPU 6 instructions: 100000000 cycles: 138464906 heartbeat IPC: 0.581272 cumulative IPC: 0.596504 (Simulation time: 1 hr 7 min 11 sec) 
Heartbeat CPU 4 instructions: 160000000 cycles: 139739591 heartbeat IPC: 1.10003 cumulative IPC: 1.06937 (Simulation time: 1 hr 7 min 44 sec) 
Heartbeat CPU 0 instructions: 200000000 cycles: 140375385 heartbeat IPC: 1.29518 cumulative IPC: 1.3032 (Simulation time: 1 hr 8 min 0 sec) 
Heartbeat CPU 7 instructions: 160000000 cycles: 142863492 heartbeat IPC: 1.06076 cumulative IPC: 1.06061 (Simulation time: 1 hr 9 min 5 sec) 
Finished CPU 1 instructions: 100000001 cycles: 134203878 cumulative IPC: 0.745135 (Simulation time: 1 hr 10 min 59 sec) 
Heartbeat CPU 0 instructions: 210000000 cycles: 148162471 heartbeat IPC: 1.28418 cumulative IPC: 1.30211 (Simulation time: 1 hr 11 min 29 sec) 
Heartbeat CPU 1 instructions: 130000000 cycles: 148270276 heartbeat IPC: 0.747554 cumulative IPC: 0.745015 (Simulation time: 1 hr 11 min 32 sec) 
Heartbeat CPU 4 instructions: 170000000 cycles: 148902513 heartbeat IPC: 1.09135 cumulative IPC: 1.07085 (Simulation time: 1 hr 11 min 48 sec) 
Heartbeat CPU 5 instructions: 80000000 cycles: 149780298 heartbeat IPC: 0.435376 cumulative IPC: 0.436191 (Simulation time: 1 hr 12 min 11 sec) 
Heartbeat CPU 3 instructions: 80000000 cycles: 150742627 heartbeat IPC: 0.439449 cumulative IPC: 0.433096 (Simulation time: 1 hr 12 min 36 sec) 
Heartbeat CPU 2 instructions: 80000000 cycles: 150922428 heartbeat IPC: 0.43598 cumulative IPC: 0.434366 (Simulation time: 1 hr 12 min 40 sec) 
Heartbeat CPU 7 instructions: 170000000 cycles: 152268702 heartbeat IPC: 1.06324 cumulative IPC: 1.06079 (Simulation time: 1 hr 13 min 15 sec) 
Heartbeat CPU 6 instructions: 110000002 cycles: 155704617 heartbeat IPC: 0.580056 cumulative IPC: 0.59452 (Simulation time: 1 hr 14 min 44 sec) 
Heartbeat CPU 0 instructions: 220000000 cycles: 155970276 heartbeat IPC: 1.28077 cumulative IPC: 1.30094 (Simulation time: 1 hr 14 min 51 sec) 
Heartbeat CPU 4 instructions: 180000000 cycles: 158052978 heartbeat IPC: 1.09284 cumulative IPC: 1.07223 (Simulation time: 1 hr 15 min 45 sec) 
Heartbeat CPU 1 instructions: 140000000 cycles: 161698789 heartbeat IPC: 0.744684 cumulative IPC: 0.744985 (Simulation time: 1 hr 17 min 20 sec) 
Heartbeat CPU 7 instructions: 180000000 cycles: 161715987 heartbeat IPC: 1.05851 cumulative IPC: 1.06065 (Simulation time: 1 hr 17 min 20 sec) 
Heartbeat CPU 0 instructions: 230000001 cycles: 163763036 heartbeat IPC: 1.28324 cumulative IPC: 1.30003 (Simulation time: 1 hr 18 min 13 sec) 
Heartbeat CPU 4 instructions: 190000002 cycles: 167206914 heartbeat IPC: 1.09243 cumulative IPC: 1.07343 (Simulation time: 1 hr 19 min 42 sec) 
Heartbeat CPU 7 instructions: 190000002 cycles: 171152387 heartbeat IPC: 1.05973 cumulative IPC: 1.06059 (Simulation time: 1 hr 21 min 21 sec) 
Heartbeat CPU 6 instructions: 120000000 cycles: 171863690 heartbeat IPC: 0.618847 cumulative IPC: 0.596991 (Simulation time: 1 hr 21 min 39 sec) 
Heartbeat CPU 0 instructions: 240000000 cycles: 172372174 heartbeat IPC: 1.16156 cumulative IPC: 1.29256 (Simulation time: 1 hr 21 min 51 sec) 
Heartbeat CPU 5 instructions: 90000000 cycles: 172949542 heartbeat IPC: 0.431607 cumulative IPC: 0.435527 (Simulation time: 1 hr 22 min 12 sec) 
Heartbeat CPU 2 instructions: 90000000 cycles: 173981085 heartbeat IPC: 0.433677 cumulative IPC: 0.434268 (Simulation time: 1 hr 22 min 38 sec) 
Heartbeat CPU 3 instructions: 90000001 cycles: 174071060 heartbeat IPC: 0.428661 cumulative IPC: 0.432454 (Simulation time: 1 hr 22 min 40 sec) 
Heartbeat CPU 1 instructions: 150000003 cycles: 176480957 heartbeat IPC: 0.676491 cumulative IPC: 0.7388 (Simulation time: 1 hr 23 min 39 sec) 
Heartbeat CPU 4 instructions: 200000000 cycles: 178315545 heartbeat IPC: 0.900201 cumulative IPC: 1.0618 (Simulation time: 1 hr 24 min 25 sec) 
Finished CPU 6 instructions: 100000002 cycles: 165855717 cumulative IPC: 0.602934 (Simulation time: 1 hr 24 min 33 sec) 
Heartbeat CPU 0 instructions: 250000001 cycles: 180253320 heartbeat IPC: 1.26885 cumulative IPC: 1.29144 (Simulation time: 1 hr 25 min 13 sec) 
Heartbeat CPU 7 instructions: 200000000 cycles: 180653540 heartbeat IPC: 1.0525 cumulative IPC: 1.06013 (Simulation time: 1 hr 25 min 23 sec) 
Heartbeat CPU 6 instructions: 130000003 cycles: 187438080 heartbeat IPC: 0.64208 cumulative IPC: 0.601012 (Simulation time: 1 hr 28 min 9 sec) 
Heartbeat CPU 0 instructions: 260000000 cycles: 188100069 heartbeat IPC: 1.27441 cumulative IPC: 1.29068 (Simulation time: 1 hr 28 min 26 sec) 
Heartbeat CPU 4 instructions: 210000002 cycles: 188261677 heartbeat IPC: 1.00542 cumulative IPC: 1.05861 (Simulation time: 1 hr 28 min 30 sec) 
Heartbeat CPU 7 instructions: 210000002 cycles: 190126436 heartbeat IPC: 1.05564 cumulative IPC: 1.05989 (Simulation time: 1 hr 29 min 18 sec) 
Heartbeat CPU 1 instructions: 160000000 cycles: 191787460 heartbeat IPC: 0.653317 cumulative IPC: 0.73149 (Simulation time: 1 hr 30 min 1 sec) 
Heartbeat CPU 0 instructions: 270000003 cycles: 195872910 heartbeat IPC: 1.28653 cumulative IPC: 1.29051 (Simulation time: 1 hr 31 min 46 sec) 
Heartbeat CPU 5 instructions: 100000000 cycles: 196066136 heartbeat IPC: 0.43259 cumulative IPC: 0.435157 (Simulation time: 1 hr 31 min 51 sec) 
Heartbeat CPU 3 instructions: 100000000 cycles: 197256475 heartbeat IPC: 0.431306 cumulative IPC: 0.43231 (Simulation time: 1 hr 32 min 22 sec) 
Heartbeat CPU 2 instructions: 100000000 cycles: 197352159 heartbeat IPC: 0.427879 cumulative IPC: 0.433459 (Simulation time: 1 hr 32 min 24 sec) 
Heartbeat CPU 4 instructions: 220000000 cycles: 197439112 heartbeat IPC: 1.08963 cumulative IPC: 1.06015 (Simulation time: 1 hr 32 min 27 sec) 
Heartbeat CPU 7 instructions: 220000000 cycles: 199590221 heartbeat IPC: 1.05666 cumulative IPC: 1.05973 (Simulation time: 1 hr 33 min 22 sec) 
Heartbeat CPU 0 instructions: 280000000 cycles: 203674172 heartbeat IPC: 1.28184 cumulative IPC: 1.29015 (Simulation time: 1 hr 35 min 8 sec) 
Heartbeat CPU 6 instructions: 140000000 cycles: 204903031 heartbeat IPC: 0.572575 cumulative IPC: 0.598427 (Simulation time: 1 hr 35 min 39 sec) 
Heartbeat CPU 1 instructions: 170000002 cycles: 205171126 heartbeat IPC: 0.74718 cumulative IPC: 0.732581 (Simulation time: 1 hr 35 min 46 sec) 
Heartbeat CPU 4 instructions: 230000002 cycles: 206649948 heartbeat IPC: 1.08568 cumulative IPC: 1.06136 (Simulation time: 1 hr 36 min 24 sec) 
Heartbeat CPU 7 instructions: 230000000 cycles: 209015442 heartbeat IPC: 1.06098 cumulative IPC: 1.05979 (Simulation time: 1 hr 37 min 25 sec) 
Heartbeat CPU 0 instructions: 290000002 cycles: 211463210 heartbeat IPC: 1.28386 cumulative IPC: 1.2899 (Simulation time: 1 hr 38 min 28 sec) 
Heartbeat CPU 4 instructions: 240000000 cycles: 215927506 heartbeat IPC: 1.07787 cumulative IPC: 1.06212 (Simulation time: 1 hr 40 min 24 sec) 
Heartbeat CPU 7 instructions: 240000000 cycles: 218484886 heartbeat IPC: 1.05603 cumulative IPC: 1.05962 (Simulation time: 1 hr 41 min 31 sec) 
Heartbeat CPU 1 instructions: 180000000 cycles: 218662087 heartbeat IPC: 0.741237 cumulative IPC: 0.733149 (Simulation time: 1 hr 41 min 35 sec) 
Heartbeat CPU 0 instructions: 300000000 cycles: 218737400 heartbeat IPC: 1.37472 cumulative IPC: 1.2929 (Simulation time: 1 hr 41 min 37 sec) 
Heartbeat CPU 5 instructions: 110000000 cycles: 218933275 heartbeat IPC: 0.437309 cumulative IPC: 0.435396 (Simulation time: 1 hr 41 min 42 sec) 
Heartbeat CPU 3 instructions: 110000001 cycles: 219896597 heartbeat IPC: 0.441694 cumulative IPC: 0.433336 (Simulation time: 1 hr 42 min 7 sec) 
Heartbeat CPU 2 instructions: 110000002 cycles: 220774198 heartbeat IPC: 0.426948 cumulative IPC: 0.432726 (Simulation time: 1 hr 42 min 30 sec) 
Heartbeat CPU 6 instructions: 150000000 cycles: 222247133 heartbeat IPC: 0.576565 cumulative IPC: 0.596617 (Simulation time: 1 hr 43 min 8 sec) 
Heartbeat CPU 4 instructions: 250000003 cycles: 224939418 heartbeat IPC: 1.10964 cumulative IPC: 1.06413 (Simulation time: 1 hr 44 min 18 sec) 
Heartbeat CPU 0 instructions: 310000000 cycles: 226171143 heartbeat IPC: 1.34522 cumulative IPC: 1.29472 (Simulation time: 1 hr 44 min 50 sec) 
Heartbeat CPU 7 instructions: 250000003 cycles: 227880297 heartbeat IPC: 1.06435 cumulative IPC: 1.05982 (Simulation time: 1 hr 45 min 34 sec) 
Heartbeat CPU 1 instructions: 190000000 cycles: 232154765 heartbeat IPC: 0.741143 cumulative IPC: 0.73364 (Simulation time: 1 hr 47 min 29 sec) 
Heartbeat CPU 0 instructions: 320000000 cycles: 233615642 heartbeat IPC: 1.34327 cumulative IPC: 1.29636 (Simulation time: 1 hr 48 min 11 sec) 
Heartbeat CPU 4 instructions: 260000000 cycles: 233985791 heartbeat IPC: 1.10542 cumulative IPC: 1.06582 (Simulation time: 1 hr 48 min 26 sec) 
Heartbeat CPU 7 instructions: 260000000 cycles: 237298211 heartbeat IPC: 1.06181 cumulative IPC: 1.05991 (Simulation time: 1 hr 49 min 56 sec) 
Heartbeat CPU 6 instructions: 160000000 cycles: 239726317 heartbeat IPC: 0.572109 cumulative IPC: 0.594729 (Simulation time: 1 hr 50 min 59 sec) 
Heartbeat CPU 0 instructions: 330000002 cycles: 241095470 heartbeat IPC: 1.33693 cumulative IPC: 1.29769 (Simulation time: 1 hr 51 min 34 sec) 
Heartbeat CPU 5 instructions: 120000000 cycles: 241767672 heartbeat IPC: 0.437936 cumulative IPC: 0.435649 (Simulation time: 1 hr 51 min 52 sec) 
Finished CPU 5 instructions: 100000000 cycles: 229556709 cumulative IPC: 0.435622 (Simulation time: 1 hr 52 min 7 sec) 
Heartbeat CPU 3 instructions: 120000000 cycles: 242528220 heartbeat IPC: 0.44186 cumulative IPC: 0.434176 (Simulation time: 1 hr 52 min 11 sec) 
Finished CPU 3 instructions: 100000003 cycles: 230355454 cumulative IPC: 0.434112 (Simulation time: 1 hr 52 min 27 sec) 
Heartbeat CPU 4 instructions: 270000001 cycles: 243205708 heartbeat IPC: 1.08461 cumulative IPC: 1.06657 (Simulation time: 1 hr 52 min 29 sec) 
Heartbeat CPU 2 instructions: 120000000 cycles: 244111923 heartbeat IPC: 0.428491 cumulative IPC: 0.432298 (Simulation time: 1 hr 52 min 52 sec) 
Finished CPU 2 instructions: 100000000 cycles: 231321701 cumulative IPC: 0.432298 (Simulation time: 1 hr 52 min 52 sec) 

CPU 0 Branch Prediction Accuracy: 97.7969% MPKI: 0.777779

CPU 1 Branch Prediction Accuracy: 99.975% MPKI: 0.00416312

CPU 2 Branch Prediction Accuracy: 85.9219% MPKI: 16.324

CPU 3 Branch Prediction Accuracy: 84.842% MPKI: 16.4081

CPU 4 Branch Prediction Accuracy: 99.9706% MPKI: 0.00721167

CPU 5 Branch Prediction Accuracy: 84.7527% MPKI: 16.5231

CPU 6 Branch Prediction Accuracy: 99.9626% MPKI: 0.0280856

CPU 7 Branch Prediction Accuracy: 99.9835% MPKI: 0.00110026

ChampSim completed all CPUs

Total Simulation Statistics (not including warmup)

CPU 0 cumulative IPC: 1.29808 instructions: 300273548 cycles: 231321701
L1D TOTAL     ACCESS:   43914160  HIT:   43779155  MISS:     135005
L1D LOAD      ACCESS:   24542932  HIT:   24412163  MISS:     130769
L1D RFO       ACCESS:   19371228  HIT:   19366992  MISS:       4236
L1D PREFETCH  ACCESS:          0  HIT:          0  MISS:          0
L1D WRITEBACK ACCESS:          0  HIT:          0  MISS:          0
L1I TOTAL     ACCESS:   75072774  HIT:   75072703  MISS:         71
L1I LOAD      ACCESS:   75072774  HIT:   75072703  MISS:         71
L1I RFO       ACCESS:          0  HIT:          0  MISS:          0
L1I PREFETCH  ACCESS:          0  HIT:          0  MISS:          0
L1I WRITEBACK ACCESS:          0  HIT:          0  MISS:          0
L2C TOTAL     ACCESS:     235132  HIT:     126072  MISS:     109060
L2C LOAD      ACCESS:     130840  HIT:      42503  MISS:      88337
L2C RFO       ACCESS:       4236  HIT:        897  MISS:       3339
L2C PREFETCH  ACCESS:      95776  HIT:      78510  MISS:      17266
L2C WRITEBACK ACCESS:       4280  HIT:       4162  MISS:        118

L2C Best-offset prefetcher final stats
LLC TOTAL     ACCESS:     112433  HIT:       3139  MISS:     109294
LLC LOAD      ACCESS:      88286  HIT:       1465  MISS:      86821
LLC RFO       ACCESS:       3339  HIT:         24  MISS:       3315
LLC PREFETCH  ACCESS:      17334  HIT:        338  MISS:      16996
LLC WRITEBACK ACCESS:       3474  HIT:       1312  MISS:       2162

CPU 1 cumulative IPC: 0.734419 instructions: 169887048 cycles: 231321701
L1D TOTAL     ACCESS:   35868021  HIT:   33619774  MISS:    2248247
L1D LOAD      ACCESS:   23946033  HIT:   21700024  MISS:    2246009
L1D RFO       ACCESS:   11921988  HIT:   11919750  MISS:       2238
L1D PREFETCH  ACCESS:          0  HIT:          0  MISS:          0
L1D WRITEBACK ACCESS:          0  HIT:          0  MISS:          0
L1I TOTAL     ACCESS:   34678837  HIT:   34678837  MISS:          0
L1I LOAD      ACCESS:   34678837  HIT:   34678837  MISS:          0
L1I RFO       ACCESS:          0  HIT:          0  MISS:          0
L1I PREFETCH  ACCESS:          0  HIT:          0  MISS:          0
L1I WRITEBACK ACCESS:          0  HIT:          0  MISS:          0
L2C TOTAL     ACCESS:    5035452  HIT:    2828577  MISS:    2206875
L2C LOAD      ACCESS:    2246009  HIT:    1332916  MISS:     913093
L2C RFO       ACCESS:       2238  HIT:        733  MISS:       1505
L2C PREFETCH  ACCESS:    1294398  HIT:       2121  MISS:    1292277
L2C WRITEBACK ACCESS:    1492807  HIT:    1492807  MISS:          0

L2C Best-offset prefetcher final stats
LLC TOTAL     ACCESS:    3698190  HIT:    2208322  MISS:    1489868
LLC LOAD      ACCESS:      50769  HIT:      23459  MISS:      27310
LLC RFO       ACCESS:       1505  HIT:       1505  MISS:          0
LLC PREFETCH  ACCESS:    2154601  HIT:     692047  MISS:    1462554
LLC WRITEBACK ACCESS:    1491315  HIT:    1491311  MISS:          4

CPU 2 cumulative IPC: 0.432298 instructions: 100000000 cycles: 231321701
L1D TOTAL     ACCESS:   32863863  HIT:   32452934  MISS:     410929
L1D LOAD      ACCESS:   20751792  HIT:   20456849  MISS:     294943
L1D RFO       ACCESS:   12112071  HIT:   11996085  MISS:     115986
L1D PREFETCH  ACCESS:          0  HIT:          0  MISS:          0
L1D WRITEBACK ACCESS:          0  HIT:          0  MISS:          0
L1I TOTAL     ACCESS:   23688601  HIT:   23653321  MISS:      35280
L1I LOAD      ACCESS:   23688601  HIT:   23653321  MISS:      35280
L1I RFO       ACCESS:          0  HIT:          0  MISS:          0
L1I PREFETCH  ACCESS:          0  HIT:          0  MISS:          0
L1I WRITEBACK ACCESS:          0  HIT:          0  MISS:          0
L2C TOTAL     ACCESS:     626243  HIT:     619775  MISS:       6468
L2C LOAD      ACCESS:     330223  HIT:     326484  MISS:       3739
L2C RFO       ACCESS:     115979  HIT:     115345  MISS:        634
L2C PREFETCH  ACCESS:       4034  HIT:       1993  MISS:       2041
L2C WRITEBACK ACCESS:     176007  HIT:     175953  MISS:         54

L2C Best-offset prefetcher final stats
LLC TOTAL     ACCESS:       7760  HIT:        860  MISS:       6900
LLC LOAD      ACCESS:       3737  HIT:        546  MISS:       3191
LLC RFO       ACCESS:        634  HIT:         30  MISS:        604
LLC PREFETCH  ACCESS:       2043  HIT:        107  MISS:       1936
LLC WRITEBACK ACCESS:       1346  HIT:        177  MISS:       1169

CPU 3 cumulative IPC: 0.434207 instructions: 100441497 cycles: 231321702
L1D TOTAL     ACCESS:   33031259  HIT:   32710275  MISS:     320984
L1D LOAD      ACCESS:   21574532  HIT:   21293060  MISS:     281472
L1D RFO       ACCESS:   11456727  HIT:   11417215  MISS:      39512
L1D PREFETCH  ACCESS:          0  HIT:          0  MISS:          0
L1D WRITEBACK ACCESS:          0  HIT:          0  MISS:          0
L1I TOTAL     ACCESS:   23004611  HIT:   22998191  MISS:       6420
L1I LOAD      ACCESS:   23004611  HIT:   22998191  MISS:       6420
L1I RFO       ACCESS:          0  HIT:          0  MISS:          0
L1I PREFETCH  ACCESS:          0  HIT:          0  MISS:          0
L1I WRITEBACK ACCESS:          0  HIT:          0  MISS:          0
L2C TOTAL     ACCESS:     409767  HIT:     392915  MISS:      16852
L2C LOAD      ACCESS:     287891  HIT:     276652  MISS:      11239
L2C RFO       ACCESS:      39512  HIT:      38745  MISS:        767
L2C PREFETCH  ACCESS:      11892  HIT:       7068  MISS:       4824
L2C WRITEBACK ACCESS:      70472  HIT:      70450  MISS:         22

L2C Best-offset prefetcher final stats
LLC TOTAL     ACCESS:      18991  HIT:       1997  MISS:      16994
LLC LOAD      ACCESS:      11220  HIT:       1340  MISS:       9880
LLC RFO       ACCESS:        767  HIT:         65  MISS:        702
LLC PREFETCH  ACCESS:       4843  HIT:        424  MISS:       4419
LLC WRITEBACK ACCESS:       2161  HIT:        168  MISS:       1993

CPU 4 cumulative IPC: 1.06664 instructions: 246737406 cycles: 231321702
L1D TOTAL     ACCESS:   94013589  HIT:   88885909  MISS:    5127680
L1D LOAD      ACCESS:   80267767  HIT:   75297243  MISS:    4970524
L1D RFO       ACCESS:   13745822  HIT:   13588666  MISS:     157156
L1D PREFETCH  ACCESS:          0  HIT:          0  MISS:          0
L1D WRITEBACK ACCESS:          0  HIT:          0  MISS:          0
L1I TOTAL     ACCESS:   61190527  HIT:   61190527  MISS:          0
L1I LOAD      ACCESS:   61190527  HIT:   61190527  MISS:          0
L1I RFO       ACCESS:          0  HIT:          0  MISS:          0
L1I PREFETCH  ACCESS:          0  HIT:          0  MISS:          0
L1I WRITEBACK ACCESS:          0  HIT:          0  MISS:          0
L2C TOTAL     ACCESS:    8296094  HIT:    3594887  MISS:    4701207
L2C LOAD      ACCESS:    4969096  HIT:    3370208  MISS:    1598888
L2C RFO       ACCESS:     154215  HIT:      33994  MISS:     120221
L2C PREFETCH  ACCESS:    3001645  HIT:      20702  MISS:    2980943
L2C WRITEBACK ACCESS:     171138  HIT:     169983  MISS:       1155

L2C Best-offset prefetcher final stats
LLC TOTAL     ACCESS:    5705173  HIT:    1016287  MISS:    4688886
LLC LOAD      ACCESS:    1189456  HIT:     882276  MISS:     307180
LLC RFO       ACCESS:     120221  HIT:          0  MISS:     120221
LLC PREFETCH  ACCESS:    4273992  HIT:      12626  MISS:    4261366
LLC WRITEBACK ACCESS:     121504  HIT:     121385  MISS:        119

CPU 5 cumulative IPC: 0.435679 instructions: 100781895 cycles: 231321702
L1D TOTAL     ACCESS:   33122710  HIT:   32813994  MISS:     308716
L1D LOAD      ACCESS:   21660801  HIT:   21392753  MISS:     268048
L1D RFO       ACCESS:   11461909  HIT:   11421241  MISS:      40668
L1D PREFETCH  ACCESS:          0  HIT:          0  MISS:          0
L1D WRITEBACK ACCESS:          0  HIT:          0  MISS:          0
L1I TOTAL     ACCESS:   23027558  HIT:   23020669  MISS:       6889
L1I LOAD      ACCESS:   23027558  HIT:   23020669  MISS:       6889
L1I RFO       ACCESS:          0  HIT:          0  MISS:          0
L1I PREFETCH  ACCESS:          0  HIT:          0  MISS:          0
L1I WRITEBACK ACCESS:          0  HIT:          0  MISS:          0
L2C TOTAL     ACCESS:     393261  HIT:     381187  MISS:      12074
L2C LOAD      ACCESS:     274936  HIT:     267304  MISS:       7632
L2C RFO       ACCESS:      40668  HIT:      40447  MISS:        221
L2C PREFETCH  ACCESS:       8103  HIT:       3931  MISS:       4172
L2C WRITEBACK ACCESS:      69554  HIT:      69505  MISS:         49

L2C Best-offset prefetcher final stats
LLC TOTAL     ACCESS:      12993  HIT:       2558  MISS:      10435
LLC LOAD      ACCESS:       7628  HIT:       1594  MISS:       6034
LLC RFO       ACCESS:        220  HIT:        201  MISS:         19
LLC PREFETCH  ACCESS:       4177  HIT:        570  MISS:       3607
LLC WRITEBACK ACCESS:        968  HIT:        193  MISS:        775

CPU 6 cumulative IPC: 0.594385 instructions: 137494144 cycles: 231321702
L1D TOTAL     ACCESS:   40863330  HIT:   39905794  MISS:     957536
L1D LOAD      ACCESS:   26142285  HIT:   25511965  MISS:     630320
L1D RFO       ACCESS:   14721045  HIT:   14393829  MISS:     327216
L1D PREFETCH  ACCESS:          0  HIT:          0  MISS:          0
L1D WRITEBACK ACCESS:          0  HIT:          0  MISS:          0
L1I TOTAL     ACCESS:   53587984  HIT:   53587921  MISS:         63
L1I LOAD      ACCESS:   53587984  HIT:   53587921  MISS:         63
L1I RFO       ACCESS:          0  HIT:          0  MISS:          0
L1I PREFETCH  ACCESS:          0  HIT:          0  MISS:          0
L1I WRITEBACK ACCESS:          0  HIT:          0  MISS:          0
L2C TOTAL     ACCESS:    1788618  HIT:     815279  MISS:     973339
L2C LOAD      ACCESS:     630383  HIT:     484962  MISS:     145421
L2C RFO       ACCESS:     327216  HIT:          4  MISS:     327212
L2C PREFETCH  ACCESS:     501748  HIT:       1445  MISS:     500303
L2C WRITEBACK ACCESS:     329271  HIT:     328868  MISS:        403

L2C Best-offset prefetcher final stats
LLC TOTAL     ACCESS:    1335161  HIT:     352711  MISS:     982450
LLC LOAD      ACCESS:      96088  HIT:      32813  MISS:      63275
LLC RFO       ACCESS:     327212  HIT:          0  MISS:     327212
LLC PREFETCH  ACCESS:     584529  HIT:       1037  MISS:     583492
LLC WRITEBACK ACCESS:     327332  HIT:     318861  MISS:       8471

CPU 7 cumulative IPC: 1.05988 instructions: 245172159 cycles: 231321702
L1D TOTAL     ACCESS:   98363108  HIT:   78703774  MISS:   19659334
L1D LOAD      ACCESS:   78726895  HIT:   60678258  MISS:   18048637
L1D RFO       ACCESS:   19636213  HIT:   18025516  MISS:    1610697
L1D PREFETCH  ACCESS:          0  HIT:          0  MISS:          0
L1D WRITEBACK ACCESS:          0  HIT:          0  MISS:          0
L1I TOTAL     ACCESS:   58599694  HIT:   52225309  MISS:    6374385
L1I LOAD      ACCESS:   58599694  HIT:   52225309  MISS:    6374385
L1I RFO       ACCESS:          0  HIT:          0  MISS:          0
L1I PREFETCH  ACCESS:          0  HIT:          0  MISS:          0
L1I WRITEBACK ACCESS:          0  HIT:          0  MISS:          0
L2C TOTAL     ACCESS:   29768439  HIT:   27351311  MISS:    2417128
L2C LOAD      ACCESS:   24421670  HIT:   23981174  MISS:     440496
L2C RFO       ACCESS:    1609193  HIT:    1393676  MISS:     215517
L2C PREFETCH  ACCESS:    1929650  HIT:     170963  MISS:    1758687
L2C WRITEBACK ACCESS:    1807926  HIT:    1805498  MISS:       2428

L2C Best-offset prefetcher final stats
LLC TOTAL     ACCESS:    2748573  HIT:    2094856  MISS:     653717
LLC LOAD      ACCESS:     439469  HIT:     428982  MISS:      10487
LLC RFO       ACCESS:     198002  HIT:      53727  MISS:     144275
LLC PREFETCH  ACCESS:    1892603  HIT:    1394254  MISS:     498349
LLC WRITEBACK ACCESS:     218499  HIT:     217893  MISS:        606

Region of Interest Statistics

CPU 0 cumulative IPC: 1.31455 instructions: 100000000 cycles: 76071547
L1D TOTAL     ACCESS:   14391023  HIT:   14352686  MISS:      38337
L1D LOAD      ACCESS:    8057928  HIT:    8020763  MISS:      37165
L1D RFO       ACCESS:    6333095  HIT:    6331923  MISS:       1172
L1D PREFETCH  ACCESS:          0  HIT:          0  MISS:          0
L1D WRITEBACK ACCESS:          0  HIT:          0  MISS:          0
L1D PREFETCH  REQUESTED:          0  ISSUED:          0  USEFUL:          0  USELESS:          0
L1I TOTAL     ACCESS:   24704465  HIT:   24704435  MISS:         30
L1I LOAD      ACCESS:   24704465  HIT:   24704435  MISS:         30
L1I RFO       ACCESS:          0  HIT:          0  MISS:          0
L1I PREFETCH  ACCESS:          0  HIT:          0  MISS:          0
L1I WRITEBACK ACCESS:          0  HIT:          0  MISS:          0
L1I PREFETCH  REQUESTED:          0  ISSUED:          0  USEFUL:          0  USELESS:          0
L2C TOTAL     ACCESS:      65857  HIT:      35950  MISS:      29907
L2C LOAD      ACCESS:      37195  HIT:      13554  MISS:      23641
L2C RFO       ACCESS:       1172  HIT:        268  MISS:        904
L2C PREFETCH  ACCESS:      26314  HIT:      20969  MISS:       5345
L2C WRITEBACK ACCESS:       1176  HIT:       1159  MISS:         17
L2C PREFETCH  REQUESTED:     111920  ISSUED:     111920  USEFUL:      19207  USELESS:       8639
LLC TOTAL     ACCESS:      30784  HIT:        180  MISS:      30604
LLC LOAD      ACCESS:      23621  HIT:         19  MISS:      23602
LLC RFO       ACCESS:        904  HIT:          1  MISS:        903
LLC PREFETCH  ACCESS:       5371  HIT:          2  MISS:       5369
LLC WRITEBACK ACCESS:        888  HIT:        158  MISS:        730
LLC PREFETCH  REQUESTED:          0  ISSUED:          0  USEFUL:    1062152  USELESS:    6329303
Major fault: 0 Minor fault: 1397

CPU 1 cumulative IPC: 0.745135 instructions: 100000001 cycles: 134203878
L1D TOTAL     ACCESS:   21122960  HIT:   19799584  MISS:    1323376
L1D LOAD      ACCESS:   14105365  HIT:   12783307  MISS:    1322058
L1D RFO       ACCESS:    7017595  HIT:    7016277  MISS:       1318
L1D PREFETCH  ACCESS:          0  HIT:          0  MISS:          0
L1D WRITEBACK ACCESS:          0  HIT:          0  MISS:          0
L1D PREFETCH  REQUESTED:          0  ISSUED:          0  USEFUL:          0  USELESS:          0
L1I TOTAL     ACCESS:   20425596  HIT:   20425596  MISS:          0
L1I LOAD      ACCESS:   20425596  HIT:   20425596  MISS:          0
L1I RFO       ACCESS:          0  HIT:          0  MISS:          0
L1I PREFETCH  ACCESS:          0  HIT:          0  MISS:          0
L1I WRITEBACK ACCESS:          0  HIT:          0  MISS:          0
L1I PREFETCH  REQUESTED:          0  ISSUED:          0  USEFUL:          0  USELESS:          0
L2C TOTAL     ACCESS:    2978880  HIT:    1681358  MISS:    1297522
L2C LOAD      ACCESS:    1322058  HIT:     800894  MISS:     521164
L2C RFO       ACCESS:       1318  HIT:        446  MISS:        872
L2C PREFETCH  ACCESS:     776787  HIT:       1301  MISS:     775486
L2C WRITEBACK ACCESS:     878717  HIT:     878717  MISS:          0
L2C PREFETCH  REQUESTED:    2518210  ISSUED:    2518210  USEFUL:    1642985  USELESS:       7870
LLC TOTAL     ACCESS:    2175250  HIT:    1298256  MISS:     876994
LLC LOAD      ACCESS:      32287  HIT:      14581  MISS:      17706
LLC RFO       ACCESS:        872  HIT:        872  MISS:          0
LLC PREFETCH  ACCESS:    1264363  HIT:     405077  MISS:     859286
LLC WRITEBACK ACCESS:     877728  HIT:     877726  MISS:          2
LLC PREFETCH  REQUESTED:          0  ISSUED:          0  USEFUL:    1062152  USELESS:    6329303
Major fault: 0 Minor fault: 27350

CPU 2 cumulative IPC: 0.432298 instructions: 100000000 cycles: 231321701
L1D TOTAL     ACCESS:   32863863  HIT:   32452934  MISS:     410929
L1D LOAD      ACCESS:   20751792  HIT:   20456849  MISS:     294943
L1D RFO       ACCESS:   12112071  HIT:   11996085  MISS:     115986
L1D PREFETCH  ACCESS:          0  HIT:          0  MISS:          0
L1D WRITEBACK ACCESS:          0  HIT:          0  MISS:          0
L1D PREFETCH  REQUESTED:          0  ISSUED:          0  USEFUL:          0  USELESS:          0
L1I TOTAL     ACCESS:   23688601  HIT:   23653321  MISS:      35280
L1I LOAD      ACCESS:   23688601  HIT:   23653321  MISS:      35280
L1I RFO       ACCESS:          0  HIT:          0  MISS:          0
L1I PREFETCH  ACCESS:          0  HIT:          0  MISS:          0
L1I WRITEBACK ACCESS:          0  HIT:          0  MISS:          0
L1I PREFETCH  REQUESTED:          0  ISSUED:          0  USEFUL:          0  USELESS:          0
L2C TOTAL     ACCESS:     626243  HIT:     619775  MISS:       6468
L2C LOAD      ACCESS:     330223  HIT:     326484  MISS:       3739
L2C RFO       ACCESS:     115979  HIT:     115345  MISS:        634
L2C PREFETCH  ACCESS:       4034  HIT:       1993  MISS:       2041
L2C WRITEBACK ACCESS:     176007  HIT:     175953  MISS:         54
L2C PREFETCH  REQUESTED:       6721  ISSUED:       6721  USEFUL:       1009  USELESS:       1918
LLC TOTAL     ACCESS:       7760  HIT:        860  MISS:       6900
LLC LOAD      ACCESS:       3737  HIT:        546  MISS:       3191
LLC RFO       ACCESS:        634  HIT:         30  MISS:        604
LLC PREFETCH  ACCESS:       2043  HIT:        107  MISS:       1936
LLC WRITEBACK ACCESS:       1346  HIT:        177  MISS:       1169
LLC PREFETCH  REQUESTED:          0  ISSUED:          0  USEFUL:    1062152  USELESS:    6329303
Major fault: 0 Minor fault: 719

CPU 3 cumulative IPC: 0.434112 instructions: 100000003 cycles: 230355454
L1D TOTAL     ACCESS:   32890919  HIT:   32572129  MISS:     318790
L1D LOAD      ACCESS:   21482367  HIT:   21202821  MISS:     279546
L1D RFO       ACCESS:   11408552  HIT:   11369308  MISS:      39244
L1D PREFETCH  ACCESS:          0  HIT:          0  MISS:          0
L1D WRITEBACK ACCESS:          0  HIT:          0  MISS:          0
L1D PREFETCH  REQUESTED:          0  ISSUED:          0  USEFUL:          0  USELESS:          0
L1I TOTAL     ACCESS:   22902765  HIT:   22896384  MISS:       6381
L1I LOAD      ACCESS:   22902765  HIT:   22896384  MISS:       6381
L1I RFO       ACCESS:          0  HIT:          0  MISS:          0
L1I PREFETCH  ACCESS:          0  HIT:          0  MISS:          0
L1I WRITEBACK ACCESS:          0  HIT:          0  MISS:          0
L1I PREFETCH  REQUESTED:          0  ISSUED:          0  USEFUL:          0  USELESS:          0
L2C TOTAL     ACCESS:     407024  HIT:     390204  MISS:      16820
L2C LOAD      ACCESS:     285926  HIT:     274708  MISS:      11218
L2C RFO       ACCESS:      39244  HIT:      38478  MISS:        766
L2C PREFETCH  ACCESS:      11873  HIT:       7059  MISS:       4814
L2C WRITEBACK ACCESS:      69981  HIT:      69959  MISS:         22
L2C PREFETCH  REQUESTED:      16574  ISSUED:      16574  USEFUL:       1936  USELESS:       4865
LLC TOTAL     ACCESS:      18959  HIT:       1992  MISS:      16967
LLC LOAD      ACCESS:      11201  HIT:       1336  MISS:       9865
LLC RFO       ACCESS:        766  HIT:         64  MISS:        702
LLC PREFETCH  ACCESS:       4831  HIT:        424  MISS:       4407
LLC WRITEBACK ACCESS:       2161  HIT:        168  MISS:       1993
LLC PREFETCH  REQUESTED:          0  ISSUED:          0  USEFUL:    1062152  USELESS:    6329303
Major fault: 0 Minor fault: 598

CPU 4 cumulative IPC: 1.06023 instructions: 100000002 cycles: 94319416
L1D TOTAL     ACCESS:   38095264  HIT:   36017290  MISS:    2077974
L1D LOAD      ACCESS:   32525906  HIT:   30511522  MISS:    2014384
L1D RFO       ACCESS:    5569358  HIT:    5505768  MISS:      63590
L1D PREFETCH  ACCESS:          0  HIT:          0  MISS:          0
L1D WRITEBACK ACCESS:          0  HIT:          0  MISS:          0
L1D PREFETCH  REQUESTED:          0  ISSUED:          0  USEFUL:          0  USELESS:          0
L1I TOTAL     ACCESS:   24796369  HIT:   24796369  MISS:          0
L1I LOAD      ACCESS:   24796369  HIT:   24796369  MISS:          0
L1I RFO       ACCESS:          0  HIT:          0  MISS:          0
L1I PREFETCH  ACCESS:          0  HIT:          0  MISS:          0
L1I WRITEBACK ACCESS:          0  HIT:          0  MISS:          0
L1I PREFETCH  REQUESTED:          0  ISSUED:          0  USEFUL:          0  USELESS:          0
L2C TOTAL     ACCESS:    3353762  HIT:    1448373  MISS:    1905389
L2C LOAD      ACCESS:    2013826  HIT:    1357761  MISS:     656065
L2C RFO       ACCESS:      62423  HIT:      13699  MISS:      48724
L2C PREFETCH  ACCESS:    1208283  HIT:       8141  MISS:    1200142
L2C WRITEBACK ACCESS:      69230  HIT:      68772  MISS:        458
L2C PREFETCH  REQUESTED:    4737323  ISSUED:    4737323  USEFUL:    3408824  USELESS:        186
LLC TOTAL     ACCESS:    2315605  HIT:     415272  MISS:    1900333
LLC LOAD      ACCESS:     499336  HIT:     360902  MISS:     138434
LLC RFO       ACCESS:      48724  HIT:          0  MISS:      48724
LLC PREFETCH  ACCESS:    1718278  HIT:       5150  MISS:    1713128
LLC WRITEBACK ACCESS:      49267  HIT:      49220  MISS:         47
LLC PREFETCH  REQUESTED:          0  ISSUED:          0  USEFUL:    1062152  USELESS:    6329303
Major fault: 0 Minor fault: 76626

CPU 5 cumulative IPC: 0.435622 instructions: 100000000 cycles: 229556709
L1D TOTAL     ACCESS:   32871140  HIT:   32565921  MISS:     305219
L1D LOAD      ACCESS:   21496069  HIT:   21230982  MISS:     265087
L1D RFO       ACCESS:   11375071  HIT:   11334939  MISS:      40132
L1D PREFETCH  ACCESS:          0  HIT:          0  MISS:          0
L1D WRITEBACK ACCESS:          0  HIT:          0  MISS:          0
L1D PREFETCH  REQUESTED:          0  ISSUED:          0  USEFUL:          0  USELESS:          0
L1I TOTAL     ACCESS:   22845911  HIT:   22839110  MISS:       6801
L1I LOAD      ACCESS:   22845911  HIT:   22839110  MISS:       6801
L1I RFO       ACCESS:          0  HIT:          0  MISS:          0
L1I PREFETCH  ACCESS:          0  HIT:          0  MISS:          0
L1I WRITEBACK ACCESS:          0  HIT:          0  MISS:          0
L1I PREFETCH  REQUESTED:          0  ISSUED:          0  USEFUL:          0  USELESS:          0
L2C TOTAL     ACCESS:     388752  HIT:     376797  MISS:      11955
L2C LOAD      ACCESS:     271887  HIT:     264343  MISS:       7544
L2C RFO       ACCESS:      40132  HIT:      39914  MISS:        218
L2C PREFETCH  ACCESS:       8012  HIT:       3867  MISS:       4145
L2C WRITEBACK ACCESS:      68721  HIT:      68673  MISS:         48
L2C PREFETCH  REQUESTED:      13400  ISSUED:      13400  USEFUL:       1676  USELESS:       4495
LLC TOTAL     ACCESS:      12866  HIT:       2538  MISS:      10328
LLC LOAD      ACCESS:       7540  HIT:       1580  MISS:       5960
LLC RFO       ACCESS:        217  HIT:        199  MISS:         18
LLC PREFETCH  ACCESS:       4150  HIT:        566  MISS:       3584
LLC WRITEBACK ACCESS:        959  HIT:        193  MISS:        766
LLC PREFETCH  REQUESTED:          0  ISSUED:          0  USEFUL:    1062152  USELESS:    6329303
Major fault: 0 Minor fault: 508

CPU 6 cumulative IPC: 0.602934 instructions: 100000002 cycles: 165855717
L1D TOTAL     ACCESS:   29733451  HIT:   28957915  MISS:     775536
L1D LOAD      ACCESS:   19251788  HIT:   18739954  MISS:     511834
L1D RFO       ACCESS:   10481663  HIT:   10217961  MISS:     263702
L1D PREFETCH  ACCESS:          0  HIT:          0  MISS:          0
L1D WRITEBACK ACCESS:          0  HIT:          0  MISS:          0
L1D PREFETCH  REQUESTED:          0  ISSUED:          0  USEFUL:          0  USELESS:          0
L1I TOTAL     ACCESS:   38540910  HIT:   38540847  MISS:         63
L1I LOAD      ACCESS:   38540910  HIT:   38540847  MISS:         63
L1I RFO       ACCESS:          0  HIT:          0  MISS:          0
L1I PREFETCH  ACCESS:          0  HIT:          0  MISS:          0
L1I WRITEBACK ACCESS:          0  HIT:          0  MISS:          0
L1I PREFETCH  REQUESTED:          0  ISSUED:          0  USEFUL:          0  USELESS:          0
L2C TOTAL     ACCESS:    1455515  HIT:     671096  MISS:     784419
L2C LOAD      ACCESS:     511897  HIT:     404389  MISS:     107508
L2C RFO       ACCESS:     263703  HIT:          3  MISS:     263700
L2C PREFETCH  ACCESS:     414113  HIT:       1303  MISS:     412810
L2C WRITEBACK ACCESS:     265802  HIT:     265401  MISS:        401
L2C PREFETCH  REQUESTED:     606709  ISSUED:     606709  USEFUL:     498287  USELESS:      21491
LLC TOTAL     ACCESS:    1076868  HIT:     285812  MISS:     791056
LLC LOAD      ACCESS:      71195  HIT:      27328  MISS:      43867
LLC RFO       ACCESS:     263700  HIT:          0  MISS:     263700
LLC PREFETCH  ACCESS:     477736  HIT:        659  MISS:     477077
LLC WRITEBACK ACCESS:     264237  HIT:     257825  MISS:       6412
LLC PREFETCH  REQUESTED:          0  ISSUED:          0  USEFUL:    1062152  USELESS:    6329303
Major fault: 0 Minor fault: 14160

CPU 7 cumulative IPC: 1.05975 instructions: 100000000 cycles: 94362225
L1D TOTAL     ACCESS:   40121433  HIT:   32103253  MISS:    8018180
L1D LOAD      ACCESS:   32112179  HIT:   24750988  MISS:    7361191
L1D RFO       ACCESS:    8009254  HIT:    7352265  MISS:     656989
L1D PREFETCH  ACCESS:          0  HIT:          0  MISS:          0
L1D WRITEBACK ACCESS:          0  HIT:          0  MISS:          0
L1D PREFETCH  REQUESTED:          0  ISSUED:          0  USEFUL:          0  USELESS:          0
L1I TOTAL     ACCESS:   23899983  HIT:   21300016  MISS:    2599967
L1I LOAD      ACCESS:   23899983  HIT:   21300016  MISS:    2599967
L1I RFO       ACCESS:          0  HIT:          0  MISS:          0
L1I PREFETCH  ACCESS:          0  HIT:          0  MISS:          0
L1I WRITEBACK ACCESS:          0  HIT:          0  MISS:          0
L1I PREFETCH  REQUESTED:          0  ISSUED:          0  USEFUL:          0  USELESS:          0
L2C TOTAL     ACCESS:   12137051  HIT:   11154014  MISS:     983037
L2C LOAD      ACCESS:    9960612  HIT:    9780816  MISS:     179796
L2C RFO       ACCESS:     656396  HIT:     567737  MISS:      88659
L2C PREFETCH  ACCESS:     782693  HIT:      69031  MISS:     713662
L2C WRITEBACK ACCESS:     737350  HIT:     736430  MISS:        920
L2C PREFETCH  REQUESTED:    2265118  ISSUED:    2264545  USEFUL:    1820185  USELESS:     111206
LLC TOTAL     ACCESS:    1121249  HIT:     853710  MISS:     267539
LLC LOAD      ACCESS:     179451  HIT:     175116  MISS:       4335
LLC RFO       ACCESS:      81114  HIT:      22264  MISS:      58850
LLC PREFETCH  ACCESS:     770940  HIT:     566816  MISS:     204124
LLC WRITEBACK ACCESS:      89744  HIT:      89514  MISS:        230
LLC PREFETCH  REQUESTED:          0  ISSUED:          0  USEFUL:    1062152  USELESS:    6329303
Major fault: 0 Minor fault: 8690

L2C Best-offset prefetcher final stats

L2C Best-offset prefetcher final stats

L2C Best-offset prefetcher final stats

L2C Best-offset prefetcher final stats

L2C Best-offset prefetcher final stats

L2C Best-offset prefetcher final stats

L2C Best-offset prefetcher final stats

L2C Best-offset prefetcher final stats

DRAM Statistics
 CHANNEL 0
 RQ ROW_BUFFER_HIT:    2879120  ROW_BUFFER_MISS:    1092378
 DBUS_CONGESTED:    4859460
 WQ ROW_BUFFER_HIT:     218255  ROW_BUFFER_MISS:     838908  FULL:          0

 CHANNEL 1
 RQ ROW_BUFFER_HIT:    2876048  ROW_BUFFER_MISS:    1095696
 DBUS_CONGESTED:    4859460
 WQ ROW_BUFFER_HIT:     218473  ROW_BUFFER_MISS:     838839  FULL:          0

 AVG_CONGESTED_CYCLE: 13
