
*** ChampSim Multicore Out-of-Order Simulator ***

Warmup Instructions: 20000000
Simulation Instructions: 100000000
Number of CPUs: 8
LLC sets: 16384
LLC ways: 16
Off-chip DRAM Size: 8192 MB Channels: 2 Width: 64-bit Data Rate: 1600 MT/s

CPU 0 runs /scratch/user/djimenez/champsim-traces/speccpu2017/xz/625.x264_s/625.x264_s-39B.champsimtrace.xz
CPU 1 runs /scratch/user/djimenez/champsim-traces/speccpu2017/xz/654.roms_s/654.roms_s-1007B.champsimtrace.xz
CPU 2 runs /scratch/user/djimenez/champsim-traces/speccpu2017/xz/607.cactuBSSN_s/607.cactuBSSN_s-2421B.champsimtrace.xz
CPU 3 runs /scratch/user/djimenez/champsim-traces/speccpu2017/xz/603.bwaves_s/603.bwaves_s-5359B.champsimtrace.xz
CPU 4 runs /scratch/user/djimenez/champsim-traces/speccpu2017/xz/657.xz_s/657.xz_s-2302B.champsimtrace.xz
CPU 5 runs /scratch/user/djimenez/champsim-traces/speccpu2017/xz/649.fotonik3d_s/649.fotonik3d_s-1176B.champsimtrace.xz
CPU 6 runs /scratch/user/djimenez/champsim-traces/speccpu2017/xz/641.leela_s/641.leela_s-862B.champsimtrace.xz
CPU 7 runs /scratch/user/djimenez/champsim-traces/speccpu2017/xz/648.exchange2_s/648.exchange2_s-584B.champsimtrace.xz
L2C Best-offset prefetcher
L2C Best-offset prefetcher
L2C Best-offset prefetcher
L2C Best-offset prefetcher
L2C Best-offset prefetcher
L2C Best-offset prefetcher
L2C Best-offset prefetcher
L2C Best-offset prefetcher
Heartbeat CPU 3 instructions: 10000000 cycles: 4003873 heartbeat IPC: 2.49758 cumulative IPC: 2.49758 (Simulation time: 0 hr 3 min 30 sec) 
Heartbeat CPU 0 instructions: 10000003 cycles: 4178836 heartbeat IPC: 2.39301 cumulative IPC: 2.39301 (Simulation time: 0 hr 3 min 40 sec) 
Heartbeat CPU 5 instructions: 10000000 cycles: 4400661 heartbeat IPC: 2.27239 cumulative IPC: 2.27239 (Simulation time: 0 hr 3 min 52 sec) 
Heartbeat CPU 7 instructions: 10000001 cycles: 4404479 heartbeat IPC: 2.27042 cumulative IPC: 2.27042 (Simulation time: 0 hr 3 min 53 sec) 
Heartbeat CPU 4 instructions: 10000002 cycles: 4452983 heartbeat IPC: 2.24569 cumulative IPC: 2.24569 (Simulation time: 0 hr 3 min 55 sec) 
Heartbeat CPU 1 instructions: 10000002 cycles: 5109230 heartbeat IPC: 1.95724 cumulative IPC: 1.95724 (Simulation time: 0 hr 4 min 34 sec) 
Heartbeat CPU 2 instructions: 10000000 cycles: 5800918 heartbeat IPC: 1.72387 cumulative IPC: 1.72387 (Simulation time: 0 hr 5 min 7 sec) 
Heartbeat CPU 6 instructions: 10000000 cycles: 6410381 heartbeat IPC: 1.55997 cumulative IPC: 1.55997 (Simulation time: 0 hr 5 min 38 sec) 
Heartbeat CPU 3 instructions: 20000000 cycles: 8334091 heartbeat IPC: 2.30935 cumulative IPC: 2.39978 (Simulation time: 0 hr 7 min 13 sec) 
Heartbeat CPU 0 instructions: 20000000 cycles: 8374434 heartbeat IPC: 2.38345 cumulative IPC: 2.38822 (Simulation time: 0 hr 7 min 14 sec) 
Heartbeat CPU 5 instructions: 20000000 cycles: 8801378 heartbeat IPC: 2.27236 cumulative IPC: 2.27237 (Simulation time: 0 hr 7 min 35 sec) 
Heartbeat CPU 7 instructions: 20000000 cycles: 8824731 heartbeat IPC: 2.26231 cumulative IPC: 2.26636 (Simulation time: 0 hr 7 min 36 sec) 
Heartbeat CPU 4 instructions: 20000000 cycles: 8872685 heartbeat IPC: 2.2626 cumulative IPC: 2.25411 (Simulation time: 0 hr 7 min 38 sec) 
Heartbeat CPU 1 instructions: 20000000 cycles: 10218016 heartbeat IPC: 1.95741 cumulative IPC: 1.95733 (Simulation time: 0 hr 8 min 42 sec) 
Heartbeat CPU 2 instructions: 20000000 cycles: 11600774 heartbeat IPC: 1.72418 cumulative IPC: 1.72402 (Simulation time: 0 hr 9 min 47 sec) 
Heartbeat CPU 3 instructions: 30000002 cycles: 12325054 heartbeat IPC: 2.50566 cumulative IPC: 0.811356 (Simulation time: 0 hr 10 min 22 sec) 
Heartbeat CPU 0 instructions: 30000000 cycles: 12479010 heartbeat IPC: 2.43631 cumulative IPC: 0.801346 (Simulation time: 0 hr 10 min 30 sec) 
Heartbeat CPU 6 instructions: 20000000 cycles: 12819505 heartbeat IPC: 1.56028 cumulative IPC: 1.56012 (Simulation time: 0 hr 10 min 46 sec) 

Warmup complete CPU 0 instructions: 30879825 cycles: 12819506 (Simulation time: 0 hr 10 min 46 sec) 
Warmup complete CPU 1 instructions: 25092010 cycles: 12819506 (Simulation time: 0 hr 10 min 46 sec) 
Warmup complete CPU 2 instructions: 22101250 cycles: 12819506 (Simulation time: 0 hr 10 min 46 sec) 
Warmup complete CPU 3 instructions: 31233375 cycles: 12819506 (Simulation time: 0 hr 10 min 46 sec) 
Warmup complete CPU 4 instructions: 28760333 cycles: 12819506 (Simulation time: 0 hr 10 min 46 sec) 
Warmup complete CPU 5 instructions: 29131543 cycles: 12819506 (Simulation time: 0 hr 10 min 46 sec) 
Warmup complete CPU 6 instructions: 20000003 cycles: 12819506 (Simulation time: 0 hr 10 min 46 sec) 
Warmup complete CPU 7 instructions: 29059935 cycles: 12819505 (Simulation time: 0 hr 10 min 46 sec) 

Heartbeat CPU 7 instructions: 30000002 cycles: 13454905 heartbeat IPC: 2.15975 cumulative IPC: 1.47949 (Simulation time: 0 hr 11 min 3 sec) 
Heartbeat CPU 5 instructions: 30000003 cycles: 13902504 heartbeat IPC: 1.96035 cumulative IPC: 0.801904 (Simulation time: 0 hr 11 min 16 sec) 
Heartbeat CPU 4 instructions: 30000003 cycles: 14703284 heartbeat IPC: 1.71509 cumulative IPC: 0.658076 (Simulation time: 0 hr 11 min 43 sec) 
Heartbeat CPU 0 instructions: 40000000 cycles: 19233645 heartbeat IPC: 1.48046 cumulative IPC: 1.42189 (Simulation time: 0 hr 13 min 52 sec) 
Heartbeat CPU 7 instructions: 40000000 cycles: 20052707 heartbeat IPC: 1.51566 cumulative IPC: 1.51248 (Simulation time: 0 hr 14 min 16 sec) 
Heartbeat CPU 2 instructions: 30000001 cycles: 20285582 heartbeat IPC: 1.15144 cumulative IPC: 1.05795 (Simulation time: 0 hr 14 min 22 sec) 
Heartbeat CPU 3 instructions: 40000000 cycles: 20552040 heartbeat IPC: 1.21551 cumulative IPC: 1.13373 (Simulation time: 0 hr 14 min 30 sec) 
Heartbeat CPU 1 instructions: 30000000 cycles: 21246977 heartbeat IPC: 0.906704 cumulative IPC: 0.58238 (Simulation time: 0 hr 14 min 50 sec) 
Heartbeat CPU 5 instructions: 40000000 cycles: 24538450 heartbeat IPC: 0.940208 cumulative IPC: 0.927426 (Simulation time: 0 hr 16 min 23 sec) 
Heartbeat CPU 0 instructions: 50000003 cycles: 26373668 heartbeat IPC: 1.40056 cumulative IPC: 1.41065 (Simulation time: 0 hr 17 min 15 sec) 
Heartbeat CPU 7 instructions: 50000003 cycles: 26631202 heartbeat IPC: 1.52011 cumulative IPC: 1.51611 (Simulation time: 0 hr 17 min 23 sec) 
Heartbeat CPU 3 instructions: 50000003 cycles: 29374824 heartbeat IPC: 1.13343 cumulative IPC: 1.13357 (Simulation time: 0 hr 18 min 42 sec) 
Heartbeat CPU 4 instructions: 40000000 cycles: 29436884 heartbeat IPC: 0.678721 cumulative IPC: 0.67638 (Simulation time: 0 hr 18 min 44 sec) 
Heartbeat CPU 2 instructions: 40000000 cycles: 29728489 heartbeat IPC: 1.059 cumulative IPC: 1.05853 (Simulation time: 0 hr 18 min 52 sec) 
Heartbeat CPU 7 instructions: 60000000 cycles: 33229212 heartbeat IPC: 1.51561 cumulative IPC: 1.51595 (Simulation time: 0 hr 20 min 30 sec) 
Heartbeat CPU 0 instructions: 60000000 cycles: 33456424 heartbeat IPC: 1.41188 cumulative IPC: 1.41107 (Simulation time: 0 hr 20 min 36 sec) 
Heartbeat CPU 5 instructions: 50000001 cycles: 35291524 heartbeat IPC: 0.929967 cumulative IPC: 0.928642 (Simulation time: 0 hr 21 min 28 sec) 
Heartbeat CPU 6 instructions: 30000000 cycles: 36390685 heartbeat IPC: 0.424247 cumulative IPC: 0.424247 (Simulation time: 0 hr 21 min 59 sec) 
Heartbeat CPU 3 instructions: 60000000 cycles: 38178370 heartbeat IPC: 1.13591 cumulative IPC: 1.13438 (Simulation time: 0 hr 22 min 50 sec) 
Heartbeat CPU 1 instructions: 40000000 cycles: 38392843 heartbeat IPC: 0.583231 cumulative IPC: 0.582951 (Simulation time: 0 hr 22 min 56 sec) 
Heartbeat CPU 2 instructions: 50000003 cycles: 39160360 heartbeat IPC: 1.06024 cumulative IPC: 1.05914 (Simulation time: 0 hr 23 min 18 sec) 
Heartbeat CPU 7 instructions: 70000002 cycles: 39737839 heartbeat IPC: 1.53642 cumulative IPC: 1.5209 (Simulation time: 0 hr 23 min 35 sec) 
Heartbeat CPU 0 instructions: 70000001 cycles: 40704584 heartbeat IPC: 1.37966 cumulative IPC: 1.40291 (Simulation time: 0 hr 24 min 5 sec) 
Heartbeat CPU 4 instructions: 50000003 cycles: 44776153 heartbeat IPC: 0.651922 cumulative IPC: 0.66464 (Simulation time: 0 hr 26 min 2 sec) 
Heartbeat CPU 7 instructions: 80000000 cycles: 46259918 heartbeat IPC: 1.53325 cumulative IPC: 1.52331 (Simulation time: 0 hr 26 min 47 sec) 
Heartbeat CPU 3 instructions: 70000001 cycles: 47021952 heartbeat IPC: 1.13076 cumulative IPC: 1.13345 (Simulation time: 0 hr 27 min 11 sec) 
Heartbeat CPU 0 instructions: 80000000 cycles: 48008896 heartbeat IPC: 1.36905 cumulative IPC: 1.39588 (Simulation time: 0 hr 27 min 40 sec) 
Heartbeat CPU 5 instructions: 60000000 cycles: 48415506 heartbeat IPC: 0.761964 cumulative IPC: 0.867189 (Simulation time: 0 hr 27 min 50 sec) 
Heartbeat CPU 2 instructions: 60000000 cycles: 48598361 heartbeat IPC: 1.05955 cumulative IPC: 1.05925 (Simulation time: 0 hr 27 min 55 sec) 
Heartbeat CPU 7 instructions: 90000002 cycles: 53604062 heartbeat IPC: 1.36163 cumulative IPC: 1.49419 (Simulation time: 0 hr 30 min 22 sec) 
Heartbeat CPU 1 instructions: 50000003 cycles: 54968309 heartbeat IPC: 0.603301 cumulative IPC: 0.590954 (Simulation time: 0 hr 30 min 58 sec) 
Heartbeat CPU 0 instructions: 90000001 cycles: 55542904 heartbeat IPC: 1.32731 cumulative IPC: 1.38379 (Simulation time: 0 hr 31 min 13 sec) 
Heartbeat CPU 3 instructions: 80000000 cycles: 55805475 heartbeat IPC: 1.1385 cumulative IPC: 1.13448 (Simulation time: 0 hr 31 min 20 sec) 
Heartbeat CPU 2 instructions: 70000000 cycles: 57564576 heartbeat IPC: 1.1153 cumulative IPC: 1.07048 (Simulation time: 0 hr 32 min 6 sec) 
Heartbeat CPU 6 instructions: 40000000 cycles: 59810924 heartbeat IPC: 0.426981 cumulative IPC: 0.42561 (Simulation time: 0 hr 33 min 4 sec) 
Heartbeat CPU 7 instructions: 100000000 cycles: 60383298 heartbeat IPC: 1.47509 cumulative IPC: 1.49147 (Simulation time: 0 hr 33 min 18 sec) 
Heartbeat CPU 4 instructions: 60000000 cycles: 62761397 heartbeat IPC: 0.556011 cumulative IPC: 0.62552 (Simulation time: 0 hr 34 min 18 sec) 
Heartbeat CPU 0 instructions: 100000000 cycles: 62891966 heartbeat IPC: 1.36072 cumulative IPC: 1.3804 (Simulation time: 0 hr 34 min 22 sec) 
Heartbeat CPU 5 instructions: 70000000 cycles: 63519180 heartbeat IPC: 0.662091 cumulative IPC: 0.806089 (Simulation time: 0 hr 34 min 38 sec) 
Heartbeat CPU 3 instructions: 90000001 cycles: 64611134 heartbeat IPC: 1.13563 cumulative IPC: 1.13467 (Simulation time: 0 hr 35 min 8 sec) 
Heartbeat CPU 2 instructions: 80000000 cycles: 66370898 heartbeat IPC: 1.13555 cumulative IPC: 1.08118 (Simulation time: 0 hr 35 min 56 sec) 
Heartbeat CPU 7 instructions: 110000000 cycles: 67345685 heartbeat IPC: 1.43629 cumulative IPC: 1.48443 (Simulation time: 0 hr 36 min 23 sec) 
Heartbeat CPU 0 instructions: 110000001 cycles: 69999794 heartbeat IPC: 1.4069 cumulative IPC: 1.3837 (Simulation time: 0 hr 37 min 36 sec) 
Heartbeat CPU 1 instructions: 60000000 cycles: 72746908 heartbeat IPC: 0.562474 cumulative IPC: 0.582505 (Simulation time: 0 hr 38 min 50 sec) 
Heartbeat CPU 3 instructions: 100000000 cycles: 73409391 heartbeat IPC: 1.13659 cumulative IPC: 1.13495 (Simulation time: 0 hr 39 min 7 sec) 
Heartbeat CPU 7 instructions: 120000000 cycles: 74251386 heartbeat IPC: 1.44808 cumulative IPC: 1.48034 (Simulation time: 0 hr 39 min 29 sec) 
Heartbeat CPU 5 instructions: 80000000 cycles: 75309262 heartbeat IPC: 0.848171 cumulative IPC: 0.814029 (Simulation time: 0 hr 39 min 57 sec) 
Heartbeat CPU 2 instructions: 90000000 cycles: 76120059 heartbeat IPC: 1.02573 cumulative IPC: 1.07264 (Simulation time: 0 hr 40 min 16 sec) 
Heartbeat CPU 4 instructions: 70000002 cycles: 78136941 heartbeat IPC: 0.650384 cumulative IPC: 0.631373 (Simulation time: 0 hr 41 min 3 sec) 
Heartbeat CPU 0 instructions: 120000000 cycles: 79748380 heartbeat IPC: 1.02579 cumulative IPC: 1.33157 (Simulation time: 0 hr 41 min 46 sec) 
Finished CPU 7 instructions: 100000003 cycles: 67551386 cumulative IPC: 1.48035 (Simulation time: 0 hr 42 min 4 sec) 
Heartbeat CPU 7 instructions: 130000001 cycles: 81009487 heartbeat IPC: 1.47971 cumulative IPC: 1.48028 (Simulation time: 0 hr 42 min 21 sec) 
Heartbeat CPU 3 instructions: 110000002 cycles: 82183468 heartbeat IPC: 1.13972 cumulative IPC: 1.13556 (Simulation time: 0 hr 42 min 55 sec) 
Heartbeat CPU 6 instructions: 50000001 cycles: 83412505 heartbeat IPC: 0.4237 cumulative IPC: 0.424971 (Simulation time: 0 hr 43 min 31 sec) 
Heartbeat CPU 0 instructions: 130000003 cycles: 84411126 heartbeat IPC: 2.14466 cumulative IPC: 1.38452 (Simulation time: 0 hr 44 min 0 sec) 
Finished CPU 0 instructions: 100000002 cycles: 71972277 cumulative IPC: 1.38942 (Simulation time: 0 hr 44 min 11 sec) 
Heartbeat CPU 5 instructions: 90000001 cycles: 86914576 heartbeat IPC: 0.861674 cumulative IPC: 0.821491 (Simulation time: 0 hr 45 min 11 sec) 
Heartbeat CPU 2 instructions: 100000000 cycles: 87054692 heartbeat IPC: 0.914525 cumulative IPC: 1.04935 (Simulation time: 0 hr 45 min 14 sec) 
Heartbeat CPU 7 instructions: 140000000 cycles: 87803958 heartbeat IPC: 1.47178 cumulative IPC: 1.47951 (Simulation time: 0 hr 45 min 35 sec) 
Heartbeat CPU 1 instructions: 70000003 cycles: 89901377 heartbeat IPC: 0.582939 cumulative IPC: 0.582601 (Simulation time: 0 hr 46 min 31 sec) 
Heartbeat CPU 0 instructions: 140000000 cycles: 90529679 heartbeat IPC: 1.63437 cumulative IPC: 1.40419 (Simulation time: 0 hr 46 min 47 sec) 
Heartbeat CPU 3 instructions: 120000000 cycles: 90985141 heartbeat IPC: 1.13615 cumulative IPC: 1.13562 (Simulation time: 0 hr 46 min 59 sec) 
Heartbeat CPU 4 instructions: 80000000 cycles: 93959916 heartbeat IPC: 0.631992 cumulative IPC: 0.631494 (Simulation time: 0 hr 48 min 22 sec) 
Heartbeat CPU 7 instructions: 150000003 cycles: 94793778 heartbeat IPC: 1.43065 cumulative IPC: 1.47534 (Simulation time: 0 hr 48 min 44 sec) 
Heartbeat CPU 2 instructions: 110000002 cycles: 95978147 heartbeat IPC: 1.12064 cumulative IPC: 1.057 (Simulation time: 0 hr 49 min 19 sec) 
Heartbeat CPU 0 instructions: 150000003 cycles: 98082962 heartbeat IPC: 1.32393 cumulative IPC: 1.39708 (Simulation time: 0 hr 50 min 19 sec) 
Heartbeat CPU 3 instructions: 130000000 cycles: 99746422 heartbeat IPC: 1.14139 cumulative IPC: 1.1362 (Simulation time: 0 hr 51 min 6 sec) 
Finished CPU 3 instructions: 100000000 cycles: 88006606 cumulative IPC: 1.13628 (Simulation time: 0 hr 51 min 38 sec) 
Heartbeat CPU 7 instructions: 160000000 cycles: 101666499 heartbeat IPC: 1.45503 cumulative IPC: 1.47377 (Simulation time: 0 hr 52 min 4 sec) 
Heartbeat CPU 5 instructions: 100000000 cycles: 103886264 heartbeat IPC: 0.589217 cumulative IPC: 0.778203 (Simulation time: 0 hr 53 min 13 sec) 
Heartbeat CPU 2 instructions: 120000000 cycles: 104853727 heartbeat IPC: 1.12669 cumulative IPC: 1.06372 (Simulation time: 0 hr 53 min 39 sec) 
Heartbeat CPU 0 instructions: 160000000 cycles: 105068682 heartbeat IPC: 1.43149 cumulative IPC: 1.39969 (Simulation time: 0 hr 53 min 45 sec) 
Finished CPU 2 instructions: 100000000 cycles: 93884922 cumulative IPC: 1.06513 (Simulation time: 0 hr 54 min 34 sec) 
Heartbeat CPU 6 instructions: 60000000 cycles: 107026675 heartbeat IPC: 0.423475 cumulative IPC: 0.424596 (Simulation time: 0 hr 54 min 43 sec) 
Heartbeat CPU 1 instructions: 80000000 cycles: 107103109 heartbeat IPC: 0.581337 cumulative IPC: 0.582371 (Simulation time: 0 hr 54 min 46 sec) 
Heartbeat CPU 7 instructions: 170000000 cycles: 108419329 heartbeat IPC: 1.48086 cumulative IPC: 1.47427 (Simulation time: 0 hr 55 min 26 sec) 
Heartbeat CPU 3 instructions: 140000000 cycles: 108469717 heartbeat IPC: 1.14636 cumulative IPC: 1.13713 (Simulation time: 0 hr 55 min 28 sec) 
Heartbeat CPU 4 instructions: 90000001 cycles: 109902527 heartbeat IPC: 0.62725 cumulative IPC: 0.630797 (Simulation time: 0 hr 56 min 9 sec) 
Heartbeat CPU 0 instructions: 170000000 cycles: 111712479 heartbeat IPC: 1.50516 cumulative IPC: 1.40678 (Simulation time: 0 hr 56 min 57 sec) 
Heartbeat CPU 2 instructions: 130000001 cycles: 114310625 heartbeat IPC: 1.05743 cumulative IPC: 1.06313 (Simulation time: 0 hr 58 min 7 sec) 
Heartbeat CPU 7 instructions: 180000000 cycles: 115300508 heartbeat IPC: 1.45324 cumulative IPC: 1.47286 (Simulation time: 0 hr 58 min 35 sec) 
Heartbeat CPU 5 instructions: 110000001 cycles: 116679298 heartbeat IPC: 0.781675 cumulative IPC: 0.778631 (Simulation time: 0 hr 59 min 16 sec) 
Heartbeat CPU 3 instructions: 150000001 cycles: 117192662 heartbeat IPC: 1.1464 cumulative IPC: 1.1379 (Simulation time: 0 hr 59 min 33 sec) 
Heartbeat CPU 0 instructions: 180000000 cycles: 118648061 heartbeat IPC: 1.44184 cumulative IPC: 1.40907 (Simulation time: 1 hr 0 min 17 sec) 
Heartbeat CPU 7 instructions: 190000000 cycles: 122278490 heartbeat IPC: 1.43308 cumulative IPC: 1.47032 (Simulation time: 1 hr 2 min 9 sec) 
Heartbeat CPU 2 instructions: 140000000 cycles: 124254140 heartbeat IPC: 1.00568 cumulative IPC: 1.05801 (Simulation time: 1 hr 3 min 5 sec) 
Heartbeat CPU 1 instructions: 90000003 cycles: 124267592 heartbeat IPC: 0.582599 cumulative IPC: 0.582406 (Simulation time: 1 hr 3 min 6 sec) 
Heartbeat CPU 4 instructions: 100000000 cycles: 124852372 heartbeat IPC: 0.668903 cumulative IPC: 0.635882 (Simulation time: 1 hr 3 min 22 sec) 
Heartbeat CPU 0 instructions: 190000000 cycles: 125906415 heartbeat IPC: 1.37772 cumulative IPC: 1.40706 (Simulation time: 1 hr 3 min 56 sec) 
Heartbeat CPU 3 instructions: 160000000 cycles: 126148317 heartbeat IPC: 1.11661 cumulative IPC: 1.13622 (Simulation time: 1 hr 4 min 5 sec) 
Heartbeat CPU 7 instructions: 200000000 cycles: 129157440 heartbeat IPC: 1.45371 cumulative IPC: 1.46934 (Simulation time: 1 hr 5 min 29 sec) 
Heartbeat CPU 5 instructions: 120000000 cycles: 129779066 heartbeat IPC: 0.763372 cumulative IPC: 0.776922 (Simulation time: 1 hr 5 min 45 sec) 
Heartbeat CPU 6 instructions: 70000000 cycles: 130681939 heartbeat IPC: 0.422739 cumulative IPC: 0.424223 (Simulation time: 1 hr 6 min 10 sec) 
Heartbeat CPU 0 instructions: 200000000 cycles: 132836084 heartbeat IPC: 1.44307 cumulative IPC: 1.40914 (Simulation time: 1 hr 7 min 10 sec) 
Heartbeat CPU 2 instructions: 150000002 cycles: 133137905 heartbeat IPC: 1.12565 cumulative IPC: 1.063 (Simulation time: 1 hr 7 min 18 sec) 
Heartbeat CPU 3 instructions: 170000001 cycles: 135123528 heartbeat IPC: 1.11418 cumulative IPC: 1.1346 (Simulation time: 1 hr 8 min 12 sec) 
Heartbeat CPU 7 instructions: 210000002 cycles: 135873907 heartbeat IPC: 1.48888 cumulative IPC: 1.47041 (Simulation time: 1 hr 8 min 32 sec) 
Heartbeat CPU 0 instructions: 210000000 cycles: 139992502 heartbeat IPC: 1.39735 cumulative IPC: 1.40848 (Simulation time: 1 hr 10 min 28 sec) 
Heartbeat CPU 4 instructions: 110000002 cycles: 140802239 heartbeat IPC: 0.626965 cumulative IPC: 0.634771 (Simulation time: 1 hr 10 min 53 sec) 
Heartbeat CPU 1 instructions: 100000000 cycles: 141463162 heartbeat IPC: 0.581545 cumulative IPC: 0.582291 (Simulation time: 1 hr 11 min 14 sec) 
Heartbeat CPU 2 instructions: 160000000 cycles: 141989062 heartbeat IPC: 1.1298 cumulative IPC: 1.06758 (Simulation time: 1 hr 11 min 28 sec) 
Heartbeat CPU 7 instructions: 220000000 cycles: 142784386 heartbeat IPC: 1.44708 cumulative IPC: 1.46917 (Simulation time: 1 hr 11 min 50 sec) 
Finished CPU 5 instructions: 100000000 cycles: 130506625 cumulative IPC: 0.766245 (Simulation time: 1 hr 12 min 5 sec) 
Heartbeat CPU 3 instructions: 180000000 cycles: 144130219 heartbeat IPC: 1.11029 cumulative IPC: 1.13294 (Simulation time: 1 hr 12 min 27 sec) 
Heartbeat CPU 5 instructions: 130000003 cycles: 144670036 heartbeat IPC: 0.671548 cumulative IPC: 0.765021 (Simulation time: 1 hr 12 min 42 sec) 
Heartbeat CPU 0 instructions: 220000000 cycles: 147001504 heartbeat IPC: 1.42674 cumulative IPC: 1.40943 (Simulation time: 1 hr 13 min 47 sec) 
Heartbeat CPU 7 instructions: 230000002 cycles: 149693810 heartbeat IPC: 1.4473 cumulative IPC: 1.46806 (Simulation time: 1 hr 15 min 3 sec) 
Heartbeat CPU 2 instructions: 170000003 cycles: 150749004 heartbeat IPC: 1.14156 cumulative IPC: 1.07228 (Simulation time: 1 hr 15 min 32 sec) 
Heartbeat CPU 3 instructions: 190000001 cycles: 153146993 heartbeat IPC: 1.10904 cumulative IPC: 1.1314 (Simulation time: 1 hr 16 min 39 sec) 
Heartbeat CPU 0 instructions: 230000001 cycles: 153935154 heartbeat IPC: 1.44224 cumulative IPC: 1.41104 (Simulation time: 1 hr 17 min 1 sec) 
Heartbeat CPU 6 instructions: 80000000 cycles: 154139091 heartbeat IPC: 0.426309 cumulative IPC: 0.42457 (Simulation time: 1 hr 17 min 7 sec) 
Heartbeat CPU 4 instructions: 120000000 cycles: 156850415 heartbeat IPC: 0.623124 cumulative IPC: 0.633473 (Simulation time: 1 hr 18 min 20 sec) 
Heartbeat CPU 7 instructions: 240000000 cycles: 157335147 heartbeat IPC: 1.30867 cumulative IPC: 1.45963 (Simulation time: 1 hr 18 min 34 sec) 
Heartbeat CPU 5 instructions: 140000000 cycles: 158579620 heartbeat IPC: 0.718929 cumulative IPC: 0.760623 (Simulation time: 1 hr 19 min 8 sec) 
Heartbeat CPU 1 instructions: 110000002 cycles: 158669283 heartbeat IPC: 0.581189 cumulative IPC: 0.582161 (Simulation time: 1 hr 19 min 10 sec) 
Heartbeat CPU 2 instructions: 180000000 cycles: 159563320 heartbeat IPC: 1.13452 cumulative IPC: 1.07602 (Simulation time: 1 hr 19 min 35 sec) 
Heartbeat CPU 0 instructions: 240000000 cycles: 161129204 heartbeat IPC: 1.39004 cumulative IPC: 1.41002 (Simulation time: 1 hr 20 min 18 sec) 
Heartbeat CPU 3 instructions: 200000000 cycles: 162410826 heartbeat IPC: 1.07947 cumulative IPC: 1.12818 (Simulation time: 1 hr 20 min 54 sec) 
Heartbeat CPU 7 instructions: 250000003 cycles: 163858933 heartbeat IPC: 1.53285 cumulative IPC: 1.4628 (Simulation time: 1 hr 21 min 33 sec) 
Heartbeat CPU 0 instructions: 250000001 cycles: 168088703 heartbeat IPC: 1.43689 cumulative IPC: 1.41123 (Simulation time: 1 hr 23 min 30 sec) 
Heartbeat CPU 2 instructions: 190000002 cycles: 168421480 heartbeat IPC: 1.1289 cumulative IPC: 1.07903 (Simulation time: 1 hr 23 min 40 sec) 
Heartbeat CPU 7 instructions: 260000000 cycles: 170243052 heartbeat IPC: 1.56639 cumulative IPC: 1.467 (Simulation time: 1 hr 24 min 31 sec) 
Finished CPU 4 instructions: 100000000 cycles: 157678767 cumulative IPC: 0.634201 (Simulation time: 1 hr 24 min 38 sec) 
Heartbeat CPU 3 instructions: 210000001 cycles: 171607147 heartbeat IPC: 1.08739 cumulative IPC: 1.12582 (Simulation time: 1 hr 25 min 8 sec) 
Heartbeat CPU 4 instructions: 130000000 cycles: 172629610 heartbeat IPC: 0.633746 cumulative IPC: 0.6335 (Simulation time: 1 hr 25 min 36 sec) 
Heartbeat CPU 5 instructions: 150000001 cycles: 175230542 heartbeat IPC: 0.600567 cumulative IPC: 0.744213 (Simulation time: 1 hr 26 min 47 sec) 
Heartbeat CPU 0 instructions: 260000000 cycles: 175297274 heartbeat IPC: 1.38724 cumulative IPC: 1.41016 (Simulation time: 1 hr 26 min 49 sec) 
Heartbeat CPU 1 instructions: 120000000 cycles: 175424324 heartbeat IPC: 0.596835 cumulative IPC: 0.583673 (Simulation time: 1 hr 26 min 52 sec) 
Heartbeat CPU 7 instructions: 270000002 cycles: 176533293 heartbeat IPC: 1.58976 cumulative IPC: 1.47172 (Simulation time: 1 hr 27 min 22 sec) 
Heartbeat CPU 2 instructions: 200000000 cycles: 177352506 heartbeat IPC: 1.11969 cumulative IPC: 1.08123 (Simulation time: 1 hr 27 min 44 sec) 
Heartbeat CPU 6 instructions: 90000000 cycles: 177700994 heartbeat IPC: 0.424414 cumulative IPC: 0.424547 (Simulation time: 1 hr 27 min 53 sec) 
Heartbeat CPU 3 instructions: 220000000 cycles: 180837730 heartbeat IPC: 1.08336 cumulative IPC: 1.12349 (Simulation time: 1 hr 29 min 15 sec) 
Heartbeat CPU 0 instructions: 270000001 cycles: 182462566 heartbeat IPC: 1.39562 cumulative IPC: 1.40955 (Simulation time: 1 hr 30 min 0 sec) 
Finished CPU 1 instructions: 100000002 cycles: 170313930 cumulative IPC: 0.587151 (Simulation time: 1 hr 30 min 18 sec) 
Heartbeat CPU 7 instructions: 280000000 cycles: 183539055 heartbeat IPC: 1.4274 cumulative IPC: 1.4699 (Simulation time: 1 hr 30 min 30 sec) 
Heartbeat CPU 2 instructions: 210000000 cycles: 186255998 heartbeat IPC: 1.12315 cumulative IPC: 1.08339 (Simulation time: 1 hr 31 min 42 sec) 
Heartbeat CPU 4 instructions: 140000000 cycles: 188082760 heartbeat IPC: 0.647117 cumulative IPC: 0.6347 (Simulation time: 1 hr 32 min 30 sec) 
Heartbeat CPU 0 instructions: 280000000 cycles: 189554621 heartbeat IPC: 1.41003 cumulative IPC: 1.40957 (Simulation time: 1 hr 33 min 7 sec) 
Heartbeat CPU 3 instructions: 230000001 cycles: 189914042 heartbeat IPC: 1.10177 cumulative IPC: 1.12238 (Simulation time: 1 hr 33 min 16 sec) 
Heartbeat CPU 7 instructions: 290000001 cycles: 190452291 heartbeat IPC: 1.4465 cumulative IPC: 1.46899 (Simulation time: 1 hr 33 min 31 sec) 
Heartbeat CPU 1 instructions: 130000003 cycles: 192304385 heartbeat IPC: 0.592415 cumulative IPC: 0.584495 (Simulation time: 1 hr 34 min 22 sec) 
Heartbeat CPU 5 instructions: 160000000 cycles: 193449088 heartbeat IPC: 0.548891 cumulative IPC: 0.724513 (Simulation time: 1 hr 34 min 53 sec) 
Heartbeat CPU 2 instructions: 220000000 cycles: 195050798 heartbeat IPC: 1.13704 cumulative IPC: 1.08598 (Simulation time: 1 hr 35 min 37 sec) 
Heartbeat CPU 0 instructions: 290000003 cycles: 196461983 heartbeat IPC: 1.44773 cumulative IPC: 1.411 (Simulation time: 1 hr 36 min 17 sec) 
Heartbeat CPU 7 instructions: 300000000 cycles: 197532738 heartbeat IPC: 1.41234 cumulative IPC: 1.46681 (Simulation time: 1 hr 36 min 46 sec) 
Heartbeat CPU 3 instructions: 240000000 cycles: 198992305 heartbeat IPC: 1.10153 cumulative IPC: 1.12136 (Simulation time: 1 hr 37 min 27 sec) 
Heartbeat CPU 6 instructions: 100000000 cycles: 201114590 heartbeat IPC: 0.427102 cumulative IPC: 0.424865 (Simulation time: 1 hr 38 min 27 sec) 
Heartbeat CPU 0 instructions: 300000000 cycles: 203344196 heartbeat IPC: 1.45302 cumulative IPC: 1.41252 (Simulation time: 1 hr 39 min 30 sec) 
Heartbeat CPU 7 instructions: 310000003 cycles: 203847923 heartbeat IPC: 1.58349 cumulative IPC: 1.47067 (Simulation time: 1 hr 39 min 43 sec) 
Heartbeat CPU 2 instructions: 230000000 cycles: 203876143 heartbeat IPC: 1.1331 cumulative IPC: 1.08815 (Simulation time: 1 hr 39 min 44 sec) 
Heartbeat CPU 4 instructions: 150000000 cycles: 204364287 heartbeat IPC: 0.614193 cumulative IPC: 0.632957 (Simulation time: 1 hr 39 min 57 sec) 
Heartbeat CPU 3 instructions: 250000003 cycles: 208146124 heartbeat IPC: 1.09244 cumulative IPC: 1.12 (Simulation time: 1 hr 41 min 42 sec) 
Heartbeat CPU 5 instructions: 170000002 cycles: 208148663 heartbeat IPC: 0.680292 cumulative IPC: 0.721185 (Simulation time: 1 hr 41 min 42 sec) 
Heartbeat CPU 1 instructions: 140000000 cycles: 209635449 heartbeat IPC: 0.576998 cumulative IPC: 0.583835 (Simulation time: 1 hr 42 min 24 sec) 
Heartbeat CPU 0 instructions: 310000000 cycles: 210148364 heartbeat IPC: 1.46969 cumulative IPC: 1.41449 (Simulation time: 1 hr 42 min 39 sec) 
Heartbeat CPU 7 instructions: 320000000 cycles: 210290853 heartbeat IPC: 1.55209 cumulative IPC: 1.47333 (Simulation time: 1 hr 42 min 43 sec) 
Heartbeat CPU 2 instructions: 240000000 cycles: 213264903 heartbeat IPC: 1.0651 cumulative IPC: 1.08707 (Simulation time: 1 hr 44 min 6 sec) 
Heartbeat CPU 7 instructions: 330000003 cycles: 216648880 heartbeat IPC: 1.57282 cumulative IPC: 1.47643 (Simulation time: 1 hr 45 min 41 sec) 
Heartbeat CPU 0 instructions: 320000000 cycles: 216991023 heartbeat IPC: 1.46142 cumulative IPC: 1.41607 (Simulation time: 1 hr 45 min 51 sec) 
Heartbeat CPU 3 instructions: 260000000 cycles: 217033352 heartbeat IPC: 1.12521 cumulative IPC: 1.12023 (Simulation time: 1 hr 45 min 52 sec) 
Heartbeat CPU 4 instructions: 160000000 cycles: 220281305 heartbeat IPC: 0.628258 cumulative IPC: 0.632597 (Simulation time: 1 hr 47 min 23 sec) 
Heartbeat CPU 5 instructions: 180000000 cycles: 220286591 heartbeat IPC: 0.823864 cumulative IPC: 0.727192 (Simulation time: 1 hr 47 min 23 sec) 
Heartbeat CPU 2 instructions: 250000002 cycles: 222891686 heartbeat IPC: 1.03877 cumulative IPC: 1.08486 (Simulation time: 1 hr 48 min 39 sec) 
Heartbeat CPU 7 instructions: 340000000 cycles: 223058055 heartbeat IPC: 1.56026 cumulative IPC: 1.47899 (Simulation time: 1 hr 48 min 44 sec) 
Heartbeat CPU 0 instructions: 330000002 cycles: 223848830 heartbeat IPC: 1.45819 cumulative IPC: 1.41743 (Simulation time: 1 hr 49 min 7 sec) 
Heartbeat CPU 6 instructions: 110000001 cycles: 224395136 heartbeat IPC: 0.429543 cumulative IPC: 0.42538 (Simulation time: 1 hr 49 min 23 sec) 
Heartbeat CPU 3 instructions: 270000001 cycles: 225936936 heartbeat IPC: 1.12314 cumulative IPC: 1.12035 (Simulation time: 1 hr 50 min 8 sec) 
Heartbeat CPU 1 instructions: 150000000 cycles: 226891981 heartbeat IPC: 0.579491 cumulative IPC: 0.583485 (Simulation time: 1 hr 50 min 36 sec) 
Heartbeat CPU 7 instructions: 350000000 cycles: 229353928 heartbeat IPC: 1.58834 cumulative IPC: 1.48217 (Simulation time: 1 hr 51 min 47 sec) 
Heartbeat CPU 0 instructions: 340000000 cycles: 230778586 heartbeat IPC: 1.44305 cumulative IPC: 1.41825 (Simulation time: 1 hr 52 min 28 sec) 
Heartbeat CPU 2 instructions: 260000000 cycles: 231779439 heartbeat IPC: 1.12514 cumulative IPC: 1.08649 (Simulation time: 1 hr 52 min 58 sec) 
Heartbeat CPU 5 instructions: 190000001 cycles: 231899195 heartbeat IPC: 0.861133 cumulative IPC: 0.734292 (Simulation time: 1 hr 53 min 1 sec) 
Heartbeat CPU 4 instructions: 170000003 cycles: 234312235 heartbeat IPC: 0.712711 cumulative IPC: 0.637672 (Simulation time: 1 hr 54 min 10 sec) 
Heartbeat CPU 3 instructions: 280000000 cycles: 234949484 heartbeat IPC: 1.10956 cumulative IPC: 1.11991 (Simulation time: 1 hr 54 min 29 sec) 
Heartbeat CPU 7 instructions: 360000000 cycles: 236312167 heartbeat IPC: 1.43715 cumulative IPC: 1.48076 (Simulation time: 1 hr 55 min 8 sec) 
Heartbeat CPU 0 instructions: 350000003 cycles: 237653639 heartbeat IPC: 1.45453 cumulative IPC: 1.41936 (Simulation time: 1 hr 55 min 46 sec) 
Heartbeat CPU 2 instructions: 270000000 cycles: 240950268 heartbeat IPC: 1.09041 cumulative IPC: 1.08665 (Simulation time: 1 hr 57 min 23 sec) 
Heartbeat CPU 7 instructions: 370000003 cycles: 242689831 heartbeat IPC: 1.56797 cumulative IPC: 1.48318 (Simulation time: 1 hr 58 min 15 sec) 
Heartbeat CPU 5 instructions: 200000000 cycles: 243587165 heartbeat IPC: 0.855581 cumulative IPC: 0.740435 (Simulation time: 1 hr 58 min 40 sec) 
Heartbeat CPU 3 instructions: 290000002 cycles: 243883523 heartbeat IPC: 1.11931 cumulative IPC: 1.11989 (Simulation time: 1 hr 58 min 49 sec) 
Heartbeat CPU 1 instructions: 160000000 cycles: 244266285 heartbeat IPC: 0.575563 cumulative IPC: 0.58289 (Simulation time: 1 hr 59 min 0 sec) 
Heartbeat CPU 0 instructions: 360000000 cycles: 244549301 heartbeat IPC: 1.45019 cumulative IPC: 1.42028 (Simulation time: 1 hr 59 min 9 sec) 
Heartbeat CPU 4 instructions: 180000000 cycles: 246425354 heartbeat IPC: 0.825551 cumulative IPC: 0.647414 (Simulation time: 2 hr 0 min 4 sec) 
Heartbeat CPU 6 instructions: 120000000 cycles: 247620587 heartbeat IPC: 0.430562 cumulative IPC: 0.425892 (Simulation time: 2 hr 0 min 38 sec) 
Finished CPU 6 instructions: 100000001 cycles: 234801090 cumulative IPC: 0.425892 (Simulation time: 2 hr 0 min 38 sec) 

CPU 0 Branch Prediction Accuracy: 96.6449% MPKI: 1.21149

CPU 1 Branch Prediction Accuracy: 99.9625% MPKI: 0.0281309

CPU 2 Branch Prediction Accuracy: 99.7243% MPKI: 0.00521199

CPU 3 Branch Prediction Accuracy: 91.8307% MPKI: 11.1845

CPU 4 Branch Prediction Accuracy: 89.9909% MPKI: 12.1338

CPU 5 Branch Prediction Accuracy: 99.975% MPKI: 0.00416296

CPU 6 Branch Prediction Accuracy: 84.4758% MPKI: 16.3784

CPU 7 Branch Prediction Accuracy: 96.6865% MPKI: 4.55645

ChampSim completed all CPUs

Total Simulation Statistics (not including warmup)

CPU 0 cumulative IPC: 1.42059 instructions: 333556911 cycles: 234801090
L1D TOTAL     ACCESS:   52570163  HIT:   51353513  MISS:    1216650
L1D LOAD      ACCESS:   31807956  HIT:   30943611  MISS:     864345
L1D RFO       ACCESS:   20762207  HIT:   20409902  MISS:     352305
L1D PREFETCH  ACCESS:          0  HIT:          0  MISS:          0
L1D WRITEBACK ACCESS:          0  HIT:          0  MISS:          0
L1I TOTAL     ACCESS:   76105996  HIT:   74771933  MISS:    1334063
L1I LOAD      ACCESS:   76105996  HIT:   74771933  MISS:    1334063
L1I RFO       ACCESS:          0  HIT:          0  MISS:          0
L1I PREFETCH  ACCESS:          0  HIT:          0  MISS:          0
L1I WRITEBACK ACCESS:          0  HIT:          0  MISS:          0
L2C TOTAL     ACCESS:    3337562  HIT:    2567758  MISS:     769804
L2C LOAD      ACCESS:    2198401  HIT:    1898062  MISS:     300339
L2C RFO       ACCESS:     351514  HIT:     193067  MISS:     158447
L2C PREFETCH  ACCESS:     368443  HIT:      64152  MISS:     304291
L2C WRITEBACK ACCESS:     419204  HIT:     412477  MISS:       6727

L2C Best-offset prefetcher final stats
LLC TOTAL     ACCESS:     979497  HIT:     629819  MISS:     349678
LLC LOAD      ACCESS:     288422  HIT:     209153  MISS:      79269
LLC RFO       ACCESS:     158422  HIT:      12577  MISS:     145845
LLC PREFETCH  ACCESS:     333778  HIT:     210659  MISS:     123119
LLC WRITEBACK ACCESS:     198875  HIT:     197430  MISS:       1445

CPU 1 cumulative IPC: 0.582841 instructions: 136851770 cycles: 234801090
L1D TOTAL     ACCESS:   40636576  HIT:   39679883  MISS:     956693
L1D LOAD      ACCESS:   25999278  HIT:   25369461  MISS:     629817
L1D RFO       ACCESS:   14637298  HIT:   14310422  MISS:     326876
L1D PREFETCH  ACCESS:          0  HIT:          0  MISS:          0
L1D WRITEBACK ACCESS:          0  HIT:          0  MISS:          0
L1I TOTAL     ACCESS:   53328264  HIT:   53328201  MISS:         63
L1I LOAD      ACCESS:   53328264  HIT:   53328201  MISS:         63
L1I RFO       ACCESS:          0  HIT:          0  MISS:          0
L1I PREFETCH  ACCESS:          0  HIT:          0  MISS:          0
L1I WRITEBACK ACCESS:          0  HIT:          0  MISS:          0
L2C TOTAL     ACCESS:    1756058  HIT:     788024  MISS:     968034
L2C LOAD      ACCESS:     629880  HIT:     458538  MISS:     171342
L2C RFO       ACCESS:     326876  HIT:          5  MISS:     326871
L2C PREFETCH  ACCESS:     470374  HIT:        956  MISS:     469418
L2C WRITEBACK ACCESS:     328928  HIT:     328525  MISS:        403

L2C Best-offset prefetcher final stats
LLC TOTAL     ACCESS:    1341492  HIT:     372981  MISS:     968511
LLC LOAD      ACCESS:      98119  HIT:      44944  MISS:      53175
LLC RFO       ACCESS:     326871  HIT:          0  MISS:     326871
LLC PREFETCH  ACCESS:     589458  HIT:       2214  MISS:     587244
LLC WRITEBACK ACCESS:     327044  HIT:     325823  MISS:       1221

CPU 2 cumulative IPC: 1.08765 instructions: 255381918 cycles: 234801090
L1D TOTAL     ACCESS:   77463300  HIT:   48987710  MISS:   28475590
L1D LOAD      ACCESS:   49586252  HIT:   23145788  MISS:   26440464
L1D RFO       ACCESS:   27877048  HIT:   25841922  MISS:    2035126
L1D PREFETCH  ACCESS:          0  HIT:          0  MISS:          0
L1D WRITEBACK ACCESS:          0  HIT:          0  MISS:          0
L1I TOTAL     ACCESS:   64026826  HIT:   63251810  MISS:     775016
L1I LOAD      ACCESS:   64026826  HIT:   63251810  MISS:     775016
L1I RFO       ACCESS:          0  HIT:          0  MISS:          0
L1I PREFETCH  ACCESS:          0  HIT:          0  MISS:          0
L1I WRITEBACK ACCESS:          0  HIT:          0  MISS:          0
L2C TOTAL     ACCESS:   36025208  HIT:   26702444  MISS:    9322764
L2C LOAD      ACCESS:   27103158  HIT:   21231222  MISS:    5871936
L2C RFO       ACCESS:    2033609  HIT:     764203  MISS:    1269406
L2C PREFETCH  ACCESS:    4589983  HIT:    2413011  MISS:    2176972
L2C WRITEBACK ACCESS:    2298458  HIT:    2294008  MISS:       4450

L2C Best-offset prefetcher final stats
LLC TOTAL     ACCESS:   11934081  HIT:   10120637  MISS:    1813444
LLC LOAD      ACCESS:    5856911  HIT:    5657193  MISS:     199718
LLC RFO       ACCESS:    1087840  HIT:    1070310  MISS:      17530
LLC PREFETCH  ACCESS:    3665467  HIT:    2069369  MISS:    1596098
LLC WRITEBACK ACCESS:    1323863  HIT:    1323765  MISS:         98

CPU 3 cumulative IPC: 1.11967 instructions: 262899476 cycles: 234801090
L1D TOTAL     ACCESS:   45764298  HIT:   45744835  MISS:      19463
L1D LOAD      ACCESS:   36238104  HIT:   36235701  MISS:       2403
L1D RFO       ACCESS:    9526194  HIT:    9509134  MISS:      17060
L1D PREFETCH  ACCESS:          0  HIT:          0  MISS:          0
L1D WRITEBACK ACCESS:          0  HIT:          0  MISS:          0
L1I TOTAL     ACCESS:   63702961  HIT:   63702961  MISS:          0
L1I LOAD      ACCESS:   63702961  HIT:   63702961  MISS:          0
L1I RFO       ACCESS:          0  HIT:          0  MISS:          0
L1I PREFETCH  ACCESS:          0  HIT:          0  MISS:          0
L1I WRITEBACK ACCESS:          0  HIT:          0  MISS:          0
L2C TOTAL     ACCESS:      38077  HIT:      20385  MISS:      17692
L2C LOAD      ACCESS:       2401  HIT:       2315  MISS:         86
L2C RFO       ACCESS:      17060  HIT:       1029  MISS:      16031
L2C PREFETCH  ACCESS:       1545  HIT:          4  MISS:       1541
L2C WRITEBACK ACCESS:      17071  HIT:      17037  MISS:         34

L2C Best-offset prefetcher final stats
LLC TOTAL     ACCESS:      33628  HIT:         11  MISS:      33617
LLC LOAD      ACCESS:         38  HIT:          0  MISS:         38
LLC RFO       ACCESS:      16031  HIT:          0  MISS:      16031
LLC PREFETCH  ACCESS:       1589  HIT:          0  MISS:       1589
LLC WRITEBACK ACCESS:      15970  HIT:         11  MISS:      15959

CPU 4 cumulative IPC: 0.648309 instructions: 152223762 cycles: 234801090
L1D TOTAL     ACCESS:   34135488  HIT:   33041709  MISS:    1093779
L1D LOAD      ACCESS:   22157706  HIT:   21203671  MISS:     954035
L1D RFO       ACCESS:   11977782  HIT:   11838038  MISS:     139744
L1D PREFETCH  ACCESS:          0  HIT:          0  MISS:          0
L1D WRITEBACK ACCESS:          0  HIT:          0  MISS:          0
L1I TOTAL     ACCESS:   29716488  HIT:   29716173  MISS:        315
L1I LOAD      ACCESS:   29716488  HIT:   29716173  MISS:        315
L1I RFO       ACCESS:          0  HIT:          0  MISS:          0
L1I PREFETCH  ACCESS:          0  HIT:          0  MISS:          0
L1I WRITEBACK ACCESS:          0  HIT:          0  MISS:          0
L2C TOTAL     ACCESS:    2429512  HIT:    1235106  MISS:    1194406
L2C LOAD      ACCESS:     954323  HIT:     391595  MISS:     562728
L2C RFO       ACCESS:     139670  HIT:      75583  MISS:      64087
L2C PREFETCH  ACCESS:     632269  HIT:      69757  MISS:     562512
L2C WRITEBACK ACCESS:     703250  HIT:     698171  MISS:       5079

L2C Best-offset prefetcher final stats
LLC TOTAL     ACCESS:    1672063  HIT:    1208002  MISS:     464061
LLC LOAD      ACCESS:     560521  HIT:     352763  MISS:     207758
LLC RFO       ACCESS:      64083  HIT:      36032  MISS:      28051
LLC PREFETCH  ACCESS:     565377  HIT:     338383  MISS:     226994
LLC WRITEBACK ACCESS:     482082  HIT:     480824  MISS:       1258

CPU 5 cumulative IPC: 0.740675 instructions: 173911355 cycles: 234801090
L1D TOTAL     ACCESS:   36871657  HIT:   34570151  MISS:    2301506
L1D LOAD      ACCESS:   24668029  HIT:   22369190  MISS:    2298839
L1D RFO       ACCESS:   12203628  HIT:   12200961  MISS:       2667
L1D PREFETCH  ACCESS:          0  HIT:          0  MISS:          0
L1D WRITEBACK ACCESS:          0  HIT:          0  MISS:          0
L1I TOTAL     ACCESS:   35689047  HIT:   35689047  MISS:          0
L1I LOAD      ACCESS:   35689047  HIT:   35689047  MISS:          0
L1I RFO       ACCESS:          0  HIT:          0  MISS:          0
L1I PREFETCH  ACCESS:          0  HIT:          0  MISS:          0
L1I WRITEBACK ACCESS:          0  HIT:          0  MISS:          0
L2C TOTAL     ACCESS:    5507925  HIT:    3215215  MISS:    2292710
L2C LOAD      ACCESS:    2298839  HIT:    1683296  MISS:     615543
L2C RFO       ACCESS:       2667  HIT:        386  MISS:       2281
L2C PREFETCH  ACCESS:    1678603  HIT:       3717  MISS:    1674886
L2C WRITEBACK ACCESS:    1527816  HIT:    1527816  MISS:          0

L2C Best-offset prefetcher final stats
LLC TOTAL     ACCESS:    3819748  HIT:    2294201  MISS:    1525547
LLC LOAD      ACCESS:     103716  HIT:      41662  MISS:      62054
LLC RFO       ACCESS:       2281  HIT:       2281  MISS:          0
LLC PREFETCH  ACCESS:    2186915  HIT:     723422  MISS:    1463493
LLC WRITEBACK ACCESS:    1526836  HIT:    1526836  MISS:          0

CPU 6 cumulative IPC: 0.425892 instructions: 100000001 cycles: 234801090
L1D TOTAL     ACCESS:   33581622  HIT:   33336708  MISS:     244914
L1D LOAD      ACCESS:   21947498  HIT:   21729338  MISS:     218160
L1D RFO       ACCESS:   11634124  HIT:   11607370  MISS:      26754
L1D PREFETCH  ACCESS:          0  HIT:          0  MISS:          0
L1D WRITEBACK ACCESS:          0  HIT:          0  MISS:          0
L1I TOTAL     ACCESS:   22805557  HIT:   22799782  MISS:       5775
L1I LOAD      ACCESS:   22805557  HIT:   22799782  MISS:       5775
L1I RFO       ACCESS:          0  HIT:          0  MISS:          0
L1I PREFETCH  ACCESS:          0  HIT:          0  MISS:          0
L1I WRITEBACK ACCESS:          0  HIT:          0  MISS:          0
L2C TOTAL     ACCESS:     306779  HIT:     293593  MISS:      13186
L2C LOAD      ACCESS:     223935  HIT:     216113  MISS:       7822
L2C RFO       ACCESS:      26753  HIT:      25931  MISS:        822
L2C PREFETCH  ACCESS:       8529  HIT:       4142  MISS:       4387
L2C WRITEBACK ACCESS:      47562  HIT:      47407  MISS:        155

L2C Best-offset prefetcher final stats
LLC TOTAL     ACCESS:      14287  HIT:       3119  MISS:      11168
LLC LOAD      ACCESS:       7801  HIT:       1894  MISS:       5907
LLC RFO       ACCESS:        822  HIT:         75  MISS:        747
LLC PREFETCH  ACCESS:       4408  HIT:        899  MISS:       3509
LLC WRITEBACK ACCESS:       1256  HIT:        251  MISS:       1005

CPU 7 cumulative IPC: 1.48542 instructions: 348777300 cycles: 234801091
L1D TOTAL     ACCESS:   97119036  HIT:   97119019  MISS:         17
L1D LOAD      ACCESS:   42180603  HIT:   42180598  MISS:          5
L1D RFO       ACCESS:   54938433  HIT:   54938421  MISS:         12
L1D PREFETCH  ACCESS:          0  HIT:          0  MISS:          0
L1D WRITEBACK ACCESS:          0  HIT:          0  MISS:          0
L1I TOTAL     ACCESS:   76233412  HIT:   76225100  MISS:       8312
L1I LOAD      ACCESS:   76233412  HIT:   76225100  MISS:       8312
L1I RFO       ACCESS:          0  HIT:          0  MISS:          0
L1I PREFETCH  ACCESS:          0  HIT:          0  MISS:          0
L1I WRITEBACK ACCESS:          0  HIT:          0  MISS:          0
L2C TOTAL     ACCESS:       8347  HIT:       8288  MISS:         59
L2C LOAD      ACCESS:       8317  HIT:       8282  MISS:         35
L2C RFO       ACCESS:         12  HIT:          0  MISS:         12
L2C PREFETCH  ACCESS:         18  HIT:          6  MISS:         12
L2C WRITEBACK ACCESS:          0  HIT:          0  MISS:          0

L2C Best-offset prefetcher final stats
LLC TOTAL     ACCESS:         60  HIT:          1  MISS:         59
LLC LOAD      ACCESS:         34  HIT:          1  MISS:         33
LLC RFO       ACCESS:         12  HIT:          0  MISS:         12
LLC PREFETCH  ACCESS:         14  HIT:          0  MISS:         14
LLC WRITEBACK ACCESS:          0  HIT:          0  MISS:          0

Region of Interest Statistics

CPU 0 cumulative IPC: 1.38942 instructions: 100000002 cycles: 71972277
L1D TOTAL     ACCESS:   16030102  HIT:   15691581  MISS:     338521
L1D LOAD      ACCESS:    9590394  HIT:    9356285  MISS:     234109
L1D RFO       ACCESS:    6439708  HIT:    6335296  MISS:     104412
L1D PREFETCH  ACCESS:          0  HIT:          0  MISS:          0
L1D WRITEBACK ACCESS:          0  HIT:          0  MISS:          0
L1D PREFETCH  REQUESTED:          0  ISSUED:          0  USEFUL:          0  USELESS:          0
L1I TOTAL     ACCESS:   22221053  HIT:   21680381  MISS:     540672
L1I LOAD      ACCESS:   22221053  HIT:   21680381  MISS:     540672
L1I RFO       ACCESS:          0  HIT:          0  MISS:          0
L1I PREFETCH  ACCESS:          0  HIT:          0  MISS:          0
L1I WRITEBACK ACCESS:          0  HIT:          0  MISS:          0
L1I PREFETCH  REQUESTED:          0  ISSUED:          0  USEFUL:          0  USELESS:          0
L2C TOTAL     ACCESS:    1132925  HIT:     898442  MISS:     234483
L2C LOAD      ACCESS:     774780  HIT:     705785  MISS:      68995
L2C RFO       ACCESS:     104322  HIT:      41037  MISS:      63285
L2C PREFETCH  ACCESS:     116244  HIT:      15344  MISS:     100900
L2C WRITEBACK ACCESS:     137579  HIT:     136276  MISS:       1303
L2C PREFETCH  REQUESTED:     436288  ISSUED:     436025  USEFUL:     166913  USELESS:     156353
LLC TOTAL     ACCESS:     330111  HIT:     198981  MISS:     131130
LLC LOAD      ACCESS:      61225  HIT:      45239  MISS:      15986
LLC RFO       ACCESS:      63265  HIT:       2594  MISS:      60671
LLC PREFETCH  ACCESS:     118165  HIT:      64244  MISS:      53921
LLC WRITEBACK ACCESS:      87456  HIT:      86904  MISS:        552
LLC PREFETCH  REQUESTED:          0  ISSUED:          0  USEFUL:    1486435  USELESS:    2762158
Major fault: 0 Minor fault: 5522

CPU 1 cumulative IPC: 0.587151 instructions: 100000002 cycles: 170313930
L1D TOTAL     ACCESS:   29701735  HIT:   28924268  MISS:     777467
L1D LOAD      ACCESS:   19230620  HIT:   18717483  MISS:     513137
L1D RFO       ACCESS:   10471115  HIT:   10206785  MISS:     264330
L1D PREFETCH  ACCESS:          0  HIT:          0  MISS:          0
L1D WRITEBACK ACCESS:          0  HIT:          0  MISS:          0
L1D PREFETCH  REQUESTED:          0  ISSUED:          0  USEFUL:          0  USELESS:          0
L1I TOTAL     ACCESS:   38539804  HIT:   38539741  MISS:         63
L1I LOAD      ACCESS:   38539804  HIT:   38539741  MISS:         63
L1I RFO       ACCESS:          0  HIT:          0  MISS:          0
L1I PREFETCH  ACCESS:          0  HIT:          0  MISS:          0
L1I WRITEBACK ACCESS:          0  HIT:          0  MISS:          0
L1I PREFETCH  REQUESTED:          0  ISSUED:          0  USEFUL:          0  USELESS:          0
L2C TOTAL     ACCESS:    1430923  HIT:     646791  MISS:     784132
L2C LOAD      ACCESS:     513200  HIT:     379916  MISS:     133284
L2C RFO       ACCESS:     264330  HIT:          4  MISS:     264326
L2C PREFETCH  ACCESS:     386966  HIT:        845  MISS:     386121
L2C WRITEBACK ACCESS:     266427  HIT:     266026  MISS:        401
L2C PREFETCH  REQUESTED:     612736  ISSUED:     612736  USEFUL:     471891  USELESS:      17131
LLC TOTAL     ACCESS:    1091190  HIT:     305855  MISS:     785335
LLC LOAD      ACCESS:      81240  HIT:      40781  MISS:      40459
LLC RFO       ACCESS:     264326  HIT:          0  MISS:     264326
LLC PREFETCH  ACCESS:     480727  HIT:       1235  MISS:     479492
LLC WRITEBACK ACCESS:     264897  HIT:     263839  MISS:       1058
LLC PREFETCH  REQUESTED:          0  ISSUED:          0  USEFUL:    1486435  USELESS:    2762158
Major fault: 0 Minor fault: 14160

CPU 2 cumulative IPC: 1.06513 instructions: 100000000 cycles: 93884922
L1D TOTAL     ACCESS:   32313594  HIT:   21820724  MISS:   10492870
L1D LOAD      ACCESS:   22001327  HIT:   12275503  MISS:    9725824
L1D RFO       ACCESS:   10312267  HIT:    9545221  MISS:     767046
L1D PREFETCH  ACCESS:          0  HIT:          0  MISS:          0
L1D WRITEBACK ACCESS:          0  HIT:          0  MISS:          0
L1D PREFETCH  REQUESTED:          0  ISSUED:          0  USEFUL:          0  USELESS:          0
L1I TOTAL     ACCESS:   24836998  HIT:   24061982  MISS:     775016
L1I LOAD      ACCESS:   24836998  HIT:   24061982  MISS:     775016
L1I RFO       ACCESS:          0  HIT:          0  MISS:          0
L1I PREFETCH  ACCESS:          0  HIT:          0  MISS:          0
L1I WRITEBACK ACCESS:          0  HIT:          0  MISS:          0
L1I PREFETCH  REQUESTED:          0  ISSUED:          0  USEFUL:          0  USELESS:          0
L2C TOTAL     ACCESS:   13575247  HIT:   10530919  MISS:    3044328
L2C LOAD      ACCESS:   10466765  HIT:    8605135  MISS:    1861630
L2C RFO       ACCESS:     766474  HIT:     360019  MISS:     406455
L2C PREFETCH  ACCESS:    1477629  HIT:     703210  MISS:     774419
L2C WRITEBACK ACCESS:     864379  HIT:     862555  MISS:       1824
L2C PREFETCH  REQUESTED:    6582929  ISSUED:    6555868  USEFUL:    1181137  USELESS:    1169192
LLC TOTAL     ACCESS:    3874323  HIT:    3255422  MISS:     618901
LLC LOAD      ACCESS:    1857345  HIT:    1772038  MISS:      85307
LLC RFO       ACCESS:     354571  HIT:     337041  MISS:      17530
LLC PREFETCH  ACCESS:    1236757  HIT:     720755  MISS:     516002
LLC WRITEBACK ACCESS:     425650  HIT:     425588  MISS:         62
LLC PREFETCH  REQUESTED:          0  ISSUED:          0  USEFUL:    1486435  USELESS:    2762158
Major fault: 0 Minor fault: 17976

CPU 3 cumulative IPC: 1.13628 instructions: 100000000 cycles: 88006606
L1D TOTAL     ACCESS:   17212490  HIT:   17209888  MISS:       2602
L1D LOAD      ACCESS:   13878961  HIT:   13878633  MISS:        328
L1D RFO       ACCESS:    3333529  HIT:    3331255  MISS:       2274
L1D PREFETCH  ACCESS:          0  HIT:          0  MISS:          0
L1D WRITEBACK ACCESS:          0  HIT:          0  MISS:          0
L1D PREFETCH  REQUESTED:          0  ISSUED:          0  USEFUL:          0  USELESS:          0
L1I TOTAL     ACCESS:   24255026  HIT:   24255026  MISS:          0
L1I LOAD      ACCESS:   24255026  HIT:   24255026  MISS:          0
L1I RFO       ACCESS:          0  HIT:          0  MISS:          0
L1I PREFETCH  ACCESS:          0  HIT:          0  MISS:          0
L1I WRITEBACK ACCESS:          0  HIT:          0  MISS:          0
L1I PREFETCH  REQUESTED:          0  ISSUED:          0  USEFUL:          0  USELESS:          0
L2C TOTAL     ACCESS:       5086  HIT:       2810  MISS:       2276
L2C LOAD      ACCESS:        328  HIT:        323  MISS:          5
L2C RFO       ACCESS:       2274  HIT:        205  MISS:       2069
L2C PREFETCH  ACCESS:        202  HIT:          0  MISS:        202
L2C WRITEBACK ACCESS:       2282  HIT:       2282  MISS:          0
L2C PREFETCH  REQUESTED:       4667  ISSUED:       4667  USEFUL:       4426  USELESS:         88
LLC TOTAL     ACCESS:       4250  HIT:          2  MISS:       4248
LLC LOAD      ACCESS:          3  HIT:          0  MISS:          3
LLC RFO       ACCESS:       2069  HIT:          0  MISS:       2069
LLC PREFETCH  ACCESS:        204  HIT:          0  MISS:        204
LLC WRITEBACK ACCESS:       1974  HIT:          2  MISS:       1972
LLC PREFETCH  REQUESTED:          0  ISSUED:          0  USEFUL:    1486435  USELESS:    2762158
Major fault: 0 Minor fault: 780

CPU 4 cumulative IPC: 0.634201 instructions: 100000000 cycles: 157678767
L1D TOTAL     ACCESS:   22101376  HIT:   21325808  MISS:     775568
L1D LOAD      ACCESS:   14587472  HIT:   13908433  MISS:     679039
L1D RFO       ACCESS:    7513904  HIT:    7417375  MISS:      96529
L1D PREFETCH  ACCESS:          0  HIT:          0  MISS:          0
L1D WRITEBACK ACCESS:          0  HIT:          0  MISS:          0
L1D PREFETCH  REQUESTED:          0  ISSUED:          0  USEFUL:          0  USELESS:          0
L1I TOTAL     ACCESS:   19512678  HIT:   19512479  MISS:        199
L1I LOAD      ACCESS:   19512678  HIT:   19512479  MISS:        199
L1I RFO       ACCESS:          0  HIT:          0  MISS:          0
L1I PREFETCH  ACCESS:          0  HIT:          0  MISS:          0
L1I WRITEBACK ACCESS:          0  HIT:          0  MISS:          0
L1I PREFETCH  REQUESTED:          0  ISSUED:          0  USEFUL:          0  USELESS:          0
L2C TOTAL     ACCESS:    1723549  HIT:     870522  MISS:     853027
L2C LOAD      ACCESS:     679220  HIT:     276408  MISS:     402812
L2C RFO       ACCESS:      96478  HIT:      53685  MISS:      42793
L2C PREFETCH  ACCESS:     454818  HIT:      50961  MISS:     403857
L2C WRITEBACK ACCESS:     493033  HIT:     489468  MISS:       3565
L2C PREFETCH  REQUESTED:     763570  ISSUED:     763570  USEFUL:     105311  USELESS:     566169
LLC TOTAL     ACCESS:    1193592  HIT:     884432  MISS:     309160
LLC LOAD      ACCESS:     401384  HIT:     262800  MISS:     138584
LLC RFO       ACCESS:      42789  HIT:      25436  MISS:      17353
LLC PREFETCH  ACCESS:     405815  HIT:     253349  MISS:     152466
LLC WRITEBACK ACCESS:     343604  HIT:     342847  MISS:        757
LLC PREFETCH  REQUESTED:          0  ISSUED:          0  USEFUL:    1486435  USELESS:    2762158
Major fault: 0 Minor fault: 7929

CPU 5 cumulative IPC: 0.766245 instructions: 100000000 cycles: 130506625
L1D TOTAL     ACCESS:   21220289  HIT:   19896914  MISS:    1323375
L1D LOAD      ACCESS:   14203131  HIT:   12881289  MISS:    1321842
L1D RFO       ACCESS:    7017158  HIT:    7015625  MISS:       1533
L1D PREFETCH  ACCESS:          0  HIT:          0  MISS:          0
L1D WRITEBACK ACCESS:          0  HIT:          0  MISS:          0
L1D PREFETCH  REQUESTED:          0  ISSUED:          0  USEFUL:          0  USELESS:          0
L1I TOTAL     ACCESS:   20547615  HIT:   20547615  MISS:          0
L1I LOAD      ACCESS:   20547615  HIT:   20547615  MISS:          0
L1I RFO       ACCESS:          0  HIT:          0  MISS:          0
L1I PREFETCH  ACCESS:          0  HIT:          0  MISS:          0
L1I WRITEBACK ACCESS:          0  HIT:          0  MISS:          0
L1I PREFETCH  REQUESTED:          0  ISSUED:          0  USEFUL:          0  USELESS:          0
L2C TOTAL     ACCESS:    3199411  HIT:    1882385  MISS:    1317026
L2C LOAD      ACCESS:    1321842  HIT:    1001067  MISS:     320775
L2C RFO       ACCESS:       1533  HIT:        223  MISS:       1310
L2C PREFETCH  ACCESS:     997527  HIT:       2586  MISS:     994941
L2C WRITEBACK ACCESS:     878509  HIT:     878509  MISS:          0
L2C PREFETCH  REQUESTED:    2552799  ISSUED:    2552799  USEFUL:    2024876  USELESS:       9244
LLC TOTAL     ACCESS:    2195046  HIT:    1317849  MISS:     877197
LLC LOAD      ACCESS:      63062  HIT:      25105  MISS:      37957
LLC RFO       ACCESS:       1310  HIT:       1310  MISS:          0
LLC PREFETCH  ACCESS:    1252688  HIT:     413448  MISS:     839240
LLC WRITEBACK ACCESS:     877986  HIT:     877986  MISS:          0
LLC PREFETCH  REQUESTED:          0  ISSUED:          0  USEFUL:    1486435  USELESS:    2762158
Major fault: 0 Minor fault: 27914

CPU 6 cumulative IPC: 0.425892 instructions: 100000001 cycles: 234801090
L1D TOTAL     ACCESS:   33581622  HIT:   33336708  MISS:     244914
L1D LOAD      ACCESS:   21947498  HIT:   21729338  MISS:     218160
L1D RFO       ACCESS:   11634124  HIT:   11607370  MISS:      26754
L1D PREFETCH  ACCESS:          0  HIT:          0  MISS:          0
L1D WRITEBACK ACCESS:          0  HIT:          0  MISS:          0
L1D PREFETCH  REQUESTED:          0  ISSUED:          0  USEFUL:          0  USELESS:          0
L1I TOTAL     ACCESS:   22805557  HIT:   22799782  MISS:       5775
L1I LOAD      ACCESS:   22805557  HIT:   22799782  MISS:       5775
L1I RFO       ACCESS:          0  HIT:          0  MISS:          0
L1I PREFETCH  ACCESS:          0  HIT:          0  MISS:          0
L1I WRITEBACK ACCESS:          0  HIT:          0  MISS:          0
L1I PREFETCH  REQUESTED:          0  ISSUED:          0  USEFUL:          0  USELESS:          0
L2C TOTAL     ACCESS:     306779  HIT:     293593  MISS:      13186
L2C LOAD      ACCESS:     223935  HIT:     216113  MISS:       7822
L2C RFO       ACCESS:      26753  HIT:      25931  MISS:        822
L2C PREFETCH  ACCESS:       8529  HIT:       4142  MISS:       4387
L2C WRITEBACK ACCESS:      47562  HIT:      47407  MISS:        155
L2C PREFETCH  REQUESTED:      13012  ISSUED:      13012  USEFUL:       1760  USELESS:       4493
LLC TOTAL     ACCESS:      14287  HIT:       3119  MISS:      11168
LLC LOAD      ACCESS:       7801  HIT:       1894  MISS:       5907
LLC RFO       ACCESS:        822  HIT:         75  MISS:        747
LLC PREFETCH  ACCESS:       4408  HIT:        899  MISS:       3509
LLC WRITEBACK ACCESS:       1256  HIT:        251  MISS:       1005
LLC PREFETCH  REQUESTED:          0  ISSUED:          0  USEFUL:    1486435  USELESS:    2762158
Major fault: 0 Minor fault: 467

CPU 7 cumulative IPC: 1.48035 instructions: 100000003 cycles: 67551386
L1D TOTAL     ACCESS:   29132551  HIT:   29132551  MISS:          0
L1D LOAD      ACCESS:   12608831  HIT:   12608831  MISS:          0
L1D RFO       ACCESS:   16523720  HIT:   16523720  MISS:          0
L1D PREFETCH  ACCESS:          0  HIT:          0  MISS:          0
L1D WRITEBACK ACCESS:          0  HIT:          0  MISS:          0
L1D PREFETCH  REQUESTED:          0  ISSUED:          0  USEFUL:          0  USELESS:          0
L1I TOTAL     ACCESS:   21750981  HIT:   21749788  MISS:       1193
L1I LOAD      ACCESS:   21750981  HIT:   21749788  MISS:       1193
L1I RFO       ACCESS:          0  HIT:          0  MISS:          0
L1I PREFETCH  ACCESS:          0  HIT:          0  MISS:          0
L1I WRITEBACK ACCESS:          0  HIT:          0  MISS:          0
L1I PREFETCH  REQUESTED:          0  ISSUED:          0  USEFUL:          0  USELESS:          0
L2C TOTAL     ACCESS:       1197  HIT:       1190  MISS:          7
L2C LOAD      ACCESS:       1193  HIT:       1188  MISS:          5
L2C RFO       ACCESS:          0  HIT:          0  MISS:          0
L2C PREFETCH  ACCESS:          4  HIT:          2  MISS:          2
L2C WRITEBACK ACCESS:          0  HIT:          0  MISS:          0
L2C PREFETCH  REQUESTED:       1327  ISSUED:       1327  USEFUL:        932  USELESS:          0
LLC TOTAL     ACCESS:          7  HIT:          0  MISS:          7
LLC LOAD      ACCESS:          4  HIT:          0  MISS:          4
LLC RFO       ACCESS:          0  HIT:          0  MISS:          0
LLC PREFETCH  ACCESS:          3  HIT:          0  MISS:          3
LLC WRITEBACK ACCESS:          0  HIT:          0  MISS:          0
LLC PREFETCH  REQUESTED:          0  ISSUED:          0  USEFUL:    1486435  USELESS:    2762158
Major fault: 0 Minor fault: 46

L2C Best-offset prefetcher final stats

L2C Best-offset prefetcher final stats

L2C Best-offset prefetcher final stats

L2C Best-offset prefetcher final stats

L2C Best-offset prefetcher final stats

L2C Best-offset prefetcher final stats

L2C Best-offset prefetcher final stats

L2C Best-offset prefetcher final stats

DRAM Statistics
 CHANNEL 0
 RQ ROW_BUFFER_HIT:    1431538  ROW_BUFFER_MISS:    1140271
 DBUS_CONGESTED:    4771315
 WQ ROW_BUFFER_HIT:     191137  ROW_BUFFER_MISS:    1086750  FULL:          0

 CHANNEL 1
 RQ ROW_BUFFER_HIT:    1430458  ROW_BUFFER_MISS:    1142771
 DBUS_CONGESTED:    4771315
 WQ ROW_BUFFER_HIT:     191977  ROW_BUFFER_MISS:    1082413  FULL:          0

 AVG_CONGESTED_CYCLE: 14
