
*** ChampSim Multicore Out-of-Order Simulator ***

Warmup Instructions: 20000000
Simulation Instructions: 100000000
Number of CPUs: 8
LLC sets: 16384
LLC ways: 16
Off-chip DRAM Size: 8192 MB Channels: 2 Width: 64-bit Data Rate: 1600 MT/s

CPU 0 runs /scratch/user/djimenez/champsim-traces/speccpu2017/xz/648.exchange2_s/648.exchange2_s-353B.champsimtrace.xz
CPU 1 runs /scratch/user/djimenez/champsim-traces/speccpu2017/xz/605.mcf_s/605.mcf_s-782B.champsimtrace.xz
CPU 2 runs /scratch/user/djimenez/champsim-traces/speccpu2017/xz/621.wrf_s/621.wrf_s-8065B.champsimtrace.xz
CPU 3 runs /scratch/user/djimenez/champsim-traces/speccpu2017/xz/644.nab_s/644.nab_s-9322B.champsimtrace.xz
CPU 4 runs /scratch/user/djimenez/champsim-traces/speccpu2017/xz/648.exchange2_s/648.exchange2_s-72B.champsimtrace.xz
CPU 5 runs /scratch/user/djimenez/champsim-traces/speccpu2017/xz/600.perlbench_s/600.perlbench_s-210B.champsimtrace.xz
CPU 6 runs /scratch/user/djimenez/champsim-traces/speccpu2017/xz/621.wrf_s/621.wrf_s-8100B.champsimtrace.xz
CPU 7 runs /scratch/user/djimenez/champsim-traces/speccpu2017/xz/623.xalancbmk_s/623.xalancbmk_s-592B.champsimtrace.xz
L2C Best-offset prefetcher
L2C Best-offset prefetcher
L2C Best-offset prefetcher
L2C Best-offset prefetcher
L2C Best-offset prefetcher
L2C Best-offset prefetcher
L2C Best-offset prefetcher
L2C Best-offset prefetcher
Heartbeat CPU 0 instructions: 10000001 cycles: 4293027 heartbeat IPC: 2.32936 cumulative IPC: 2.32936 (Simulation time: 0 hr 3 min 34 sec) 
Heartbeat CPU 4 instructions: 10000000 cycles: 4333713 heartbeat IPC: 2.30749 cumulative IPC: 2.30749 (Simulation time: 0 hr 3 min 37 sec) 
Heartbeat CPU 2 instructions: 10000003 cycles: 4755146 heartbeat IPC: 2.10299 cumulative IPC: 2.10299 (Simulation time: 0 hr 3 min 59 sec) 
Heartbeat CPU 7 instructions: 10000002 cycles: 5056477 heartbeat IPC: 1.97766 cumulative IPC: 1.97766 (Simulation time: 0 hr 4 min 17 sec) 
Heartbeat CPU 6 instructions: 10000000 cycles: 5173123 heartbeat IPC: 1.93307 cumulative IPC: 1.93307 (Simulation time: 0 hr 4 min 25 sec) 
Heartbeat CPU 3 instructions: 10000001 cycles: 5496389 heartbeat IPC: 1.81938 cumulative IPC: 1.81938 (Simulation time: 0 hr 4 min 43 sec) 
Heartbeat CPU 5 instructions: 10000002 cycles: 5617913 heartbeat IPC: 1.78002 cumulative IPC: 1.78002 (Simulation time: 0 hr 4 min 49 sec) 
Heartbeat CPU 1 instructions: 10000001 cycles: 6181112 heartbeat IPC: 1.61783 cumulative IPC: 1.61783 (Simulation time: 0 hr 5 min 22 sec) 
Heartbeat CPU 0 instructions: 20000000 cycles: 8608175 heartbeat IPC: 2.31742 cumulative IPC: 2.32337 (Simulation time: 0 hr 7 min 45 sec) 
Heartbeat CPU 4 instructions: 20000000 cycles: 8670899 heartbeat IPC: 2.30564 cumulative IPC: 2.30657 (Simulation time: 0 hr 7 min 48 sec) 
Heartbeat CPU 2 instructions: 20000000 cycles: 9266393 heartbeat IPC: 2.21668 cumulative IPC: 2.15834 (Simulation time: 0 hr 8 min 24 sec) 
Heartbeat CPU 7 instructions: 20000000 cycles: 10197054 heartbeat IPC: 1.94531 cumulative IPC: 1.96135 (Simulation time: 0 hr 9 min 16 sec) 
Heartbeat CPU 6 instructions: 20000000 cycles: 10285481 heartbeat IPC: 1.95604 cumulative IPC: 1.94449 (Simulation time: 0 hr 9 min 20 sec) 
Heartbeat CPU 3 instructions: 20000000 cycles: 10992303 heartbeat IPC: 1.81953 cumulative IPC: 1.81945 (Simulation time: 0 hr 10 min 5 sec) 
Heartbeat CPU 5 instructions: 20000000 cycles: 11504301 heartbeat IPC: 1.69883 cumulative IPC: 1.73848 (Simulation time: 0 hr 10 min 38 sec) 
Heartbeat CPU 1 instructions: 20000000 cycles: 12283080 heartbeat IPC: 1.63882 cumulative IPC: 1.62826 (Simulation time: 0 hr 11 min 20 sec) 

Warmup complete CPU 0 instructions: 28542466 cycles: 12283085 (Simulation time: 0 hr 11 min 20 sec) 
Warmup complete CPU 1 instructions: 20000001 cycles: 12283085 (Simulation time: 0 hr 11 min 20 sec) 
Warmup complete CPU 2 instructions: 26829880 cycles: 12283084 (Simulation time: 0 hr 11 min 20 sec) 
Warmup complete CPU 3 instructions: 22347810 cycles: 12283084 (Simulation time: 0 hr 11 min 20 sec) 
Warmup complete CPU 4 instructions: 28340165 cycles: 12283084 (Simulation time: 0 hr 11 min 20 sec) 
Warmup complete CPU 5 instructions: 21325158 cycles: 12283084 (Simulation time: 0 hr 11 min 20 sec) 
Warmup complete CPU 6 instructions: 23728279 cycles: 12283084 (Simulation time: 0 hr 11 min 20 sec) 
Warmup complete CPU 7 instructions: 23569671 cycles: 12283084 (Simulation time: 0 hr 11 min 20 sec) 

Heartbeat CPU 0 instructions: 30000001 cycles: 13171122 heartbeat IPC: 2.19157 cumulative IPC: 1.6413 (Simulation time: 0 hr 11 min 51 sec) 
Heartbeat CPU 4 instructions: 30000001 cycles: 13360956 heartbeat IPC: 2.13217 cumulative IPC: 1.53992 (Simulation time: 0 hr 11 min 57 sec) 
Heartbeat CPU 2 instructions: 30000000 cycles: 14989662 heartbeat IPC: 1.74725 cumulative IPC: 1.17127 (Simulation time: 0 hr 12 min 41 sec) 
Heartbeat CPU 0 instructions: 40000000 cycles: 19459509 heartbeat IPC: 1.59023 cumulative IPC: 1.59655 (Simulation time: 0 hr 14 min 44 sec) 
Heartbeat CPU 4 instructions: 40000000 cycles: 19790315 heartbeat IPC: 1.55536 cumulative IPC: 1.55315 (Simulation time: 0 hr 14 min 53 sec) 
Heartbeat CPU 6 instructions: 30000001 cycles: 21203828 heartbeat IPC: 0.91589 cumulative IPC: 0.703049 (Simulation time: 0 hr 15 min 31 sec) 
Heartbeat CPU 2 instructions: 40000000 cycles: 22495521 heartbeat IPC: 1.33229 cumulative IPC: 1.28962 (Simulation time: 0 hr 16 min 6 sec) 
Heartbeat CPU 5 instructions: 30000000 cycles: 24163845 heartbeat IPC: 0.789918 cumulative IPC: 0.730159 (Simulation time: 0 hr 16 min 50 sec) 
Heartbeat CPU 3 instructions: 30000003 cycles: 25547354 heartbeat IPC: 0.687047 cumulative IPC: 0.576903 (Simulation time: 0 hr 17 min 26 sec) 
Heartbeat CPU 0 instructions: 50000001 cycles: 25713988 heartbeat IPC: 1.59885 cumulative IPC: 1.59762 (Simulation time: 0 hr 17 min 30 sec) 
Heartbeat CPU 4 instructions: 50000001 cycles: 26938079 heartbeat IPC: 1.39904 cumulative IPC: 1.47798 (Simulation time: 0 hr 18 min 2 sec) 
Heartbeat CPU 2 instructions: 50000003 cycles: 29781317 heartbeat IPC: 1.37253 cumulative IPC: 1.32414 (Simulation time: 0 hr 19 min 19 sec) 
Heartbeat CPU 0 instructions: 60000000 cycles: 31914716 heartbeat IPC: 1.61271 cumulative IPC: 1.60239 (Simulation time: 0 hr 20 min 16 sec) 
Heartbeat CPU 7 instructions: 30000000 cycles: 33203532 heartbeat IPC: 0.43466 cumulative IPC: 0.307371 (Simulation time: 0 hr 20 min 50 sec) 
Heartbeat CPU 4 instructions: 60000000 cycles: 33452932 heartbeat IPC: 1.53495 cumulative IPC: 1.49552 (Simulation time: 0 hr 20 min 57 sec) 
Heartbeat CPU 6 instructions: 40000000 cycles: 34710098 heartbeat IPC: 0.740397 cumulative IPC: 0.725541 (Simulation time: 0 hr 21 min 31 sec) 
Heartbeat CPU 5 instructions: 40000000 cycles: 37170252 heartbeat IPC: 0.768852 cumulative IPC: 0.75038 (Simulation time: 0 hr 22 min 36 sec) 
Heartbeat CPU 2 instructions: 60000000 cycles: 37244037 heartbeat IPC: 1.33999 cumulative IPC: 1.32888 (Simulation time: 0 hr 22 min 38 sec) 
Heartbeat CPU 0 instructions: 70000002 cycles: 38120387 heartbeat IPC: 1.61143 cumulative IPC: 1.60456 (Simulation time: 0 hr 23 min 1 sec) 
Heartbeat CPU 4 instructions: 70000003 cycles: 39853195 heartbeat IPC: 1.56244 cumulative IPC: 1.51105 (Simulation time: 0 hr 23 min 45 sec) 
Heartbeat CPU 3 instructions: 40000000 cycles: 42879636 heartbeat IPC: 0.576958 cumulative IPC: 0.576934 (Simulation time: 0 hr 25 min 0 sec) 
Heartbeat CPU 2 instructions: 70000000 cycles: 44844635 heartbeat IPC: 1.31569 cumulative IPC: 1.3258 (Simulation time: 0 hr 25 min 49 sec) 
Heartbeat CPU 0 instructions: 80000000 cycles: 45193622 heartbeat IPC: 1.41378 cumulative IPC: 1.56356 (Simulation time: 0 hr 25 min 57 sec) 
Heartbeat CPU 4 instructions: 80000000 cycles: 46368892 heartbeat IPC: 1.53475 cumulative IPC: 1.51558 (Simulation time: 0 hr 26 min 27 sec) 
Heartbeat CPU 6 instructions: 50000000 cycles: 49134968 heartbeat IPC: 0.693247 cumulative IPC: 0.7129 (Simulation time: 0 hr 27 min 37 sec) 
Heartbeat CPU 5 instructions: 50000001 cycles: 50802684 heartbeat IPC: 0.733545 cumulative IPC: 0.744422 (Simulation time: 0 hr 28 min 22 sec) 
Heartbeat CPU 0 instructions: 90000000 cycles: 51427466 heartbeat IPC: 1.60415 cumulative IPC: 1.57002 (Simulation time: 0 hr 28 min 38 sec) 
Heartbeat CPU 2 instructions: 80000000 cycles: 52443572 heartbeat IPC: 1.31597 cumulative IPC: 1.32394 (Simulation time: 0 hr 29 min 6 sec) 
Heartbeat CPU 1 instructions: 30000000 cycles: 52542943 heartbeat IPC: 0.248386 cumulative IPC: 0.248386 (Simulation time: 0 hr 29 min 9 sec) 
Heartbeat CPU 4 instructions: 90000002 cycles: 52811862 heartbeat IPC: 1.55208 cumulative IPC: 1.52138 (Simulation time: 0 hr 29 min 16 sec) 
Heartbeat CPU 0 instructions: 100000000 cycles: 57669348 heartbeat IPC: 1.60208 cumulative IPC: 1.57443 (Simulation time: 0 hr 31 min 40 sec) 
Heartbeat CPU 4 instructions: 100000000 cycles: 59236068 heartbeat IPC: 1.55661 cumulative IPC: 1.5262 (Simulation time: 0 hr 32 min 31 sec) 
Heartbeat CPU 2 instructions: 90000003 cycles: 59618162 heartbeat IPC: 1.39381 cumulative IPC: 1.33453 (Simulation time: 0 hr 32 min 43 sec) 
Heartbeat CPU 3 instructions: 50000002 cycles: 60206092 heartbeat IPC: 0.577152 cumulative IPC: 0.577013 (Simulation time: 0 hr 33 min 0 sec) 
Heartbeat CPU 6 instructions: 60000000 cycles: 62594507 heartbeat IPC: 0.742967 cumulative IPC: 0.720944 (Simulation time: 0 hr 34 min 2 sec) 
Heartbeat CPU 0 instructions: 110000001 cycles: 63832232 heartbeat IPC: 1.62262 cumulative IPC: 1.58019 (Simulation time: 0 hr 34 min 36 sec) 
Heartbeat CPU 7 instructions: 40000000 cycles: 64365388 heartbeat IPC: 0.320905 cumulative IPC: 0.315469 (Simulation time: 0 hr 34 min 51 sec) 
Heartbeat CPU 5 instructions: 60000000 cycles: 64374607 heartbeat IPC: 0.736815 cumulative IPC: 0.74244 (Simulation time: 0 hr 34 min 51 sec) 
Heartbeat CPU 4 instructions: 110000003 cycles: 66196833 heartbeat IPC: 1.43662 cumulative IPC: 1.51464 (Simulation time: 0 hr 35 min 44 sec) 
Heartbeat CPU 2 instructions: 100000000 cycles: 67156503 heartbeat IPC: 1.32655 cumulative IPC: 1.33343 (Simulation time: 0 hr 36 min 11 sec) 
Heartbeat CPU 0 instructions: 120000000 cycles: 70079079 heartbeat IPC: 1.60081 cumulative IPC: 1.58242 (Simulation time: 0 hr 37 min 35 sec) 
Heartbeat CPU 4 instructions: 120000000 cycles: 72425943 heartbeat IPC: 1.60537 cumulative IPC: 1.52404 (Simulation time: 0 hr 38 min 41 sec) 
Heartbeat CPU 5 instructions: 70000001 cycles: 74179376 heartbeat IPC: 1.01991 cumulative IPC: 0.786394 (Simulation time: 0 hr 39 min 31 sec) 
Heartbeat CPU 2 instructions: 110000003 cycles: 74356593 heartbeat IPC: 1.38887 cumulative IPC: 1.33986 (Simulation time: 0 hr 39 min 36 sec) 
Finished CPU 0 instructions: 100000000 cycles: 63087222 cumulative IPC: 1.58511 (Simulation time: 0 hr 40 min 6 sec) 
Heartbeat CPU 0 instructions: 130000001 cycles: 76264256 heartbeat IPC: 1.61677 cumulative IPC: 1.58574 (Simulation time: 0 hr 40 min 32 sec) 
Heartbeat CPU 6 instructions: 70000001 cycles: 77008683 heartbeat IPC: 0.693762 cumulative IPC: 0.714891 (Simulation time: 0 hr 40 min 53 sec) 
Finished CPU 4 instructions: 100000001 cycles: 65229751 cumulative IPC: 1.53304 (Simulation time: 0 hr 41 min 6 sec) 
Heartbeat CPU 3 instructions: 60000000 cycles: 77555820 heartbeat IPC: 0.576378 cumulative IPC: 0.576844 (Simulation time: 0 hr 41 min 7 sec) 
Heartbeat CPU 4 instructions: 130000002 cycles: 78579583 heartbeat IPC: 1.62505 cumulative IPC: 1.53341 (Simulation time: 0 hr 41 min 35 sec) 
Heartbeat CPU 0 instructions: 140000000 cycles: 82417645 heartbeat IPC: 1.62512 cumulative IPC: 1.5892 (Simulation time: 0 hr 43 min 17 sec) 
Heartbeat CPU 5 instructions: 80000000 cycles: 84446760 heartbeat IPC: 0.973958 cumulative IPC: 0.81308 (Simulation time: 0 hr 44 min 10 sec) 
Heartbeat CPU 4 instructions: 140000000 cycles: 84874311 heartbeat IPC: 1.58863 cumulative IPC: 1.5382 (Simulation time: 0 hr 44 min 21 sec) 
Heartbeat CPU 2 instructions: 120000000 cycles: 86855632 heartbeat IPC: 0.800061 cumulative IPC: 1.24939 (Simulation time: 0 hr 45 min 12 sec) 
Heartbeat CPU 0 instructions: 150000001 cycles: 88481893 heartbeat IPC: 1.64901 cumulative IPC: 1.59396 (Simulation time: 0 hr 45 min 54 sec) 
Heartbeat CPU 6 instructions: 80000000 cycles: 90705904 heartbeat IPC: 0.730075 cumulative IPC: 0.717543 (Simulation time: 0 hr 46 min 50 sec) 
Heartbeat CPU 4 instructions: 150000000 cycles: 90980572 heartbeat IPC: 1.63766 cumulative IPC: 1.54592 (Simulation time: 0 hr 46 min 57 sec) 
Heartbeat CPU 1 instructions: 40000000 cycles: 92233516 heartbeat IPC: 0.251949 cumulative IPC: 0.250155 (Simulation time: 0 hr 47 min 28 sec) 
Heartbeat CPU 7 instructions: 50000002 cycles: 92465889 heartbeat IPC: 0.355866 cumulative IPC: 0.329626 (Simulation time: 0 hr 47 min 34 sec) 
Heartbeat CPU 0 instructions: 160000000 cycles: 94676254 heartbeat IPC: 1.61437 cumulative IPC: 1.59549 (Simulation time: 0 hr 48 min 30 sec) 
Heartbeat CPU 3 instructions: 70000000 cycles: 94955022 heartbeat IPC: 0.574739 cumulative IPC: 0.576401 (Simulation time: 0 hr 48 min 38 sec) 
Finished CPU 2 instructions: 100000001 cycles: 84753281 cumulative IPC: 1.1799 (Simulation time: 0 hr 49 min 30 sec) 
Heartbeat CPU 4 instructions: 160000000 cycles: 97348091 heartbeat IPC: 1.57047 cumulative IPC: 1.54776 (Simulation time: 0 hr 49 min 39 sec) 
Heartbeat CPU 5 instructions: 90000000 cycles: 97895963 heartbeat IPC: 0.743538 cumulative IPC: 0.802155 (Simulation time: 0 hr 49 min 53 sec) 
Heartbeat CPU 0 instructions: 170000000 cycles: 101013798 heartbeat IPC: 1.5779 cumulative IPC: 1.59423 (Simulation time: 0 hr 51 min 11 sec) 
Heartbeat CPU 2 instructions: 130000000 cycles: 101765712 heartbeat IPC: 0.670687 cumulative IPC: 1.15296 (Simulation time: 0 hr 51 min 30 sec) 
Heartbeat CPU 4 instructions: 170000003 cycles: 103647294 heartbeat IPC: 1.5875 cumulative IPC: 1.5505 (Simulation time: 0 hr 52 min 18 sec) 
Heartbeat CPU 6 instructions: 90000001 cycles: 104974381 heartbeat IPC: 0.700846 cumulative IPC: 0.714972 (Simulation time: 0 hr 52 min 52 sec) 
Heartbeat CPU 0 instructions: 180000000 cycles: 107147600 heartbeat IPC: 1.63031 cumulative IPC: 1.59657 (Simulation time: 0 hr 53 min 48 sec) 
Heartbeat CPU 4 instructions: 180000000 cycles: 109804481 heartbeat IPC: 1.62412 cumulative IPC: 1.55514 (Simulation time: 0 hr 54 min 55 sec) 
Heartbeat CPU 5 instructions: 100000000 cycles: 111886850 heartbeat IPC: 0.714751 cumulative IPC: 0.789878 (Simulation time: 0 hr 55 min 49 sec) 
Heartbeat CPU 3 instructions: 80000000 cycles: 112386130 heartbeat IPC: 0.573687 cumulative IPC: 0.575928 (Simulation time: 0 hr 56 min 2 sec) 
Heartbeat CPU 0 instructions: 190000002 cycles: 113464838 heartbeat IPC: 1.58297 cumulative IPC: 1.59572 (Simulation time: 0 hr 56 min 31 sec) 
Heartbeat CPU 4 instructions: 190000000 cycles: 115923472 heartbeat IPC: 1.63426 cumulative IPC: 1.55982 (Simulation time: 0 hr 57 min 34 sec) 
Heartbeat CPU 2 instructions: 140000000 cycles: 116675127 heartbeat IPC: 0.670717 cumulative IPC: 1.08409 (Simulation time: 0 hr 57 min 54 sec) 
Heartbeat CPU 7 instructions: 60000000 cycles: 118642483 heartbeat IPC: 0.382021 cumulative IPC: 0.342521 (Simulation time: 0 hr 58 min 44 sec) 
Heartbeat CPU 6 instructions: 100000000 cycles: 118816826 heartbeat IPC: 0.722416 cumulative IPC: 0.71594 (Simulation time: 0 hr 58 min 49 sec) 
Heartbeat CPU 0 instructions: 200000000 cycles: 120768648 heartbeat IPC: 1.36915 cumulative IPC: 1.58046 (Simulation time: 0 hr 59 min 43 sec) 
Heartbeat CPU 4 instructions: 200000000 cycles: 122355625 heartbeat IPC: 1.55469 cumulative IPC: 1.55952 (Simulation time: 1 hr 0 min 27 sec) 
Heartbeat CPU 5 instructions: 110000000 cycles: 123774961 heartbeat IPC: 0.841177 cumulative IPC: 0.795348 (Simulation time: 1 hr 1 min 2 sec) 
Heartbeat CPU 4 instructions: 210000001 cycles: 128740527 heartbeat IPC: 1.56619 cumulative IPC: 1.55988 (Simulation time: 1 hr 3 min 15 sec) 
Heartbeat CPU 1 instructions: 50000000 cycles: 129627594 heartbeat IPC: 0.267422 cumulative IPC: 0.255657 (Simulation time: 1 hr 3 min 44 sec) 
Heartbeat CPU 3 instructions: 90000003 cycles: 129755252 heartbeat IPC: 0.575734 cumulative IPC: 0.5759 (Simulation time: 1 hr 3 min 48 sec) 
Heartbeat CPU 0 instructions: 210000003 cycles: 130645931 heartbeat IPC: 1.01242 cumulative IPC: 1.53306 (Simulation time: 1 hr 4 min 16 sec) 
Heartbeat CPU 2 instructions: 150000001 cycles: 132087142 heartbeat IPC: 0.648844 cumulative IPC: 1.0281 (Simulation time: 1 hr 4 min 56 sec) 
Heartbeat CPU 6 instructions: 110000002 cycles: 133314804 heartbeat IPC: 0.689752 cumulative IPC: 0.712803 (Simulation time: 1 hr 5 min 32 sec) 
Heartbeat CPU 4 instructions: 220000000 cycles: 135143725 heartbeat IPC: 1.56172 cumulative IPC: 1.55998 (Simulation time: 1 hr 6 min 28 sec) 
Heartbeat CPU 5 instructions: 120000000 cycles: 135931175 heartbeat IPC: 0.822625 cumulative IPC: 0.79803 (Simulation time: 1 hr 6 min 52 sec) 
Finished CPU 5 instructions: 100000000 cycles: 125592844 cumulative IPC: 0.796224 (Simulation time: 1 hr 7 min 45 sec) 
Heartbeat CPU 0 instructions: 220000000 cycles: 139797925 heartbeat IPC: 1.09266 cumulative IPC: 1.50145 (Simulation time: 1 hr 8 min 33 sec) 
Heartbeat CPU 2 instructions: 160000000 cycles: 140651802 heartbeat IPC: 1.16759 cumulative IPC: 1.0374 (Simulation time: 1 hr 8 min 56 sec) 
Heartbeat CPU 4 instructions: 230000003 cycles: 141531714 heartbeat IPC: 1.56544 cumulative IPC: 1.56025 (Simulation time: 1 hr 9 min 22 sec) 
Heartbeat CPU 7 instructions: 70000001 cycles: 143807708 heartbeat IPC: 0.397374 cumulative IPC: 0.353016 (Simulation time: 1 hr 10 min 28 sec) 
Heartbeat CPU 6 instructions: 120000000 cycles: 147078409 heartbeat IPC: 0.726554 cumulative IPC: 0.714207 (Simulation time: 1 hr 12 min 0 sec) 
Heartbeat CPU 3 instructions: 100000000 cycles: 147271140 heartbeat IPC: 0.57091 cumulative IPC: 0.575252 (Simulation time: 1 hr 12 min 6 sec) 
Heartbeat CPU 4 instructions: 240000000 cycles: 147953358 heartbeat IPC: 1.55723 cumulative IPC: 1.5601 (Simulation time: 1 hr 12 min 27 sec) 
Heartbeat CPU 0 instructions: 230000002 cycles: 148121315 heartbeat IPC: 1.20143 cumulative IPC: 1.48307 (Simulation time: 1 hr 12 min 32 sec) 
Heartbeat CPU 5 instructions: 130000003 cycles: 150654495 heartbeat IPC: 0.679195 cumulative IPC: 0.785385 (Simulation time: 1 hr 13 min 42 sec) 
Heartbeat CPU 2 instructions: 170000002 cycles: 152015169 heartbeat IPC: 0.880021 cumulative IPC: 1.0246 (Simulation time: 1 hr 14 min 19 sec) 
Finished CPU 6 instructions: 100000000 cycles: 140609128 cumulative IPC: 0.711191 (Simulation time: 1 hr 14 min 44 sec) 
Heartbeat CPU 4 instructions: 250000003 cycles: 154325157 heartbeat IPC: 1.56942 cumulative IPC: 1.56052 (Simulation time: 1 hr 15 min 23 sec) 
Heartbeat CPU 0 instructions: 240000000 cycles: 154370418 heartbeat IPC: 1.60023 cumulative IPC: 1.48822 (Simulation time: 1 hr 15 min 24 sec) 
Heartbeat CPU 0 instructions: 250000000 cycles: 160624918 heartbeat IPC: 1.59885 cumulative IPC: 1.49289 (Simulation time: 1 hr 18 min 41 sec) 
Heartbeat CPU 4 instructions: 260000000 cycles: 160735372 heartbeat IPC: 1.56001 cumulative IPC: 1.5605 (Simulation time: 1 hr 18 min 44 sec) 
Heartbeat CPU 2 instructions: 180000000 cycles: 160747806 heartbeat IPC: 1.14513 cumulative IPC: 1.03169 (Simulation time: 1 hr 18 min 45 sec) 
Heartbeat CPU 6 instructions: 130000001 cycles: 161956689 heartbeat IPC: 0.672121 cumulative IPC: 0.710023 (Simulation time: 1 hr 19 min 22 sec) 
Heartbeat CPU 7 instructions: 80000000 cycles: 162852133 heartbeat IPC: 0.525088 cumulative IPC: 0.37478 (Simulation time: 1 hr 19 min 51 sec) 
Heartbeat CPU 3 instructions: 110000002 cycles: 164672709 heartbeat IPC: 0.574661 cumulative IPC: 0.575185 (Simulation time: 1 hr 20 min 45 sec) 
Heartbeat CPU 5 instructions: 140000000 cycles: 164859467 heartbeat IPC: 0.703979 cumulative IPC: 0.777806 (Simulation time: 1 hr 20 min 51 sec) 
Heartbeat CPU 0 instructions: 260000000 cycles: 166846534 heartbeat IPC: 1.6073 cumulative IPC: 1.49749 (Simulation time: 1 hr 21 min 45 sec) 
Heartbeat CPU 4 instructions: 270000000 cycles: 167108920 heartbeat IPC: 1.56898 cumulative IPC: 1.56085 (Simulation time: 1 hr 21 min 52 sec) 
Heartbeat CPU 2 instructions: 190000001 cycles: 169329861 heartbeat IPC: 1.16522 cumulative IPC: 1.03899 (Simulation time: 1 hr 22 min 53 sec) 
Heartbeat CPU 1 instructions: 60000000 cycles: 170683318 heartbeat IPC: 0.243571 cumulative IPC: 0.252525 (Simulation time: 1 hr 23 min 31 sec) 
Heartbeat CPU 0 instructions: 270000000 cycles: 173004302 heartbeat IPC: 1.62397 cumulative IPC: 1.50234 (Simulation time: 1 hr 24 min 35 sec) 
Heartbeat CPU 4 instructions: 280000000 cycles: 173621592 heartbeat IPC: 1.53547 cumulative IPC: 1.55982 (Simulation time: 1 hr 24 min 53 sec) 
Heartbeat CPU 6 instructions: 140000000 cycles: 176100426 heartbeat IPC: 0.707027 cumulative IPC: 0.709764 (Simulation time: 1 hr 26 min 3 sec) 
Heartbeat CPU 5 instructions: 150000002 cycles: 177725475 heartbeat IPC: 0.777242 cumulative IPC: 0.777762 (Simulation time: 1 hr 26 min 47 sec) 
Heartbeat CPU 2 instructions: 200000000 cycles: 178085441 heartbeat IPC: 1.14213 cumulative IPC: 1.04444 (Simulation time: 1 hr 26 min 57 sec) 
Heartbeat CPU 0 instructions: 280000000 cycles: 179257078 heartbeat IPC: 1.59929 cumulative IPC: 1.50597 (Simulation time: 1 hr 27 min 35 sec) 
Heartbeat CPU 4 instructions: 290000003 cycles: 180102888 heartbeat IPC: 1.5429 cumulative IPC: 1.55917 (Simulation time: 1 hr 28 min 2 sec) 
Heartbeat CPU 7 instructions: 90000000 cycles: 180424595 heartbeat IPC: 0.569072 cumulative IPC: 0.395086 (Simulation time: 1 hr 28 min 12 sec) 
Heartbeat CPU 3 instructions: 120000000 cycles: 182028302 heartbeat IPC: 0.576183 cumulative IPC: 0.575287 (Simulation time: 1 hr 29 min 2 sec) 
Heartbeat CPU 0 instructions: 290000000 cycles: 185439325 heartbeat IPC: 1.61753 cumulative IPC: 1.50995 (Simulation time: 1 hr 30 min 51 sec) 
Heartbeat CPU 2 instructions: 210000003 cycles: 185894963 heartbeat IPC: 1.28049 cumulative IPC: 1.05506 (Simulation time: 1 hr 31 min 4 sec) 
Finished CPU 3 instructions: 100000003 cycles: 173829752 cumulative IPC: 0.575275 (Simulation time: 1 hr 31 min 11 sec) 
Heartbeat CPU 4 instructions: 300000000 cycles: 186572544 heartbeat IPC: 1.54568 cumulative IPC: 1.55867 (Simulation time: 1 hr 31 min 24 sec) 
Heartbeat CPU 5 instructions: 160000000 cycles: 189368069 heartbeat IPC: 0.858915 cumulative IPC: 0.783098 (Simulation time: 1 hr 32 min 48 sec) 
Heartbeat CPU 6 instructions: 150000001 cycles: 190273850 heartbeat IPC: 0.705546 cumulative IPC: 0.709428 (Simulation time: 1 hr 33 min 16 sec) 
Heartbeat CPU 0 instructions: 300000000 cycles: 191648377 heartbeat IPC: 1.61055 cumulative IPC: 1.51343 (Simulation time: 1 hr 33 min 57 sec) 
Heartbeat CPU 4 instructions: 310000000 cycles: 192969579 heartbeat IPC: 1.56322 cumulative IPC: 1.55883 (Simulation time: 1 hr 34 min 39 sec) 
Heartbeat CPU 2 instructions: 220000000 cycles: 194240836 heartbeat IPC: 1.1982 cumulative IPC: 1.06162 (Simulation time: 1 hr 35 min 21 sec) 
Heartbeat CPU 0 instructions: 310000001 cycles: 197942773 heartbeat IPC: 1.58871 cumulative IPC: 1.51599 (Simulation time: 1 hr 37 min 11 sec) 
Heartbeat CPU 4 instructions: 320000000 cycles: 199327469 heartbeat IPC: 1.57285 cumulative IPC: 1.55931 (Simulation time: 1 hr 37 min 50 sec) 
Heartbeat CPU 3 instructions: 130000001 cycles: 199454440 heartbeat IPC: 0.573851 cumulative IPC: 0.575153 (Simulation time: 1 hr 37 min 54 sec) 
Heartbeat CPU 7 instructions: 100000000 cycles: 201127549 heartbeat IPC: 0.483023 cumulative IPC: 0.404726 (Simulation time: 1 hr 38 min 44 sec) 
Heartbeat CPU 2 instructions: 230000000 cycles: 202534090 heartbeat IPC: 1.2058 cumulative IPC: 1.06791 (Simulation time: 1 hr 39 min 25 sec) 
Heartbeat CPU 5 instructions: 170000001 cycles: 202947777 heartbeat IPC: 0.736393 cumulative IPC: 0.779771 (Simulation time: 1 hr 39 min 37 sec) 
Heartbeat CPU 0 instructions: 320000000 cycles: 204123946 heartbeat IPC: 1.61782 cumulative IPC: 1.51927 (Simulation time: 1 hr 40 min 13 sec) 
Heartbeat CPU 6 instructions: 160000000 cycles: 204956252 heartbeat IPC: 0.681087 cumulative IPC: 0.707269 (Simulation time: 1 hr 40 min 37 sec) 
Heartbeat CPU 4 instructions: 330000002 cycles: 205604019 heartbeat IPC: 1.59323 cumulative IPC: 1.56041 (Simulation time: 1 hr 40 min 54 sec) 
Heartbeat CPU 1 instructions: 70000001 cycles: 206697655 heartbeat IPC: 0.277667 cumulative IPC: 0.257182 (Simulation time: 1 hr 41 min 23 sec) 
Heartbeat CPU 0 instructions: 330000000 cycles: 210344265 heartbeat IPC: 1.60763 cumulative IPC: 1.52204 (Simulation time: 1 hr 42 min 58 sec) 
Heartbeat CPU 4 instructions: 340000000 cycles: 211688612 heartbeat IPC: 1.64349 cumulative IPC: 1.56294 (Simulation time: 1 hr 43 min 32 sec) 
Heartbeat CPU 2 instructions: 240000000 cycles: 213982252 heartbeat IPC: 0.873503 cumulative IPC: 1.05687 (Simulation time: 1 hr 44 min 35 sec) 
Heartbeat CPU 5 instructions: 180000000 cycles: 214891404 heartbeat IPC: 0.837267 cumulative IPC: 0.783161 (Simulation time: 1 hr 45 min 0 sec) 
Heartbeat CPU 0 instructions: 340000000 cycles: 216420226 heartbeat IPC: 1.64583 cumulative IPC: 1.52573 (Simulation time: 1 hr 45 min 40 sec) 
Heartbeat CPU 3 instructions: 140000000 cycles: 216855007 heartbeat IPC: 0.574694 cumulative IPC: 0.575114 (Simulation time: 1 hr 45 min 51 sec) 
Heartbeat CPU 4 instructions: 350000003 cycles: 217694167 heartbeat IPC: 1.66513 cumulative IPC: 1.56593 (Simulation time: 1 hr 46 min 13 sec) 
Heartbeat CPU 6 instructions: 170000003 cycles: 219165798 heartbeat IPC: 0.703752 cumulative IPC: 0.707027 (Simulation time: 1 hr 46 min 53 sec) 
Heartbeat CPU 4 instructions: 360000000 cycles: 223696369 heartbeat IPC: 1.66605 cumulative IPC: 1.56877 (Simulation time: 1 hr 48 min 47 sec) 
Heartbeat CPU 0 instructions: 350000001 cycles: 223793937 heartbeat IPC: 1.35617 cumulative IPC: 1.51982 (Simulation time: 1 hr 48 min 50 sec) 
Heartbeat CPU 5 instructions: 190000003 cycles: 227003251 heartbeat IPC: 0.825638 cumulative IPC: 0.785557 (Simulation time: 1 hr 50 min 15 sec) 
Heartbeat CPU 2 instructions: 250000003 cycles: 227287297 heartbeat IPC: 0.751595 cumulative IPC: 1.03798 (Simulation time: 1 hr 50 min 23 sec) 
Heartbeat CPU 4 instructions: 370000000 cycles: 229801860 heartbeat IPC: 1.63787 cumulative IPC: 1.57071 (Simulation time: 1 hr 51 min 30 sec) 
Heartbeat CPU 0 instructions: 360000000 cycles: 230036190 heartbeat IPC: 1.60199 cumulative IPC: 1.52217 (Simulation time: 1 hr 51 min 37 sec) 
Heartbeat CPU 7 instructions: 110000001 cycles: 230541036 heartbeat IPC: 0.33998 cumulative IPC: 0.396001 (Simulation time: 1 hr 51 min 50 sec) 
Heartbeat CPU 6 instructions: 180000000 cycles: 234157727 heartbeat IPC: 0.667025 cumulative IPC: 0.704324 (Simulation time: 1 hr 53 min 28 sec) 
Heartbeat CPU 3 instructions: 150000000 cycles: 234239595 heartbeat IPC: 0.575222 cumulative IPC: 0.575123 (Simulation time: 1 hr 53 min 30 sec) 
Heartbeat CPU 2 instructions: 260000000 cycles: 234834682 heartbeat IPC: 1.32496 cumulative IPC: 1.04771 (Simulation time: 1 hr 53 min 47 sec) 
Heartbeat CPU 4 instructions: 380000000 cycles: 235891588 heartbeat IPC: 1.64211 cumulative IPC: 1.57266 (Simulation time: 1 hr 54 min 15 sec) 
Heartbeat CPU 0 instructions: 370000000 cycles: 236261074 heartbeat IPC: 1.60646 cumulative IPC: 1.52451 (Simulation time: 1 hr 54 min 24 sec) 
Heartbeat CPU 4 instructions: 390000002 cycles: 241855407 heartbeat IPC: 1.67678 cumulative IPC: 1.57536 (Simulation time: 1 hr 56 min 45 sec) 
Heartbeat CPU 5 instructions: 200000000 cycles: 242302511 heartbeat IPC: 0.653626 cumulative IPC: 0.776781 (Simulation time: 1 hr 56 min 56 sec) 
Heartbeat CPU 0 instructions: 380000000 cycles: 242523842 heartbeat IPC: 1.59674 cumulative IPC: 1.52648 (Simulation time: 1 hr 57 min 2 sec) 
Heartbeat CPU 2 instructions: 270000000 cycles: 242902651 heartbeat IPC: 1.23947 cumulative IPC: 1.05442 (Simulation time: 1 hr 57 min 11 sec) 
Heartbeat CPU 1 instructions: 80000000 cycles: 244274414 heartbeat IPC: 0.266122 cumulative IPC: 0.25863 (Simulation time: 1 hr 57 min 45 sec) 
Heartbeat CPU 4 instructions: 400000000 cycles: 248088828 heartbeat IPC: 1.60426 cumulative IPC: 1.57613 (Simulation time: 1 hr 59 min 17 sec) 
Heartbeat CPU 6 instructions: 190000001 cycles: 248354496 heartbeat IPC: 0.704386 cumulative IPC: 0.704328 (Simulation time: 1 hr 59 min 23 sec) 
Heartbeat CPU 0 instructions: 390000000 cycles: 248824622 heartbeat IPC: 1.58711 cumulative IPC: 1.52809 (Simulation time: 1 hr 59 min 35 sec) 
Heartbeat CPU 3 instructions: 160000000 cycles: 251590403 heartbeat IPC: 0.576342 cumulative IPC: 0.575211 (Simulation time: 2 hr 0 min 39 sec) 
Heartbeat CPU 4 instructions: 410000002 cycles: 254323306 heartbeat IPC: 1.60398 cumulative IPC: 1.57684 (Simulation time: 2 hr 1 min 46 sec) 
Heartbeat CPU 2 instructions: 280000000 cycles: 254678349 heartbeat IPC: 0.849207 cumulative IPC: 1.04445 (Simulation time: 2 hr 1 min 55 sec) 
Heartbeat CPU 0 instructions: 400000000 cycles: 255043778 heartbeat IPC: 1.60794 cumulative IPC: 1.53014 (Simulation time: 2 hr 2 min 4 sec) 
Heartbeat CPU 5 instructions: 210000000 cycles: 257123905 heartbeat IPC: 0.6747 cumulative IPC: 0.770602 (Simulation time: 2 hr 2 min 53 sec) 
Heartbeat CPU 4 instructions: 420000000 cycles: 260605762 heartbeat IPC: 1.59173 cumulative IPC: 1.57722 (Simulation time: 2 hr 4 min 16 sec) 
Heartbeat CPU 0 instructions: 410000002 cycles: 261167958 heartbeat IPC: 1.63287 cumulative IPC: 1.53267 (Simulation time: 2 hr 4 min 30 sec) 
Heartbeat CPU 7 instructions: 120000000 cycles: 261376200 heartbeat IPC: 0.324305 cumulative IPC: 0.387126 (Simulation time: 2 hr 4 min 35 sec) 
Heartbeat CPU 6 instructions: 200000000 cycles: 263016075 heartbeat IPC: 0.682055 cumulative IPC: 0.703026 (Simulation time: 2 hr 5 min 14 sec) 
Heartbeat CPU 2 instructions: 290000001 cycles: 264754994 heartbeat IPC: 0.992394 cumulative IPC: 1.04237 (Simulation time: 2 hr 5 min 55 sec) 
Heartbeat CPU 4 instructions: 430000000 cycles: 266629144 heartbeat IPC: 1.6602 cumulative IPC: 1.57919 (Simulation time: 2 hr 6 min 40 sec) 
Heartbeat CPU 0 instructions: 420000000 cycles: 267452985 heartbeat IPC: 1.59108 cumulative IPC: 1.53411 (Simulation time: 2 hr 7 min 0 sec) 
Heartbeat CPU 3 instructions: 170000002 cycles: 269053430 heartbeat IPC: 0.572639 cumulative IPC: 0.575036 (Simulation time: 2 hr 7 min 38 sec) 
Finished CPU 7 instructions: 100000002 cycles: 259328268 cumulative IPC: 0.385612 (Simulation time: 2 hr 8 min 40 sec) 
Heartbeat CPU 5 instructions: 220000000 cycles: 271841095 heartbeat IPC: 0.679478 cumulative IPC: 0.765435 (Simulation time: 2 hr 8 min 45 sec) 
Heartbeat CPU 4 instructions: 440000000 cycles: 272845556 heartbeat IPC: 1.60864 cumulative IPC: 1.57989 (Simulation time: 2 hr 9 min 9 sec) 
Heartbeat CPU 0 instructions: 430000001 cycles: 273687376 heartbeat IPC: 1.60401 cumulative IPC: 1.53577 (Simulation time: 2 hr 9 min 30 sec) 
Heartbeat CPU 2 instructions: 300000000 cycles: 274996413 heartbeat IPC: 0.976427 cumulative IPC: 1.0398 (Simulation time: 2 hr 10 min 1 sec) 
Heartbeat CPU 6 instructions: 210000003 cycles: 277617316 heartbeat IPC: 0.684874 cumulative IPC: 0.702027 (Simulation time: 2 hr 11 min 3 sec) 
Heartbeat CPU 4 instructions: 450000000 cycles: 278995220 heartbeat IPC: 1.62611 cumulative IPC: 1.58095 (Simulation time: 2 hr 11 min 36 sec) 
Heartbeat CPU 0 instructions: 440000000 cycles: 279801215 heartbeat IPC: 1.63563 cumulative IPC: 1.53805 (Simulation time: 2 hr 11 min 55 sec) 
Heartbeat CPU 4 instructions: 460000000 cycles: 285189111 heartbeat IPC: 1.61449 cumulative IPC: 1.58172 (Simulation time: 2 hr 13 min 59 sec) 
Heartbeat CPU 0 instructions: 450000002 cycles: 286090254 heartbeat IPC: 1.59007 cumulative IPC: 1.53925 (Simulation time: 2 hr 14 min 21 sec) 
Heartbeat CPU 3 instructions: 180000000 cycles: 286494898 heartbeat IPC: 0.573346 cumulative IPC: 0.574929 (Simulation time: 2 hr 14 min 31 sec) 
Heartbeat CPU 2 instructions: 310000002 cycles: 286561847 heartbeat IPC: 0.864646 cumulative IPC: 1.03242 (Simulation time: 2 hr 14 min 33 sec) 
Heartbeat CPU 5 instructions: 230000000 cycles: 286750345 heartbeat IPC: 0.670725 cumulative IPC: 0.76029 (Simulation time: 2 hr 14 min 37 sec) 
Heartbeat CPU 7 instructions: 130000002 cycles: 289393104 heartbeat IPC: 0.356927 cumulative IPC: 0.384072 (Simulation time: 2 hr 15 min 40 sec) 
Heartbeat CPU 1 instructions: 90000002 cycles: 290332460 heartbeat IPC: 0.217117 cumulative IPC: 0.251754 (Simulation time: 2 hr 16 min 3 sec) 
Heartbeat CPU 4 instructions: 470000003 cycles: 291413468 heartbeat IPC: 1.60659 cumulative IPC: 1.58227 (Simulation time: 2 hr 16 min 29 sec) 
Heartbeat CPU 6 instructions: 220000000 cycles: 292012757 heartbeat IPC: 0.694664 cumulative IPC: 0.701648 (Simulation time: 2 hr 16 min 44 sec) 
Heartbeat CPU 0 instructions: 460000000 cycles: 292248977 heartbeat IPC: 1.62371 cumulative IPC: 1.54111 (Simulation time: 2 hr 16 min 49 sec) 
Heartbeat CPU 2 instructions: 320000000 cycles: 295894349 heartbeat IPC: 1.07152 cumulative IPC: 1.0337 (Simulation time: 2 hr 18 min 16 sec) 
Heartbeat CPU 4 instructions: 480000000 cycles: 297580499 heartbeat IPC: 1.62153 cumulative IPC: 1.58312 (Simulation time: 2 hr 18 min 56 sec) 
Heartbeat CPU 0 instructions: 470000003 cycles: 298327581 heartbeat IPC: 1.64512 cumulative IPC: 1.54332 (Simulation time: 2 hr 19 min 14 sec) 
Heartbeat CPU 5 instructions: 240000000 cycles: 301268569 heartbeat IPC: 0.688789 cumulative IPC: 0.756698 (Simulation time: 2 hr 20 min 26 sec) 
Heartbeat CPU 3 instructions: 190000000 cycles: 303921255 heartbeat IPC: 0.573843 cumulative IPC: 0.574864 (Simulation time: 2 hr 21 min 27 sec) 
Heartbeat CPU 0 instructions: 480000000 cycles: 304570942 heartbeat IPC: 1.6017 cumulative IPC: 1.54456 (Simulation time: 2 hr 21 min 42 sec) 
Heartbeat CPU 4 instructions: 490000000 cycles: 304773440 heartbeat IPC: 1.39025 cumulative IPC: 1.57838 (Simulation time: 2 hr 21 min 47 sec) 
Heartbeat CPU 2 instructions: 330000001 cycles: 306505927 heartbeat IPC: 0.942367 cumulative IPC: 1.03041 (Simulation time: 2 hr 22 min 29 sec) 
Heartbeat CPU 6 instructions: 230000002 cycles: 306586871 heartbeat IPC: 0.686148 cumulative IPC: 0.70088 (Simulation time: 2 hr 22 min 31 sec) 
Heartbeat CPU 0 instructions: 490000000 cycles: 310687063 heartbeat IPC: 1.63502 cumulative IPC: 1.54642 (Simulation time: 2 hr 24 min 12 sec) 
Heartbeat CPU 4 instructions: 500000000 cycles: 311333294 heartbeat IPC: 1.52442 cumulative IPC: 1.57719 (Simulation time: 2 hr 24 min 27 sec) 
Heartbeat CPU 5 instructions: 250000002 cycles: 312617121 heartbeat IPC: 0.88117 cumulative IPC: 0.761402 (Simulation time: 2 hr 24 min 57 sec) 
Heartbeat CPU 7 instructions: 140000000 cycles: 315726866 heartbeat IPC: 0.379741 cumulative IPC: 0.383697 (Simulation time: 2 hr 26 min 10 sec) 
Heartbeat CPU 0 instructions: 500000000 cycles: 316856732 heartbeat IPC: 1.62083 cumulative IPC: 1.54793 (Simulation time: 2 hr 26 min 36 sec) 
Heartbeat CPU 4 instructions: 510000002 cycles: 317843333 heartbeat IPC: 1.53609 cumulative IPC: 1.57632 (Simulation time: 2 hr 26 min 58 sec) 
Heartbeat CPU 2 instructions: 340000000 cycles: 319436071 heartbeat IPC: 0.773387 cumulative IPC: 1.01959 (Simulation time: 2 hr 27 min 36 sec) 
Heartbeat CPU 6 instructions: 240000000 cycles: 320933637 heartbeat IPC: 0.697021 cumulative IPC: 0.700701 (Simulation time: 2 hr 28 min 13 sec) 
Heartbeat CPU 3 instructions: 200000000 cycles: 321362404 heartbeat IPC: 0.573357 cumulative IPC: 0.574779 (Simulation time: 2 hr 28 min 23 sec) 
Heartbeat CPU 0 instructions: 510000000 cycles: 322978154 heartbeat IPC: 1.63361 cumulative IPC: 1.54961 (Simulation time: 2 hr 29 min 4 sec) 
Heartbeat CPU 4 instructions: 520000000 cycles: 324298098 heartbeat IPC: 1.54924 cumulative IPC: 1.57576 (Simulation time: 2 hr 29 min 36 sec) 
Heartbeat CPU 2 instructions: 350000002 cycles: 326733280 heartbeat IPC: 1.37039 cumulative IPC: 1.02773 (Simulation time: 2 hr 30 min 36 sec) 
Heartbeat CPU 5 instructions: 260000000 cycles: 327060360 heartbeat IPC: 0.692365 cumulative IPC: 0.758234 (Simulation time: 2 hr 30 min 45 sec) 
Heartbeat CPU 0 instructions: 520000000 cycles: 329113980 heartbeat IPC: 1.62977 cumulative IPC: 1.55117 (Simulation time: 2 hr 31 min 36 sec) 
Heartbeat CPU 4 instructions: 530000001 cycles: 330863559 heartbeat IPC: 1.52312 cumulative IPC: 1.57467 (Simulation time: 2 hr 32 min 18 sec) 
Heartbeat CPU 2 instructions: 360000000 cycles: 334759577 heartbeat IPC: 1.2459 cumulative IPC: 1.03316 (Simulation time: 2 hr 33 min 52 sec) 
Heartbeat CPU 6 instructions: 250000003 cycles: 335554992 heartbeat IPC: 0.683931 cumulative IPC: 0.699942 (Simulation time: 2 hr 34 min 12 sec) 
Heartbeat CPU 1 instructions: 100000000 cycles: 335817663 heartbeat IPC: 0.219852 cumulative IPC: 0.247269 (Simulation time: 2 hr 34 min 18 sec) 
Heartbeat CPU 0 instructions: 530000001 cycles: 336300213 heartbeat IPC: 1.39155 cumulative IPC: 1.54763 (Simulation time: 2 hr 34 min 30 sec) 
Heartbeat CPU 4 instructions: 540000000 cycles: 337357614 heartbeat IPC: 1.53987 cumulative IPC: 1.57398 (Simulation time: 2 hr 34 min 55 sec) 
Heartbeat CPU 7 instructions: 150000000 cycles: 337742828 heartbeat IPC: 0.454216 cumulative IPC: 0.388467 (Simulation time: 2 hr 35 min 5 sec) 
Heartbeat CPU 3 instructions: 210000000 cycles: 338805371 heartbeat IPC: 0.573297 cumulative IPC: 0.574699 (Simulation time: 2 hr 35 min 32 sec) 
Heartbeat CPU 5 instructions: 270000000 cycles: 340824122 heartbeat IPC: 0.726546 cumulative IPC: 0.756907 (Simulation time: 2 hr 36 min 23 sec) 
Heartbeat CPU 2 instructions: 370000003 cycles: 341795429 heartbeat IPC: 1.42129 cumulative IPC: 1.04145 (Simulation time: 2 hr 36 min 48 sec) 
Heartbeat CPU 0 instructions: 540000000 cycles: 343284018 heartbeat IPC: 1.43188 cumulative IPC: 1.54518 (Simulation time: 2 hr 37 min 25 sec) 
Heartbeat CPU 4 instructions: 550000002 cycles: 343818863 heartbeat IPC: 1.54769 cumulative IPC: 1.57346 (Simulation time: 2 hr 37 min 38 sec) 
Heartbeat CPU 2 instructions: 380000000 cycles: 349733905 heartbeat IPC: 1.25969 cumulative IPC: 1.04658 (Simulation time: 2 hr 40 min 4 sec) 
Heartbeat CPU 6 instructions: 260000000 cycles: 349785545 heartbeat IPC: 0.702713 cumulative IPC: 0.700059 (Simulation time: 2 hr 40 min 6 sec) 
Heartbeat CPU 0 instructions: 550000000 cycles: 349870585 heartbeat IPC: 1.51824 cumulative IPC: 1.54466 (Simulation time: 2 hr 40 min 8 sec) 
Heartbeat CPU 4 instructions: 560000000 cycles: 350833804 heartbeat IPC: 1.42553 cumulative IPC: 1.5704 (Simulation time: 2 hr 40 min 32 sec) 
Heartbeat CPU 5 instructions: 280000000 cycles: 353832460 heartbeat IPC: 0.768738 cumulative IPC: 0.757357 (Simulation time: 2 hr 41 min 44 sec) 
Heartbeat CPU 7 instructions: 160000000 cycles: 355655194 heartbeat IPC: 0.558274 cumulative IPC: 0.397325 (Simulation time: 2 hr 42 min 29 sec) 
Heartbeat CPU 3 instructions: 220000000 cycles: 356209821 heartbeat IPC: 0.574566 cumulative IPC: 0.574693 (Simulation time: 2 hr 42 min 41 sec) 
Heartbeat CPU 0 instructions: 560000000 cycles: 356318558 heartbeat IPC: 1.55087 cumulative IPC: 1.54478 (Simulation time: 2 hr 42 min 44 sec) 
Heartbeat CPU 4 instructions: 570000000 cycles: 357159458 heartbeat IPC: 1.58086 cumulative IPC: 1.57059 (Simulation time: 2 hr 43 min 4 sec) 
Heartbeat CPU 2 instructions: 390000001 cycles: 357522043 heartbeat IPC: 1.284 cumulative IPC: 1.05194 (Simulation time: 2 hr 43 min 12 sec) 
Heartbeat CPU 0 instructions: 570000003 cycles: 362668187 heartbeat IPC: 1.5749 cumulative IPC: 1.54532 (Simulation time: 2 hr 45 min 19 sec) 
Heartbeat CPU 4 instructions: 580000000 cycles: 363566337 heartbeat IPC: 1.56082 cumulative IPC: 1.57041 (Simulation time: 2 hr 45 min 41 sec) 
Heartbeat CPU 6 instructions: 270000000 cycles: 364226473 heartbeat IPC: 0.692476 cumulative IPC: 0.699748 (Simulation time: 2 hr 45 min 58 sec) 
Heartbeat CPU 2 instructions: 400000000 cycles: 364549909 heartbeat IPC: 1.42291 cumulative IPC: 1.05934 (Simulation time: 2 hr 46 min 5 sec) 
Heartbeat CPU 5 instructions: 290000000 cycles: 368265455 heartbeat IPC: 0.692857 cumulative IPC: 0.754742 (Simulation time: 2 hr 47 min 33 sec) 
Heartbeat CPU 0 instructions: 580000000 cycles: 369177636 heartbeat IPC: 1.53623 cumulative IPC: 1.54516 (Simulation time: 2 hr 47 min 54 sec) 
Heartbeat CPU 4 instructions: 590000003 cycles: 371045266 heartbeat IPC: 1.33709 cumulative IPC: 1.56555 (Simulation time: 2 hr 48 min 39 sec) 
Heartbeat CPU 2 instructions: 410000000 cycles: 372540463 heartbeat IPC: 1.25148 cumulative IPC: 1.0636 (Simulation time: 2 hr 49 min 17 sec) 
Heartbeat CPU 3 instructions: 230000002 cycles: 373624601 heartbeat IPC: 0.574225 cumulative IPC: 0.57467 (Simulation time: 2 hr 49 min 44 sec) 
Heartbeat CPU 0 instructions: 590000001 cycles: 375561061 heartbeat IPC: 1.56656 cumulative IPC: 1.54553 (Simulation time: 2 hr 50 min 32 sec) 
Heartbeat CPU 1 instructions: 110000002 cycles: 376501378 heartbeat IPC: 0.245799 cumulative IPC: 0.247105 (Simulation time: 2 hr 50 min 55 sec) 
Heartbeat CPU 4 instructions: 600000000 cycles: 377172787 heartbeat IPC: 1.63198 cumulative IPC: 1.56666 (Simulation time: 2 hr 51 min 11 sec) 
Heartbeat CPU 7 instructions: 170000002 cycles: 377480044 heartbeat IPC: 0.458193 cumulative IPC: 0.400963 (Simulation time: 2 hr 51 min 18 sec) 
Heartbeat CPU 6 instructions: 280000000 cycles: 378452684 heartbeat IPC: 0.702928 cumulative IPC: 0.699872 (Simulation time: 2 hr 51 min 42 sec) 
Heartbeat CPU 2 instructions: 420000000 cycles: 379591417 heartbeat IPC: 1.41825 cumulative IPC: 1.07041 (Simulation time: 2 hr 52 min 9 sec) 
Heartbeat CPU 0 instructions: 600000000 cycles: 382225439 heartbeat IPC: 1.50051 cumulative IPC: 1.54472 (Simulation time: 2 hr 53 min 10 sec) 
Heartbeat CPU 4 instructions: 610000002 cycles: 383413916 heartbeat IPC: 1.60227 cumulative IPC: 1.56726 (Simulation time: 2 hr 53 min 37 sec) 
Heartbeat CPU 5 instructions: 300000000 cycles: 383432992 heartbeat IPC: 0.659303 cumulative IPC: 0.750842 (Simulation time: 2 hr 53 min 37 sec) 
Heartbeat CPU 0 instructions: 610000000 cycles: 388646445 heartbeat IPC: 1.55739 cumulative IPC: 1.54494 (Simulation time: 2 hr 55 min 35 sec) 
Heartbeat CPU 4 instructions: 620000000 cycles: 389518653 heartbeat IPC: 1.63807 cumulative IPC: 1.56841 (Simulation time: 2 hr 55 min 54 sec) 
Heartbeat CPU 3 instructions: 240000000 cycles: 391033691 heartbeat IPC: 0.574412 cumulative IPC: 0.574658 (Simulation time: 2 hr 56 min 27 sec) 
Heartbeat CPU 2 instructions: 430000001 cycles: 392518973 heartbeat IPC: 0.773542 cumulative IPC: 1.06032 (Simulation time: 2 hr 56 min 59 sec) 
Heartbeat CPU 6 instructions: 290000000 cycles: 392907756 heartbeat IPC: 0.691799 cumulative IPC: 0.699565 (Simulation time: 2 hr 57 min 8 sec) 
Heartbeat CPU 0 instructions: 620000000 cycles: 395359882 heartbeat IPC: 1.48955 cumulative IPC: 1.54397 (Simulation time: 2 hr 58 min 1 sec) 
Heartbeat CPU 4 instructions: 630000003 cycles: 396413901 heartbeat IPC: 1.45027 cumulative IPC: 1.56629 (Simulation time: 2 hr 58 min 23 sec) 
Heartbeat CPU 5 instructions: 310000001 cycles: 398079207 heartbeat IPC: 0.68277 cumulative IPC: 0.748258 (Simulation time: 2 hr 58 min 58 sec) 
Heartbeat CPU 0 instructions: 630000000 cycles: 402857163 heartbeat IPC: 1.33382 cumulative IPC: 1.53993 (Simulation time: 3 hr 0 min 44 sec) 
Heartbeat CPU 4 instructions: 640000000 cycles: 403392558 heartbeat IPC: 1.43294 cumulative IPC: 1.56391 (Simulation time: 3 hr 0 min 57 sec) 
Heartbeat CPU 6 instructions: 300000000 cycles: 407347036 heartbeat IPC: 0.692555 cumulative IPC: 0.699309 (Simulation time: 3 hr 2 min 26 sec) 
Heartbeat CPU 2 instructions: 440000000 cycles: 407417992 heartbeat IPC: 0.671185 cumulative IPC: 1.04564 (Simulation time: 3 hr 2 min 28 sec) 
Heartbeat CPU 3 instructions: 250000000 cycles: 408430118 heartbeat IPC: 0.574831 cumulative IPC: 0.574666 (Simulation time: 3 hr 2 min 51 sec) 
Heartbeat CPU 7 instructions: 180000000 cycles: 408465538 heartbeat IPC: 0.322732 cumulative IPC: 0.394844 (Simulation time: 3 hr 2 min 51 sec) 
Heartbeat CPU 0 instructions: 640000000 cycles: 409116150 heartbeat IPC: 1.5977 cumulative IPC: 1.54084 (Simulation time: 3 hr 3 min 6 sec) 
Heartbeat CPU 4 instructions: 650000000 cycles: 409621994 heartbeat IPC: 1.60528 cumulative IPC: 1.56456 (Simulation time: 3 hr 3 min 18 sec) 
Heartbeat CPU 5 instructions: 320000000 cycles: 411920959 heartbeat IPC: 0.722452 cumulative IPC: 0.747364 (Simulation time: 3 hr 4 min 12 sec) 
Heartbeat CPU 1 instructions: 120000000 cycles: 415019864 heartbeat IPC: 0.259616 cumulative IPC: 0.248301 (Simulation time: 3 hr 5 min 23 sec) 
Finished CPU 1 instructions: 100000001 cycles: 402736792 cumulative IPC: 0.248301 (Simulation time: 3 hr 5 min 23 sec) 

CPU 0 Branch Prediction Accuracy: 97.0939% MPKI: 3.979

CPU 1 Branch Prediction Accuracy: 96.6507% MPKI: 9.87224

CPU 2 Branch Prediction Accuracy: 99.3041% MPKI: 0.352078

CPU 3 Branch Prediction Accuracy: 98.2294% MPKI: 2.199

CPU 4 Branch Prediction Accuracy: 96.8443% MPKI: 4.30181

CPU 5 Branch Prediction Accuracy: 98.4835% MPKI: 1.90967

CPU 6 Branch Prediction Accuracy: 98.2737% MPKI: 1.77371

CPU 7 Branch Prediction Accuracy: 99.2867% MPKI: 1.82724

ChampSim completed all CPUs

Total Simulation Statistics (not including warmup)

CPU 0 cumulative IPC: 1.54206 instructions: 621043795 cycles: 402736792
L1D TOTAL     ACCESS:  174114954  HIT:  174114840  MISS:        114
L1D LOAD      ACCESS:   75788339  HIT:   75788293  MISS:         46
L1D RFO       ACCESS:   98326615  HIT:   98326547  MISS:         68
L1D PREFETCH  ACCESS:          0  HIT:          0  MISS:          0
L1D WRITEBACK ACCESS:          0  HIT:          0  MISS:          0
L1I TOTAL     ACCESS:  136270728  HIT:  136245393  MISS:      25335
L1I LOAD      ACCESS:  136270728  HIT:  136245393  MISS:      25335
L1I RFO       ACCESS:          0  HIT:          0  MISS:          0
L1I PREFETCH  ACCESS:          0  HIT:          0  MISS:          0
L1I WRITEBACK ACCESS:          0  HIT:          0  MISS:          0
L2C TOTAL     ACCESS:      25883  HIT:      24690  MISS:       1193
L2C LOAD      ACCESS:      25381  HIT:      24618  MISS:        763
L2C RFO       ACCESS:         68  HIT:          8  MISS:         60
L2C PREFETCH  ACCESS:        434  HIT:         64  MISS:        370
L2C WRITEBACK ACCESS:          0  HIT:          0  MISS:          0

L2C Best-offset prefetcher final stats
LLC TOTAL     ACCESS:       1194  HIT:          1  MISS:       1193
LLC LOAD      ACCESS:        659  HIT:          1  MISS:        658
LLC RFO       ACCESS:         60  HIT:          0  MISS:         60
LLC PREFETCH  ACCESS:        475  HIT:          0  MISS:        475
LLC WRITEBACK ACCESS:          0  HIT:          0  MISS:          0

CPU 1 cumulative IPC: 0.248301 instructions: 100000001 cycles: 402736792
L1D TOTAL     ACCESS:   23203748  HIT:    8034397  MISS:   15169351
L1D LOAD      ACCESS:   21181785  HIT:    6051958  MISS:   15129827
L1D RFO       ACCESS:    2021963  HIT:    1982439  MISS:      39524
L1D PREFETCH  ACCESS:          0  HIT:          0  MISS:          0
L1D WRITEBACK ACCESS:          0  HIT:          0  MISS:          0
L1I TOTAL     ACCESS:   21604158  HIT:   21604158  MISS:          0
L1I LOAD      ACCESS:   21604158  HIT:   21604158  MISS:          0
L1I RFO       ACCESS:          0  HIT:          0  MISS:          0
L1I PREFETCH  ACCESS:          0  HIT:          0  MISS:          0
L1I WRITEBACK ACCESS:          0  HIT:          0  MISS:          0
L2C TOTAL     ACCESS:   25899942  HIT:    5437533  MISS:   20462409
L2C LOAD      ACCESS:   15129796  HIT:    4788650  MISS:   10341146
L2C RFO       ACCESS:      39523  HIT:        788  MISS:      38735
L2C PREFETCH  ACCESS:   10386148  HIT:     303922  MISS:   10082226
L2C WRITEBACK ACCESS:     344475  HIT:     344173  MISS:        302

L2C Best-offset prefetcher final stats
LLC TOTAL     ACCESS:   21992481  HIT:   15812058  MISS:    6180423
LLC LOAD      ACCESS:   10074133  HIT:    8806495  MISS:    1267638
LLC RFO       ACCESS:      38735  HIT:      37168  MISS:       1567
LLC PREFETCH  ACCESS:   11547639  HIT:    6636421  MISS:    4911218
LLC WRITEBACK ACCESS:     331974  HIT:     331974  MISS:          0

CPU 2 cumulative IPC: 1.03857 instructions: 418272200 cycles: 402736793
L1D TOTAL     ACCESS:  101514929  HIT:   94378759  MISS:    7136170
L1D LOAD      ACCESS:   85551313  HIT:   79657355  MISS:    5893958
L1D RFO       ACCESS:   15963616  HIT:   14721404  MISS:    1242212
L1D PREFETCH  ACCESS:          0  HIT:          0  MISS:          0
L1D WRITEBACK ACCESS:          0  HIT:          0  MISS:          0
L1I TOTAL     ACCESS:  112864708  HIT:  112852742  MISS:      11966
L1I LOAD      ACCESS:  112864708  HIT:  112852742  MISS:      11966
L1I RFO       ACCESS:          0  HIT:          0  MISS:          0
L1I PREFETCH  ACCESS:          0  HIT:          0  MISS:          0
L1I WRITEBACK ACCESS:          0  HIT:          0  MISS:          0
L2C TOTAL     ACCESS:   13013946  HIT:    7677135  MISS:    5336811
L2C LOAD      ACCESS:    5905686  HIT:    4860148  MISS:    1045538
L2C RFO       ACCESS:    1242189  HIT:     252237  MISS:     989952
L2C PREFETCH  ACCESS:    3346701  HIT:      52539  MISS:    3294162
L2C WRITEBACK ACCESS:    2519370  HIT:    2512211  MISS:       7159

L2C Best-offset prefetcher final stats
LLC TOTAL     ACCESS:    7572151  HIT:    4595609  MISS:    2976542
LLC LOAD      ACCESS:     807765  HIT:     458770  MISS:     348995
LLC RFO       ACCESS:     988728  HIT:     243341  MISS:     745387
LLC PREFETCH  ACCESS:    3655128  HIT:    1773767  MISS:    1881361
LLC WRITEBACK ACCESS:    2120530  HIT:    2119731  MISS:        799

CPU 3 cumulative IPC: 0.574693 instructions: 231450205 cycles: 402736793
L1D TOTAL     ACCESS:   68709355  HIT:   66569312  MISS:    2140043
L1D LOAD      ACCESS:   64456442  HIT:   62317514  MISS:    2138928
L1D RFO       ACCESS:    4252913  HIT:    4251798  MISS:       1115
L1D PREFETCH  ACCESS:          0  HIT:          0  MISS:          0
L1D WRITEBACK ACCESS:          0  HIT:          0  MISS:          0
L1I TOTAL     ACCESS:   78208246  HIT:   78208246  MISS:          0
L1I LOAD      ACCESS:   78208246  HIT:   78208246  MISS:          0
L1I RFO       ACCESS:          0  HIT:          0  MISS:          0
L1I PREFETCH  ACCESS:          0  HIT:          0  MISS:          0
L1I WRITEBACK ACCESS:          0  HIT:          0  MISS:          0
L2C TOTAL     ACCESS:    2348620  HIT:    2124628  MISS:     223992
L2C LOAD      ACCESS:    2138928  HIT:    2101982  MISS:      36946
L2C RFO       ACCESS:       1115  HIT:        914  MISS:        201
L2C PREFETCH  ACCESS:     207462  HIT:      20619  MISS:     186843
L2C WRITEBACK ACCESS:       1115  HIT:       1113  MISS:          2

L2C Best-offset prefetcher final stats
LLC TOTAL     ACCESS:     224195  HIT:      34690  MISS:     189505
LLC LOAD      ACCESS:      36283  HIT:      13722  MISS:      22561
LLC RFO       ACCESS:        201  HIT:         62  MISS:        139
LLC PREFETCH  ACCESS:     187506  HIT:      20733  MISS:     166773
LLC WRITEBACK ACCESS:        205  HIT:        173  MISS:         32

CPU 4 cumulative IPC: 1.5626 instructions: 629318459 cycles: 402736793
L1D TOTAL     ACCESS:  174799173  HIT:  174799061  MISS:        112
L1D LOAD      ACCESS:   75369470  HIT:   75369431  MISS:         39
L1D RFO       ACCESS:   99429703  HIT:   99429630  MISS:         73
L1D PREFETCH  ACCESS:          0  HIT:          0  MISS:          0
L1D WRITEBACK ACCESS:          0  HIT:          0  MISS:          0
L1I TOTAL     ACCESS:  136877551  HIT:  136868094  MISS:       9457
L1I LOAD      ACCESS:  136877551  HIT:  136868094  MISS:       9457
L1I RFO       ACCESS:          0  HIT:          0  MISS:          0
L1I PREFETCH  ACCESS:          0  HIT:          0  MISS:          0
L1I WRITEBACK ACCESS:          0  HIT:          0  MISS:          0
L2C TOTAL     ACCESS:      10002  HIT:       8814  MISS:       1188
L2C LOAD      ACCESS:       9496  HIT:       8743  MISS:        753
L2C RFO       ACCESS:         73  HIT:          7  MISS:         66
L2C PREFETCH  ACCESS:        433  HIT:         64  MISS:        369
L2C WRITEBACK ACCESS:          0  HIT:          0  MISS:          0

L2C Best-offset prefetcher final stats
LLC TOTAL     ACCESS:       1188  HIT:          0  MISS:       1188
LLC LOAD      ACCESS:        643  HIT:          0  MISS:        643
LLC RFO       ACCESS:         66  HIT:          0  MISS:         66
LLC PREFETCH  ACCESS:        479  HIT:          0  MISS:        479
LLC WRITEBACK ACCESS:          0  HIT:          0  MISS:          0

CPU 5 cumulative IPC: 0.748728 instructions: 301540463 cycles: 402736793
L1D TOTAL     ACCESS:  113591019  HIT:  113537673  MISS:      53346
L1D LOAD      ACCESS:   48429669  HIT:   48378928  MISS:      50741
L1D RFO       ACCESS:   65161350  HIT:   65158745  MISS:       2605
L1D PREFETCH  ACCESS:          0  HIT:          0  MISS:          0
L1D WRITEBACK ACCESS:          0  HIT:          0  MISS:          0
L1I TOTAL     ACCESS:   80887626  HIT:   80879174  MISS:       8452
L1I LOAD      ACCESS:   80887626  HIT:   80879174  MISS:       8452
L1I RFO       ACCESS:          0  HIT:          0  MISS:          0
L1I PREFETCH  ACCESS:          0  HIT:          0  MISS:          0
L1I WRITEBACK ACCESS:          0  HIT:          0  MISS:          0
L2C TOTAL     ACCESS:      84122  HIT:      61733  MISS:      22389
L2C LOAD      ACCESS:      59172  HIT:      47494  MISS:      11678
L2C RFO       ACCESS:       2605  HIT:       1056  MISS:       1549
L2C PREFETCH  ACCESS:      13539  HIT:       4472  MISS:       9067
L2C WRITEBACK ACCESS:       8806  HIT:       8711  MISS:         95

L2C Best-offset prefetcher final stats
LLC TOTAL     ACCESS:      25043  HIT:         69  MISS:      24974
LLC LOAD      ACCESS:      11227  HIT:         10  MISS:      11217
LLC RFO       ACCESS:       1549  HIT:          9  MISS:       1540
LLC PREFETCH  ACCESS:       9522  HIT:          3  MISS:       9519
LLC WRITEBACK ACCESS:       2745  HIT:         47  MISS:       2698

CPU 6 cumulative IPC: 0.699567 instructions: 281741229 cycles: 402736793
L1D TOTAL     ACCESS:   70091634  HIT:   68849920  MISS:    1241714
L1D LOAD      ACCESS:   48988607  HIT:   48230229  MISS:     758378
L1D RFO       ACCESS:   21103027  HIT:   20619691  MISS:     483336
L1D PREFETCH  ACCESS:          0  HIT:          0  MISS:          0
L1D WRITEBACK ACCESS:          0  HIT:          0  MISS:          0
L1I TOTAL     ACCESS:   88653718  HIT:   88624977  MISS:      28741
L1I LOAD      ACCESS:   88653718  HIT:   88624977  MISS:      28741
L1I RFO       ACCESS:          0  HIT:          0  MISS:          0
L1I PREFETCH  ACCESS:          0  HIT:          0  MISS:          0
L1I WRITEBACK ACCESS:          0  HIT:          0  MISS:          0
L2C TOTAL     ACCESS:    2082057  HIT:    1529807  MISS:     552250
L2C LOAD      ACCESS:     787119  HIT:     699904  MISS:      87215
L2C RFO       ACCESS:     483336  HIT:     198129  MISS:     285207
L2C PREFETCH  ACCESS:     207962  HIT:      28755  MISS:     179207
L2C WRITEBACK ACCESS:     603640  HIT:     603019  MISS:        621

L2C Best-offset prefetcher final stats
LLC TOTAL     ACCESS:     904891  HIT:     665543  MISS:     239348
LLC LOAD      ACCESS:      74063  HIT:      46782  MISS:      27281
LLC RFO       ACCESS:     285172  HIT:     208090  MISS:      77082
LLC PREFETCH  ACCESS:     193542  HIT:      96538  MISS:      97004
LLC WRITEBACK ACCESS:     352114  HIT:     314133  MISS:      37981

CPU 7 cumulative IPC: 0.393812 instructions: 158602438 cycles: 402736793
L1D TOTAL     ACCESS:   37225440  HIT:   29266802  MISS:    7958638
L1D LOAD      ACCESS:   26995053  HIT:   19327153  MISS:    7667900
L1D RFO       ACCESS:   10230387  HIT:    9939649  MISS:     290738
L1D PREFETCH  ACCESS:          0  HIT:          0  MISS:          0
L1D WRITEBACK ACCESS:          0  HIT:          0  MISS:          0
L1I TOTAL     ACCESS:   69618965  HIT:   69252702  MISS:     366263
L1I LOAD      ACCESS:   69618965  HIT:   69252702  MISS:     366263
L1I RFO       ACCESS:          0  HIT:          0  MISS:          0
L1I PREFETCH  ACCESS:          0  HIT:          0  MISS:          0
L1I WRITEBACK ACCESS:          0  HIT:          0  MISS:          0
L2C TOTAL     ACCESS:   11351083  HIT:    5195315  MISS:    6155768
L2C LOAD      ACCESS:    8034116  HIT:    4294711  MISS:    3739405
L2C RFO       ACCESS:     290731  HIT:      54994  MISS:     235737
L2C PREFETCH  ACCESS:    2563884  HIT:     383389  MISS:    2180495
L2C WRITEBACK ACCESS:     462352  HIT:     462221  MISS:        131

L2C Best-offset prefetcher final stats
LLC TOTAL     ACCESS:    6486111  HIT:    6161420  MISS:     324691
LLC LOAD      ACCESS:    3679788  HIT:    3619389  MISS:      60399
LLC RFO       ACCESS:     235216  HIT:      20766  MISS:     214450
LLC PREFETCH  ACCESS:    2240624  HIT:    2193798  MISS:      46826
LLC WRITEBACK ACCESS:     330483  HIT:     327467  MISS:       3016

Region of Interest Statistics

CPU 0 cumulative IPC: 1.58511 instructions: 100000000 cycles: 63087222
L1D TOTAL     ACCESS:   28275047  HIT:   28274947  MISS:        100
L1D LOAD      ACCESS:   12178560  HIT:   12178527  MISS:         33
L1D RFO       ACCESS:   16096487  HIT:   16096420  MISS:         67
L1D PREFETCH  ACCESS:          0  HIT:          0  MISS:          0
L1D WRITEBACK ACCESS:          0  HIT:          0  MISS:          0
L1D PREFETCH  REQUESTED:          0  ISSUED:          0  USEFUL:          0  USELESS:          0
L1I TOTAL     ACCESS:   21784446  HIT:   21783234  MISS:       1212
L1I LOAD      ACCESS:   21784446  HIT:   21783234  MISS:       1212
L1I RFO       ACCESS:          0  HIT:          0  MISS:          0
L1I PREFETCH  ACCESS:          0  HIT:          0  MISS:          0
L1I WRITEBACK ACCESS:          0  HIT:          0  MISS:          0
L1I PREFETCH  REQUESTED:          0  ISSUED:          0  USEFUL:          0  USELESS:          0
L2C TOTAL     ACCESS:       1701  HIT:        603  MISS:       1098
L2C LOAD      ACCESS:       1245  HIT:        546  MISS:        699
L2C RFO       ACCESS:         67  HIT:          8  MISS:         59
L2C PREFETCH  ACCESS:        389  HIT:         49  MISS:        340
L2C WRITEBACK ACCESS:          0  HIT:          0  MISS:          0
L2C PREFETCH  REQUESTED:       1395  ISSUED:       1395  USEFUL:        455  USELESS:          0
LLC TOTAL     ACCESS:       1099  HIT:          1  MISS:       1098
LLC LOAD      ACCESS:        602  HIT:          1  MISS:        601
LLC RFO       ACCESS:         59  HIT:          0  MISS:         59
LLC PREFETCH  ACCESS:        438  HIT:          0  MISS:        438
LLC WRITEBACK ACCESS:          0  HIT:          0  MISS:          0
LLC PREFETCH  REQUESTED:          0  ISSUED:          0  USEFUL:     603312  USELESS:    7716626
Major fault: 0 Minor fault: 50

CPU 1 cumulative IPC: 0.248301 instructions: 100000001 cycles: 402736792
L1D TOTAL     ACCESS:   23203748  HIT:    8034397  MISS:   15169351
L1D LOAD      ACCESS:   21181785  HIT:    6051958  MISS:   15129827
L1D RFO       ACCESS:    2021963  HIT:    1982439  MISS:      39524
L1D PREFETCH  ACCESS:          0  HIT:          0  MISS:          0
L1D WRITEBACK ACCESS:          0  HIT:          0  MISS:          0
L1D PREFETCH  REQUESTED:          0  ISSUED:          0  USEFUL:          0  USELESS:          0
L1I TOTAL     ACCESS:   21604158  HIT:   21604158  MISS:          0
L1I LOAD      ACCESS:   21604158  HIT:   21604158  MISS:          0
L1I RFO       ACCESS:          0  HIT:          0  MISS:          0
L1I PREFETCH  ACCESS:          0  HIT:          0  MISS:          0
L1I WRITEBACK ACCESS:          0  HIT:          0  MISS:          0
L1I PREFETCH  REQUESTED:          0  ISSUED:          0  USEFUL:          0  USELESS:          0
L2C TOTAL     ACCESS:   25899942  HIT:    5437533  MISS:   20462409
L2C LOAD      ACCESS:   15129796  HIT:    4788650  MISS:   10341146
L2C RFO       ACCESS:      39523  HIT:        788  MISS:      38735
L2C PREFETCH  ACCESS:   10386148  HIT:     303922  MISS:   10082226
L2C WRITEBACK ACCESS:     344475  HIT:     344173  MISS:        302
L2C PREFETCH  REQUESTED:   14422012  ISSUED:   14422012  USEFUL:    5112279  USELESS:    7360517
LLC TOTAL     ACCESS:   21992481  HIT:   15812058  MISS:    6180423
LLC LOAD      ACCESS:   10074133  HIT:    8806495  MISS:    1267638
LLC RFO       ACCESS:      38735  HIT:      37168  MISS:       1567
LLC PREFETCH  ACCESS:   11547639  HIT:    6636421  MISS:    4911218
LLC WRITEBACK ACCESS:     331974  HIT:     331974  MISS:          0
LLC PREFETCH  REQUESTED:          0  ISSUED:          0  USEFUL:     603312  USELESS:    7716626
Major fault: 0 Minor fault: 102095

CPU 2 cumulative IPC: 1.1799 instructions: 100000001 cycles: 84753281
L1D TOTAL     ACCESS:   23553179  HIT:   22194104  MISS:    1359075
L1D LOAD      ACCESS:   20229747  HIT:   19153866  MISS:    1075881
L1D RFO       ACCESS:    3323432  HIT:    3040238  MISS:     283194
L1D PREFETCH  ACCESS:          0  HIT:          0  MISS:          0
L1D WRITEBACK ACCESS:          0  HIT:          0  MISS:          0
L1D PREFETCH  REQUESTED:          0  ISSUED:          0  USEFUL:          0  USELESS:          0
L1I TOTAL     ACCESS:   26932064  HIT:   26929474  MISS:       2590
L1I LOAD      ACCESS:   26932064  HIT:   26929474  MISS:       2590
L1I RFO       ACCESS:          0  HIT:          0  MISS:          0
L1I PREFETCH  ACCESS:          0  HIT:          0  MISS:          0
L1I WRITEBACK ACCESS:          0  HIT:          0  MISS:          0
L1I PREFETCH  REQUESTED:          0  ISSUED:          0  USEFUL:          0  USELESS:          0
L2C TOTAL     ACCESS:    2514837  HIT:    1511515  MISS:    1003322
L2C LOAD      ACCESS:    1078431  HIT:     958221  MISS:     120210
L2C RFO       ACCESS:     283194  HIT:      26463  MISS:     256731
L2C PREFETCH  ACCESS:     632211  HIT:       7566  MISS:     624645
L2C WRITEBACK ACCESS:     521001  HIT:     519265  MISS:       1736
L2C PREFETCH  REQUESTED:    4151096  ISSUED:    4147588  USEFUL:    3516336  USELESS:     180294
LLC TOTAL     ACCESS:    1493253  HIT:    1044739  MISS:     448514
LLC LOAD      ACCESS:     100161  HIT:      66765  MISS:      33396
LLC RFO       ACCESS:     256730  HIT:      87467  MISS:     169263
LLC PREFETCH  ACCESS:     651284  HIT:     405501  MISS:     245783
LLC WRITEBACK ACCESS:     485078  HIT:     485006  MISS:         72
LLC PREFETCH  REQUESTED:          0  ISSUED:          0  USEFUL:     603312  USELESS:    7716626
Major fault: 0 Minor fault: 10906

CPU 3 cumulative IPC: 0.575275 instructions: 100000003 cycles: 173829752
L1D TOTAL     ACCESS:   29669136  HIT:   28744427  MISS:     924709
L1D LOAD      ACCESS:   27809146  HIT:   26884944  MISS:     924202
L1D RFO       ACCESS:    1859990  HIT:    1859483  MISS:        507
L1D PREFETCH  ACCESS:          0  HIT:          0  MISS:          0
L1D WRITEBACK ACCESS:          0  HIT:          0  MISS:          0
L1D PREFETCH  REQUESTED:          0  ISSUED:          0  USEFUL:          0  USELESS:          0
L1I TOTAL     ACCESS:   33668524  HIT:   33668524  MISS:          0
L1I LOAD      ACCESS:   33668524  HIT:   33668524  MISS:          0
L1I RFO       ACCESS:          0  HIT:          0  MISS:          0
L1I PREFETCH  ACCESS:          0  HIT:          0  MISS:          0
L1I WRITEBACK ACCESS:          0  HIT:          0  MISS:          0
L1I PREFETCH  REQUESTED:          0  ISSUED:          0  USEFUL:          0  USELESS:          0
L2C TOTAL     ACCESS:    1008647  HIT:     918963  MISS:      89684
L2C LOAD      ACCESS:     924202  HIT:     909871  MISS:      14331
L2C RFO       ACCESS:        507  HIT:        441  MISS:         66
L2C PREFETCH  ACCESS:      83432  HIT:       8146  MISS:      75286
L2C WRITEBACK ACCESS:        506  HIT:        505  MISS:          1
L2C PREFETCH  REQUESTED:     230489  ISSUED:     230489  USEFUL:     194180  USELESS:      11388
LLC TOTAL     ACCESS:      89753  HIT:       8120  MISS:      81633
LLC LOAD      ACCESS:      14080  HIT:       4285  MISS:       9795
LLC RFO       ACCESS:         66  HIT:          3  MISS:         63
LLC PREFETCH  ACCESS:      75537  HIT:       3781  MISS:      71756
LLC WRITEBACK ACCESS:         70  HIT:         51  MISS:         19
LLC PREFETCH  REQUESTED:          0  ISSUED:          0  USEFUL:     603312  USELESS:    7716626
Major fault: 0 Minor fault: 3388

CPU 4 cumulative IPC: 1.53304 instructions: 100000001 cycles: 65229751
L1D TOTAL     ACCESS:   27838913  HIT:   27838824  MISS:         89
L1D LOAD      ACCESS:   12014226  HIT:   12014192  MISS:         34
L1D RFO       ACCESS:   15824687  HIT:   15824632  MISS:         55
L1D PREFETCH  ACCESS:          0  HIT:          0  MISS:          0
L1D WRITEBACK ACCESS:          0  HIT:          0  MISS:          0
L1D PREFETCH  REQUESTED:          0  ISSUED:          0  USEFUL:          0  USELESS:          0
L1I TOTAL     ACCESS:   21837660  HIT:   21835313  MISS:       2347
L1I LOAD      ACCESS:   21837660  HIT:   21835313  MISS:       2347
L1I RFO       ACCESS:          0  HIT:          0  MISS:          0
L1I PREFETCH  ACCESS:          0  HIT:          0  MISS:          0
L1I WRITEBACK ACCESS:          0  HIT:          0  MISS:          0
L1I PREFETCH  REQUESTED:          0  ISSUED:          0  USEFUL:          0  USELESS:          0
L2C TOTAL     ACCESS:       2822  HIT:       1749  MISS:       1073
L2C LOAD      ACCESS:       2381  HIT:       1695  MISS:        686
L2C RFO       ACCESS:         55  HIT:          7  MISS:         48
L2C PREFETCH  ACCESS:        386  HIT:         47  MISS:        339
L2C WRITEBACK ACCESS:          0  HIT:          0  MISS:          0
L2C PREFETCH  REQUESTED:       1371  ISSUED:       1371  USEFUL:        462  USELESS:          0
LLC TOTAL     ACCESS:       1073  HIT:          0  MISS:       1073
LLC LOAD      ACCESS:        591  HIT:          0  MISS:        591
LLC RFO       ACCESS:         48  HIT:          0  MISS:         48
LLC PREFETCH  ACCESS:        434  HIT:          0  MISS:        434
LLC WRITEBACK ACCESS:          0  HIT:          0  MISS:          0
LLC PREFETCH  REQUESTED:          0  ISSUED:          0  USEFUL:     603312  USELESS:    7716626
Major fault: 0 Minor fault: 48

CPU 5 cumulative IPC: 0.796224 instructions: 100000000 cycles: 125592844
L1D TOTAL     ACCESS:   37925062  HIT:   37912750  MISS:      12312
L1D LOAD      ACCESS:   15744204  HIT:   15732468  MISS:      11736
L1D RFO       ACCESS:   22180858  HIT:   22180282  MISS:        576
L1D PREFETCH  ACCESS:          0  HIT:          0  MISS:          0
L1D WRITEBACK ACCESS:          0  HIT:          0  MISS:          0
L1D PREFETCH  REQUESTED:          0  ISSUED:          0  USEFUL:          0  USELESS:          0
L1I TOTAL     ACCESS:   27101235  HIT:   27099584  MISS:       1651
L1I LOAD      ACCESS:   27101235  HIT:   27099584  MISS:       1651
L1I RFO       ACCESS:          0  HIT:          0  MISS:          0
L1I PREFETCH  ACCESS:          0  HIT:          0  MISS:          0
L1I WRITEBACK ACCESS:          0  HIT:          0  MISS:          0
L1I PREFETCH  REQUESTED:          0  ISSUED:          0  USEFUL:          0  USELESS:          0
L2C TOTAL     ACCESS:      18804  HIT:      14086  MISS:       4718
L2C LOAD      ACCESS:      13384  HIT:      10931  MISS:       2453
L2C RFO       ACCESS:        576  HIT:        231  MISS:        345
L2C PREFETCH  ACCESS:       2879  HIT:        971  MISS:       1908
L2C WRITEBACK ACCESS:       1965  HIT:       1953  MISS:         12
L2C PREFETCH  REQUESTED:      17175  ISSUED:      17175  USEFUL:       4282  USELESS:       5448
LLC TOTAL     ACCESS:       5114  HIT:          4  MISS:       5110
LLC LOAD      ACCESS:       2372  HIT:          1  MISS:       2371
LLC RFO       ACCESS:        345  HIT:          1  MISS:        344
LLC PREFETCH  ACCESS:       1989  HIT:          0  MISS:       1989
LLC WRITEBACK ACCESS:        408  HIT:          2  MISS:        406
LLC PREFETCH  REQUESTED:          0  ISSUED:          0  USEFUL:     603312  USELESS:    7716626
Major fault: 0 Minor fault: 1547

CPU 6 cumulative IPC: 0.711191 instructions: 100000000 cycles: 140609128
L1D TOTAL     ACCESS:   24923678  HIT:   24489923  MISS:     433755
L1D LOAD      ACCESS:   17320520  HIT:   17054502  MISS:     266018
L1D RFO       ACCESS:    7603158  HIT:    7435421  MISS:     167737
L1D PREFETCH  ACCESS:          0  HIT:          0  MISS:          0
L1D WRITEBACK ACCESS:          0  HIT:          0  MISS:          0
L1D PREFETCH  REQUESTED:          0  ISSUED:          0  USEFUL:          0  USELESS:          0
L1I TOTAL     ACCESS:   30941719  HIT:   30931674  MISS:      10045
L1I LOAD      ACCESS:   30941719  HIT:   30931674  MISS:      10045
L1I RFO       ACCESS:          0  HIT:          0  MISS:          0
L1I PREFETCH  ACCESS:          0  HIT:          0  MISS:          0
L1I WRITEBACK ACCESS:          0  HIT:          0  MISS:          0
L1I PREFETCH  REQUESTED:          0  ISSUED:          0  USEFUL:          0  USELESS:          0
L2C TOTAL     ACCESS:     729792  HIT:     537454  MISS:     192338
L2C LOAD      ACCESS:     276063  HIT:     247138  MISS:      28925
L2C RFO       ACCESS:     167737  HIT:      69601  MISS:      98136
L2C PREFETCH  ACCESS:      75592  HIT:      10507  MISS:      65085
L2C WRITEBACK ACCESS:     210400  HIT:     210208  MISS:        192
L2C PREFETCH  REQUESTED:     260005  ISSUED:     260005  USEFUL:     182129  USELESS:      17693
LLC TOTAL     ACCESS:     314987  HIT:     236929  MISS:      78058
LLC LOAD      ACCESS:      25908  HIT:      17835  MISS:       8073
LLC RFO       ACCESS:      98117  HIT:      72433  MISS:      25684
LLC PREFETCH  ACCESS:      68553  HIT:      34762  MISS:      33791
LLC WRITEBACK ACCESS:     122409  HIT:     111899  MISS:      10510
LLC PREFETCH  REQUESTED:          0  ISSUED:          0  USEFUL:     603312  USELESS:    7716626
Major fault: 0 Minor fault: 1243

CPU 7 cumulative IPC: 0.385612 instructions: 100000002 cycles: 259328268
L1D TOTAL     ACCESS:   24339527  HIT:   19289134  MISS:    5050393
L1D LOAD      ACCESS:   17375241  HIT:   12527930  MISS:    4847311
L1D RFO       ACCESS:    6964286  HIT:    6761204  MISS:     203082
L1D PREFETCH  ACCESS:          0  HIT:          0  MISS:          0
L1D WRITEBACK ACCESS:          0  HIT:          0  MISS:          0
L1D PREFETCH  REQUESTED:          0  ISSUED:          0  USEFUL:          0  USELESS:          0
L1I TOTAL     ACCESS:   43678380  HIT:   43426458  MISS:     251922
L1I LOAD      ACCESS:   43678380  HIT:   43426458  MISS:     251922
L1I RFO       ACCESS:          0  HIT:          0  MISS:          0
L1I PREFETCH  ACCESS:          0  HIT:          0  MISS:          0
L1I WRITEBACK ACCESS:          0  HIT:          0  MISS:          0
L1I PREFETCH  REQUESTED:          0  ISSUED:          0  USEFUL:          0  USELESS:          0
L2C TOTAL     ACCESS:    7248644  HIT:    3336315  MISS:    3912329
L2C LOAD      ACCESS:    5099194  HIT:    2711139  MISS:    2388055
L2C RFO       ACCESS:     203076  HIT:      35380  MISS:     167696
L2C PREFETCH  ACCESS:    1632379  HIT:     275893  MISS:    1356486
L2C WRITEBACK ACCESS:     313995  HIT:     313903  MISS:         92
L2C PREFETCH  REQUESTED:    3502354  ISSUED:    3502354  USEFUL:     456998  USELESS:    2110541
LLC TOTAL     ACCESS:    4142212  HIT:    3920911  MISS:     221301
LLC LOAD      ACCESS:    2339679  HIT:    2302997  MISS:      36682
LLC RFO       ACCESS:     167250  HIT:      13624  MISS:     153626
LLC PREFETCH  ACCESS:    1405303  HIT:    1376036  MISS:      29267
LLC WRITEBACK ACCESS:     229980  HIT:     228254  MISS:       1726
LLC PREFETCH  REQUESTED:          0  ISSUED:          0  USEFUL:     603312  USELESS:    7716626
Major fault: 0 Minor fault: 4248

L2C Best-offset prefetcher final stats

L2C Best-offset prefetcher final stats

L2C Best-offset prefetcher final stats

L2C Best-offset prefetcher final stats

L2C Best-offset prefetcher final stats

L2C Best-offset prefetcher final stats

L2C Best-offset prefetcher final stats

L2C Best-offset prefetcher final stats

DRAM Statistics
 CHANNEL 0
 RQ ROW_BUFFER_HIT:    3250160  ROW_BUFFER_MISS:    1692537
 DBUS_CONGESTED:    5762401
 WQ ROW_BUFFER_HIT:     146088  ROW_BUFFER_MISS:     750117  FULL:          0

 CHANNEL 1
 RQ ROW_BUFFER_HIT:    3248237  ROW_BUFFER_MISS:    1701009
 DBUS_CONGESTED:    5762401
 WQ ROW_BUFFER_HIT:     146128  ROW_BUFFER_MISS:     751452  FULL:          0

 AVG_CONGESTED_CYCLE: 13
