
*** ChampSim Multicore Out-of-Order Simulator ***

Warmup Instructions: 20000000
Simulation Instructions: 100000000
Number of CPUs: 8
LLC sets: 16384
LLC ways: 16
Off-chip DRAM Size: 8192 MB Channels: 2 Width: 64-bit Data Rate: 1600 MT/s

CPU 0 runs /scratch/user/djimenez/champsim-traces/speccpu2017/xz/605.mcf_s/605.mcf_s-1554B.champsimtrace.xz
CPU 1 runs /scratch/user/djimenez/champsim-traces/speccpu2017/xz/603.bwaves_s/603.bwaves_s-1740B.champsimtrace.xz
CPU 2 runs /scratch/user/djimenez/champsim-traces/speccpu2017/xz/623.xalancbmk_s/623.xalancbmk_s-165B.champsimtrace.xz
CPU 3 runs /scratch/user/djimenez/champsim-traces/speccpu2017/xz/641.leela_s/641.leela_s-800B.champsimtrace.xz
CPU 4 runs /scratch/user/djimenez/champsim-traces/speccpu2017/xz/620.omnetpp_s/620.omnetpp_s-141B.champsimtrace.xz
CPU 5 runs /scratch/user/djimenez/champsim-traces/speccpu2017/xz/625.x264_s/625.x264_s-33B.champsimtrace.xz
CPU 6 runs /scratch/user/djimenez/champsim-traces/speccpu2017/xz/625.x264_s/625.x264_s-39B.champsimtrace.xz
CPU 7 runs /scratch/user/djimenez/champsim-traces/speccpu2017/xz/641.leela_s/641.leela_s-602B.champsimtrace.xz
L2C Best-offset prefetcher
L2C Best-offset prefetcher
L2C Best-offset prefetcher
L2C Best-offset prefetcher
L2C Best-offset prefetcher
L2C Best-offset prefetcher
L2C Best-offset prefetcher
L2C Best-offset prefetcher
Heartbeat CPU 5 instructions: 10000000 cycles: 3805312 heartbeat IPC: 2.62791 cumulative IPC: 2.62791 (Simulation time: 0 hr 3 min 3 sec) 
Heartbeat CPU 6 instructions: 10000003 cycles: 4179045 heartbeat IPC: 2.39289 cumulative IPC: 2.39289 (Simulation time: 0 hr 3 min 22 sec) 
Heartbeat CPU 2 instructions: 10000001 cycles: 4184944 heartbeat IPC: 2.38952 cumulative IPC: 2.38952 (Simulation time: 0 hr 3 min 23 sec) 
Heartbeat CPU 1 instructions: 10000001 cycles: 5272862 heartbeat IPC: 1.8965 cumulative IPC: 1.8965 (Simulation time: 0 hr 4 min 18 sec) 
Heartbeat CPU 0 instructions: 10000001 cycles: 5488039 heartbeat IPC: 1.82214 cumulative IPC: 1.82214 (Simulation time: 0 hr 4 min 29 sec) 
Heartbeat CPU 3 instructions: 10000001 cycles: 6352614 heartbeat IPC: 1.57416 cumulative IPC: 1.57416 (Simulation time: 0 hr 5 min 15 sec) 
Heartbeat CPU 7 instructions: 10000000 cycles: 6397824 heartbeat IPC: 1.56303 cumulative IPC: 1.56303 (Simulation time: 0 hr 5 min 17 sec) 
Heartbeat CPU 4 instructions: 10000000 cycles: 7409812 heartbeat IPC: 1.34956 cumulative IPC: 1.34956 (Simulation time: 0 hr 6 min 9 sec) 
Heartbeat CPU 5 instructions: 20000000 cycles: 7613454 heartbeat IPC: 2.62595 cumulative IPC: 2.62693 (Simulation time: 0 hr 6 min 19 sec) 
Heartbeat CPU 2 instructions: 20000000 cycles: 8357204 heartbeat IPC: 2.39678 cumulative IPC: 2.39314 (Simulation time: 0 hr 6 min 56 sec) 
Heartbeat CPU 6 instructions: 20000000 cycles: 8375235 heartbeat IPC: 2.38311 cumulative IPC: 2.38799 (Simulation time: 0 hr 6 min 57 sec) 
Heartbeat CPU 1 instructions: 20000000 cycles: 10547708 heartbeat IPC: 1.89579 cumulative IPC: 1.89615 (Simulation time: 0 hr 8 min 47 sec) 
Heartbeat CPU 0 instructions: 20000000 cycles: 10937848 heartbeat IPC: 1.83493 cumulative IPC: 1.82851 (Simulation time: 0 hr 9 min 6 sec) 
Heartbeat CPU 5 instructions: 30000003 cycles: 11519924 heartbeat IPC: 2.55986 cumulative IPC: 0.868062 (Simulation time: 0 hr 9 min 35 sec) 
Heartbeat CPU 6 instructions: 30000000 cycles: 12480216 heartbeat IPC: 2.43606 cumulative IPC: 0.801268 (Simulation time: 0 hr 10 min 24 sec) 
Heartbeat CPU 2 instructions: 30000001 cycles: 12522047 heartbeat IPC: 2.40105 cumulative IPC: 0.798592 (Simulation time: 0 hr 10 min 26 sec) 
Heartbeat CPU 3 instructions: 20000000 cycles: 12676173 heartbeat IPC: 1.58139 cumulative IPC: 1.57776 (Simulation time: 0 hr 10 min 34 sec) 
Heartbeat CPU 7 instructions: 20000000 cycles: 12731262 heartbeat IPC: 1.57892 cumulative IPC: 1.57094 (Simulation time: 0 hr 10 min 37 sec) 
Heartbeat CPU 4 instructions: 20000000 cycles: 14843157 heartbeat IPC: 1.34529 cumulative IPC: 1.34742 (Simulation time: 0 hr 12 min 21 sec) 

Warmup complete CPU 0 instructions: 27197955 cycles: 14843158 (Simulation time: 0 hr 12 min 21 sec) 
Warmup complete CPU 1 instructions: 28146514 cycles: 14843158 (Simulation time: 0 hr 12 min 21 sec) 
Warmup complete CPU 2 instructions: 35576316 cycles: 14843158 (Simulation time: 0 hr 12 min 21 sec) 
Warmup complete CPU 3 instructions: 23429238 cycles: 14843158 (Simulation time: 0 hr 12 min 21 sec) 
Warmup complete CPU 4 instructions: 20000002 cycles: 14843158 (Simulation time: 0 hr 12 min 21 sec) 
Warmup complete CPU 5 instructions: 38449738 cycles: 14843157 (Simulation time: 0 hr 12 min 21 sec) 
Warmup complete CPU 6 instructions: 35631379 cycles: 14843157 (Simulation time: 0 hr 12 min 21 sec) 
Warmup complete CPU 7 instructions: 23351608 cycles: 14843157 (Simulation time: 0 hr 12 min 21 sec) 

Heartbeat CPU 5 instructions: 40000000 cycles: 16011387 heartbeat IPC: 2.22645 cumulative IPC: 1.32702 (Simulation time: 0 hr 12 min 51 sec) 
Heartbeat CPU 1 instructions: 30000003 cycles: 16762779 heartbeat IPC: 1.60899 cumulative IPC: 0.965549 (Simulation time: 0 hr 13 min 9 sec) 
Heartbeat CPU 6 instructions: 40000000 cycles: 17892908 heartbeat IPC: 1.84751 cumulative IPC: 1.43245 (Simulation time: 0 hr 13 min 38 sec) 
Heartbeat CPU 2 instructions: 40000000 cycles: 19468888 heartbeat IPC: 1.4395 cumulative IPC: 0.956321 (Simulation time: 0 hr 14 min 18 sec) 
Heartbeat CPU 0 instructions: 30000003 cycles: 22559613 heartbeat IPC: 0.860455 cumulative IPC: 0.363126 (Simulation time: 0 hr 15 min 46 sec) 
Heartbeat CPU 5 instructions: 50000003 cycles: 23500753 heartbeat IPC: 1.33523 cumulative IPC: 1.33412 (Simulation time: 0 hr 16 min 11 sec) 
Heartbeat CPU 6 instructions: 50000003 cycles: 25028969 heartbeat IPC: 1.40133 cumulative IPC: 1.41065 (Simulation time: 0 hr 16 min 50 sec) 
Heartbeat CPU 1 instructions: 40000000 cycles: 26339944 heartbeat IPC: 1.04415 cumulative IPC: 1.03103 (Simulation time: 0 hr 17 min 25 sec) 
Heartbeat CPU 7 instructions: 30000000 cycles: 29966272 heartbeat IPC: 0.580214 cumulative IPC: 0.439618 (Simulation time: 0 hr 19 min 0 sec) 
Heartbeat CPU 2 instructions: 50000003 cycles: 29976099 heartbeat IPC: 0.951728 cumulative IPC: 0.953132 (Simulation time: 0 hr 19 min 0 sec) 
Heartbeat CPU 3 instructions: 30000001 cycles: 30327517 heartbeat IPC: 0.566529 cumulative IPC: 0.424348 (Simulation time: 0 hr 19 min 9 sec) 
Heartbeat CPU 5 instructions: 60000000 cycles: 30937981 heartbeat IPC: 1.34459 cumulative IPC: 1.33896 (Simulation time: 0 hr 19 min 25 sec) 
Heartbeat CPU 6 instructions: 60000000 cycles: 32137135 heartbeat IPC: 1.40683 cumulative IPC: 1.40908 (Simulation time: 0 hr 19 min 54 sec) 
Heartbeat CPU 1 instructions: 50000003 cycles: 35690458 heartbeat IPC: 1.06946 cumulative IPC: 1.04826 (Simulation time: 0 hr 21 min 21 sec) 
Heartbeat CPU 5 instructions: 70000003 cycles: 38397815 heartbeat IPC: 1.34051 cumulative IPC: 1.33945 (Simulation time: 0 hr 22 min 28 sec) 
Heartbeat CPU 6 instructions: 70000001 cycles: 39392279 heartbeat IPC: 1.37833 cumulative IPC: 1.39999 (Simulation time: 0 hr 22 min 55 sec) 
Heartbeat CPU 2 instructions: 60000000 cycles: 40403010 heartbeat IPC: 0.959056 cumulative IPC: 0.955549 (Simulation time: 0 hr 23 min 22 sec) 
Heartbeat CPU 1 instructions: 60000000 cycles: 44979427 heartbeat IPC: 1.07655 cumulative IPC: 1.05698 (Simulation time: 0 hr 25 min 18 sec) 
Heartbeat CPU 5 instructions: 80000000 cycles: 45877029 heartbeat IPC: 1.33704 cumulative IPC: 1.33887 (Simulation time: 0 hr 25 min 42 sec) 
Heartbeat CPU 6 instructions: 80000000 cycles: 46630245 heartbeat IPC: 1.3816 cumulative IPC: 1.39581 (Simulation time: 0 hr 26 min 1 sec) 
Heartbeat CPU 0 instructions: 40000000 cycles: 50604834 heartbeat IPC: 0.356567 cumulative IPC: 0.357982 (Simulation time: 0 hr 27 min 44 sec) 
Heartbeat CPU 2 instructions: 70000000 cycles: 50860122 heartbeat IPC: 0.956287 cumulative IPC: 0.955763 (Simulation time: 0 hr 27 min 51 sec) 
Heartbeat CPU 7 instructions: 40000000 cycles: 52728538 heartbeat IPC: 0.439324 cumulative IPC: 0.439441 (Simulation time: 0 hr 28 min 39 sec) 
Heartbeat CPU 5 instructions: 90000002 cycles: 53352491 heartbeat IPC: 1.33771 cumulative IPC: 1.33864 (Simulation time: 0 hr 28 min 56 sec) 
Heartbeat CPU 3 instructions: 40000000 cycles: 53666489 heartbeat IPC: 0.428468 cumulative IPC: 0.426825 (Simulation time: 0 hr 29 min 3 sec) 
Heartbeat CPU 1 instructions: 70000001 cycles: 53932244 heartbeat IPC: 1.11697 cumulative IPC: 1.07072 (Simulation time: 0 hr 29 min 10 sec) 
Heartbeat CPU 6 instructions: 90000001 cycles: 54017723 heartbeat IPC: 1.35364 cumulative IPC: 1.38786 (Simulation time: 0 hr 29 min 12 sec) 
Heartbeat CPU 4 instructions: 30000003 cycles: 58162738 heartbeat IPC: 0.230843 cumulative IPC: 0.230843 (Simulation time: 0 hr 31 min 30 sec) 
Heartbeat CPU 5 instructions: 100000000 cycles: 60836957 heartbeat IPC: 1.3361 cumulative IPC: 1.33823 (Simulation time: 0 hr 33 min 51 sec) 
Heartbeat CPU 6 instructions: 100000000 cycles: 61232765 heartbeat IPC: 1.38599 cumulative IPC: 1.38757 (Simulation time: 0 hr 34 min 11 sec) 
Heartbeat CPU 2 instructions: 80000000 cycles: 61447684 heartbeat IPC: 0.944504 cumulative IPC: 0.953205 (Simulation time: 0 hr 34 min 24 sec) 
Heartbeat CPU 1 instructions: 80000000 cycles: 63632111 heartbeat IPC: 1.03094 cumulative IPC: 1.06281 (Simulation time: 0 hr 35 min 50 sec) 
Heartbeat CPU 6 instructions: 110000001 cycles: 68313492 heartbeat IPC: 1.41228 cumulative IPC: 1.39084 (Simulation time: 0 hr 37 min 46 sec) 
Heartbeat CPU 5 instructions: 110000000 cycles: 68367015 heartbeat IPC: 1.32801 cumulative IPC: 1.33679 (Simulation time: 0 hr 37 min 47 sec) 
Heartbeat CPU 2 instructions: 90000000 cycles: 71960480 heartbeat IPC: 0.951222 cumulative IPC: 0.95284 (Simulation time: 0 hr 39 min 20 sec) 
Heartbeat CPU 1 instructions: 90000000 cycles: 73185328 heartbeat IPC: 1.04677 cumulative IPC: 1.06018 (Simulation time: 0 hr 39 min 50 sec) 
Heartbeat CPU 7 instructions: 50000003 cycles: 75464683 heartbeat IPC: 0.439828 cumulative IPC: 0.439586 (Simulation time: 0 hr 40 min 41 sec) 
Heartbeat CPU 5 instructions: 120000000 cycles: 76740255 heartbeat IPC: 1.19428 cumulative IPC: 1.31751 (Simulation time: 0 hr 41 min 8 sec) 
Heartbeat CPU 3 instructions: 50000000 cycles: 77103367 heartbeat IPC: 0.426678 cumulative IPC: 0.42677 (Simulation time: 0 hr 41 min 17 sec) 
Heartbeat CPU 6 instructions: 120000000 cycles: 77958637 heartbeat IPC: 1.03679 cumulative IPC: 1.33673 (Simulation time: 0 hr 41 min 38 sec) 
Heartbeat CPU 0 instructions: 50000000 cycles: 78605710 heartbeat IPC: 0.357132 cumulative IPC: 0.357609 (Simulation time: 0 hr 41 min 54 sec) 
Heartbeat CPU 2 instructions: 100000000 cycles: 82605812 heartbeat IPC: 0.939379 cumulative IPC: 0.950725 (Simulation time: 0 hr 43 min 41 sec) 
Heartbeat CPU 6 instructions: 130000003 cycles: 82747198 heartbeat IPC: 2.08831 cumulative IPC: 1.38973 (Simulation time: 0 hr 43 min 45 sec) 
Heartbeat CPU 1 instructions: 100000000 cycles: 83067042 heartbeat IPC: 1.01197 cumulative IPC: 1.0532 (Simulation time: 0 hr 43 min 54 sec) 
Heartbeat CPU 5 instructions: 130000003 cycles: 84467809 heartbeat IPC: 1.29407 cumulative IPC: 1.31491 (Simulation time: 0 hr 44 min 29 sec) 
Finished CPU 6 instructions: 100000002 cycles: 71480864 cumulative IPC: 1.39898 (Simulation time: 0 hr 45 min 14 sec) 
Heartbeat CPU 6 instructions: 140000000 cycles: 89922430 heartbeat IPC: 1.39368 cumulative IPC: 1.39011 (Simulation time: 0 hr 46 min 39 sec) 
Finished CPU 5 instructions: 100000002 cycles: 76155208 cumulative IPC: 1.31311 (Simulation time: 0 hr 47 min 5 sec) 
Heartbeat CPU 5 instructions: 140000000 cycles: 92200935 heartbeat IPC: 1.29314 cumulative IPC: 1.31273 (Simulation time: 0 hr 47 min 34 sec) 
Heartbeat CPU 2 instructions: 110000001 cycles: 93142613 heartbeat IPC: 0.949055 cumulative IPC: 0.950501 (Simulation time: 0 hr 47 min 57 sec) 
Heartbeat CPU 1 instructions: 110000000 cycles: 93271075 heartbeat IPC: 0.980005 cumulative IPC: 1.04368 (Simulation time: 0 hr 48 min 0 sec) 
Heartbeat CPU 6 instructions: 150000003 cycles: 97304121 heartbeat IPC: 1.3547 cumulative IPC: 1.38694 (Simulation time: 0 hr 49 min 39 sec) 
Heartbeat CPU 7 instructions: 60000000 cycles: 98124503 heartbeat IPC: 0.44131 cumulative IPC: 0.440055 (Simulation time: 0 hr 49 min 59 sec) 
Heartbeat CPU 5 instructions: 150000000 cycles: 99940925 heartbeat IPC: 1.29199 cumulative IPC: 1.31085 (Simulation time: 0 hr 50 min 45 sec) 
Heartbeat CPU 3 instructions: 60000000 cycles: 100623143 heartbeat IPC: 0.425174 cumulative IPC: 0.426332 (Simulation time: 0 hr 51 min 1 sec) 
Heartbeat CPU 4 instructions: 40000000 cycles: 102766946 heartbeat IPC: 0.224194 cumulative IPC: 0.22747 (Simulation time: 0 hr 51 min 55 sec) 
Heartbeat CPU 1 instructions: 120000000 cycles: 103131154 heartbeat IPC: 1.01419 cumulative IPC: 1.04038 (Simulation time: 0 hr 52 min 3 sec) 
Heartbeat CPU 2 instructions: 120000000 cycles: 103572270 heartbeat IPC: 0.958804 cumulative IPC: 0.951477 (Simulation time: 0 hr 52 min 14 sec) 
Heartbeat CPU 6 instructions: 160000000 cycles: 104237576 heartbeat IPC: 1.44228 cumulative IPC: 1.39123 (Simulation time: 0 hr 52 min 30 sec) 
Heartbeat CPU 0 instructions: 60000000 cycles: 106505991 heartbeat IPC: 0.358419 cumulative IPC: 0.357855 (Simulation time: 0 hr 53 min 27 sec) 
Heartbeat CPU 5 instructions: 160000000 cycles: 107644332 heartbeat IPC: 1.29813 cumulative IPC: 1.30979 (Simulation time: 0 hr 53 min 56 sec) 
Finished CPU 1 instructions: 100000000 cycles: 95981887 cumulative IPC: 1.04186 (Simulation time: 0 hr 55 min 15 sec) 
Heartbeat CPU 6 instructions: 170000000 cycles: 110916472 heartbeat IPC: 1.49725 cumulative IPC: 1.3986 (Simulation time: 0 hr 55 min 17 sec) 
Heartbeat CPU 1 instructions: 130000003 cycles: 112467602 heartbeat IPC: 1.07107 cumulative IPC: 1.04332 (Simulation time: 0 hr 55 min 55 sec) 
Heartbeat CPU 2 instructions: 130000003 cycles: 114243881 heartbeat IPC: 0.937066 cumulative IPC: 0.94993 (Simulation time: 0 hr 56 min 39 sec) 
Heartbeat CPU 5 instructions: 170000001 cycles: 115421204 heartbeat IPC: 1.28586 cumulative IPC: 1.30794 (Simulation time: 0 hr 57 min 8 sec) 
Heartbeat CPU 6 instructions: 180000000 cycles: 117861012 heartbeat IPC: 1.43998 cumulative IPC: 1.40139 (Simulation time: 0 hr 58 min 9 sec) 
Finished CPU 2 instructions: 100000000 cycles: 105262474 cumulative IPC: 0.950006 (Simulation time: 0 hr 59 min 3 sec) 
Heartbeat CPU 7 instructions: 70000001 cycles: 120720343 heartbeat IPC: 0.442559 cumulative IPC: 0.44059 (Simulation time: 0 hr 59 min 18 sec) 
Heartbeat CPU 1 instructions: 140000000 cycles: 122384857 heartbeat IPC: 1.00834 cumulative IPC: 1.04009 (Simulation time: 1 hr 0 min 8 sec) 
Heartbeat CPU 5 instructions: 180000000 cycles: 123089139 heartbeat IPC: 1.30413 cumulative IPC: 1.30767 (Simulation time: 1 hr 0 min 26 sec) 
Heartbeat CPU 3 instructions: 70000000 cycles: 124100037 heartbeat IPC: 0.425951 cumulative IPC: 0.42625 (Simulation time: 1 hr 0 min 55 sec) 
Heartbeat CPU 2 instructions: 140000000 cycles: 124749842 heartbeat IPC: 0.95184 cumulative IPC: 0.950112 (Simulation time: 1 hr 1 min 11 sec) 
Heartbeat CPU 6 instructions: 190000000 cycles: 125120219 heartbeat IPC: 1.37756 cumulative IPC: 1.39983 (Simulation time: 1 hr 1 min 21 sec) 
Heartbeat CPU 5 instructions: 190000002 cycles: 130640732 heartbeat IPC: 1.32422 cumulative IPC: 1.30875 (Simulation time: 1 hr 3 min 53 sec) 
Heartbeat CPU 1 instructions: 150000001 cycles: 131954649 heartbeat IPC: 1.04495 cumulative IPC: 1.04049 (Simulation time: 1 hr 4 min 30 sec) 
Heartbeat CPU 6 instructions: 200000000 cycles: 132055095 heartbeat IPC: 1.44199 cumulative IPC: 1.40232 (Simulation time: 1 hr 4 min 32 sec) 
Heartbeat CPU 0 instructions: 70000001 cycles: 134141594 heartbeat IPC: 0.361852 cumulative IPC: 0.358781 (Simulation time: 1 hr 5 min 23 sec) 
Heartbeat CPU 2 instructions: 150000001 cycles: 135196608 heartbeat IPC: 0.957234 cumulative IPC: 0.95073 (Simulation time: 1 hr 5 min 50 sec) 
Heartbeat CPU 5 instructions: 200000000 cycles: 138135516 heartbeat IPC: 1.33426 cumulative IPC: 1.3103 (Simulation time: 1 hr 7 min 5 sec) 
Heartbeat CPU 6 instructions: 210000000 cycles: 139221611 heartbeat IPC: 1.39538 cumulative IPC: 1.40192 (Simulation time: 1 hr 7 min 31 sec) 
Heartbeat CPU 1 instructions: 160000000 cycles: 141845742 heartbeat IPC: 1.01101 cumulative IPC: 1.0382 (Simulation time: 1 hr 8 min 39 sec) 
Heartbeat CPU 7 instructions: 80000000 cycles: 143193088 heartbeat IPC: 0.444983 cumulative IPC: 0.441359 (Simulation time: 1 hr 9 min 12 sec) 
Heartbeat CPU 5 instructions: 210000001 cycles: 145677666 heartbeat IPC: 1.32588 cumulative IPC: 1.3112 (Simulation time: 1 hr 10 min 14 sec) 
Heartbeat CPU 2 instructions: 160000000 cycles: 145715604 heartbeat IPC: 0.950661 cumulative IPC: 0.950725 (Simulation time: 1 hr 10 min 15 sec) 
Heartbeat CPU 6 instructions: 220000000 cycles: 146256422 heartbeat IPC: 1.4215 cumulative IPC: 1.40297 (Simulation time: 1 hr 10 min 28 sec) 
Heartbeat CPU 4 instructions: 50000001 cycles: 146920384 heartbeat IPC: 0.226483 cumulative IPC: 0.22714 (Simulation time: 1 hr 10 min 44 sec) 
Heartbeat CPU 3 instructions: 80000000 cycles: 147634224 heartbeat IPC: 0.424914 cumulative IPC: 0.426013 (Simulation time: 1 hr 11 min 1 sec) 
Heartbeat CPU 1 instructions: 170000000 cycles: 151835216 heartbeat IPC: 1.00105 cumulative IPC: 1.03549 (Simulation time: 1 hr 13 min 2 sec) 
Heartbeat CPU 6 instructions: 230000001 cycles: 153184974 heartbeat IPC: 1.4433 cumulative IPC: 1.40499 (Simulation time: 1 hr 14 min 13 sec) 
Heartbeat CPU 5 instructions: 220000000 cycles: 153265385 heartbeat IPC: 1.31792 cumulative IPC: 1.31157 (Simulation time: 1 hr 14 min 18 sec) 
Heartbeat CPU 2 instructions: 170000001 cycles: 156147003 heartbeat IPC: 0.958644 cumulative IPC: 0.951309 (Simulation time: 1 hr 16 min 46 sec) 
Heartbeat CPU 6 instructions: 240000000 cycles: 160342942 heartbeat IPC: 1.39704 cumulative IPC: 1.4046 (Simulation time: 1 hr 20 min 28 sec) 
Heartbeat CPU 5 instructions: 230000001 cycles: 160982354 heartbeat IPC: 1.29585 cumulative IPC: 1.31074 (Simulation time: 1 hr 21 min 2 sec) 
Heartbeat CPU 1 instructions: 180000000 cycles: 161788637 heartbeat IPC: 1.00468 cumulative IPC: 1.0334 (Simulation time: 1 hr 21 min 45 sec) 
Heartbeat CPU 0 instructions: 80000000 cycles: 162400698 heartbeat IPC: 0.353868 cumulative IPC: 0.35784 (Simulation time: 1 hr 22 min 17 sec) 
Heartbeat CPU 7 instructions: 90000000 cycles: 165834861 heartbeat IPC: 0.441662 cumulative IPC: 0.441404 (Simulation time: 1 hr 23 min 49 sec) 
Heartbeat CPU 2 instructions: 180000000 cycles: 166613267 heartbeat IPC: 0.955451 cumulative IPC: 0.951595 (Simulation time: 1 hr 24 min 8 sec) 
Heartbeat CPU 6 instructions: 250000001 cycles: 167266709 heartbeat IPC: 1.4443 cumulative IPC: 1.4064 (Simulation time: 1 hr 24 min 24 sec) 
Heartbeat CPU 5 instructions: 240000000 cycles: 168772779 heartbeat IPC: 1.28363 cumulative IPC: 1.30937 (Simulation time: 1 hr 24 min 59 sec) 
Heartbeat CPU 3 instructions: 90000002 cycles: 171056007 heartbeat IPC: 0.426953 cumulative IPC: 0.426154 (Simulation time: 1 hr 25 min 52 sec) 
Heartbeat CPU 1 instructions: 190000002 cycles: 171549123 heartbeat IPC: 1.02454 cumulative IPC: 1.03285 (Simulation time: 1 hr 26 min 3 sec) 
Heartbeat CPU 6 instructions: 260000000 cycles: 174426818 heartbeat IPC: 1.39663 cumulative IPC: 1.40596 (Simulation time: 1 hr 27 min 11 sec) 
Heartbeat CPU 5 instructions: 250000000 cycles: 176429120 heartbeat IPC: 1.30611 cumulative IPC: 1.30921 (Simulation time: 1 hr 27 min 58 sec) 
Heartbeat CPU 2 instructions: 190000001 cycles: 177079269 heartbeat IPC: 0.955475 cumulative IPC: 0.951845 (Simulation time: 1 hr 28 min 14 sec) 
Heartbeat CPU 1 instructions: 200000000 cycles: 181243863 heartbeat IPC: 1.03149 cumulative IPC: 1.03277 (Simulation time: 1 hr 29 min 52 sec) 
Heartbeat CPU 6 instructions: 270000001 cycles: 181339630 heartbeat IPC: 1.44659 cumulative IPC: 1.40765 (Simulation time: 1 hr 29 min 54 sec) 
Heartbeat CPU 5 instructions: 260000000 cycles: 184015264 heartbeat IPC: 1.31819 cumulative IPC: 1.30961 (Simulation time: 1 hr 30 min 58 sec) 
Heartbeat CPU 2 instructions: 200000000 cycles: 187540597 heartbeat IPC: 0.955902 cumulative IPC: 0.952091 (Simulation time: 1 hr 32 min 20 sec) 
Heartbeat CPU 6 instructions: 280000000 cycles: 188249393 heartbeat IPC: 1.44723 cumulative IPC: 1.40923 (Simulation time: 1 hr 32 min 37 sec) 
Heartbeat CPU 7 instructions: 100000000 cycles: 188879890 heartbeat IPC: 0.433933 cumulative IPC: 0.440415 (Simulation time: 1 hr 32 min 52 sec) 
Heartbeat CPU 0 instructions: 90000003 cycles: 189930444 heartbeat IPC: 0.363244 cumulative IPC: 0.35869 (Simulation time: 1 hr 33 min 16 sec) 
Heartbeat CPU 4 instructions: 60000000 cycles: 190009441 heartbeat IPC: 0.232077 cumulative IPC: 0.228354 (Simulation time: 1 hr 33 min 18 sec) 
Heartbeat CPU 1 instructions: 210000002 cycles: 191091900 heartbeat IPC: 1.01543 cumulative IPC: 1.0318 (Simulation time: 1 hr 33 min 44 sec) 
Heartbeat CPU 5 instructions: 270000000 cycles: 191554668 heartbeat IPC: 1.32636 cumulative IPC: 1.31033 (Simulation time: 1 hr 33 min 56 sec) 
Heartbeat CPU 3 instructions: 100000000 cycles: 194426476 heartbeat IPC: 0.42789 cumulative IPC: 0.42638 (Simulation time: 1 hr 35 min 3 sec) 
Heartbeat CPU 6 instructions: 290000003 cycles: 195169182 heartbeat IPC: 1.44513 cumulative IPC: 1.4106 (Simulation time: 1 hr 35 min 20 sec) 
Heartbeat CPU 2 instructions: 210000002 cycles: 198008838 heartbeat IPC: 0.955271 cumulative IPC: 0.952273 (Simulation time: 1 hr 36 min 26 sec) 
Heartbeat CPU 5 instructions: 280000000 cycles: 199071939 heartbeat IPC: 1.33027 cumulative IPC: 1.31114 (Simulation time: 1 hr 36 min 51 sec) 
Heartbeat CPU 1 instructions: 220000000 cycles: 200886176 heartbeat IPC: 1.021 cumulative IPC: 1.03123 (Simulation time: 1 hr 37 min 35 sec) 
Heartbeat CPU 6 instructions: 300000000 cycles: 202068718 heartbeat IPC: 1.44937 cumulative IPC: 1.41203 (Simulation time: 1 hr 38 min 3 sec) 
Heartbeat CPU 5 instructions: 290000003 cycles: 206548754 heartbeat IPC: 1.33747 cumulative IPC: 1.31217 (Simulation time: 1 hr 39 min 47 sec) 
Heartbeat CPU 6 instructions: 310000000 cycles: 208830290 heartbeat IPC: 1.47895 cumulative IPC: 1.41437 (Simulation time: 1 hr 40 min 40 sec) 
Heartbeat CPU 2 instructions: 220000000 cycles: 209151342 heartbeat IPC: 0.897464 cumulative IPC: 0.94913 (Simulation time: 1 hr 40 min 48 sec) 
Heartbeat CPU 1 instructions: 230000002 cycles: 210261345 heartbeat IPC: 1.06665 cumulative IPC: 1.03293 (Simulation time: 1 hr 41 min 14 sec) 
Heartbeat CPU 7 instructions: 110000003 cycles: 212056315 heartbeat IPC: 0.431473 cumulative IPC: 0.439364 (Simulation time: 1 hr 41 min 56 sec) 
Heartbeat CPU 5 instructions: 300000000 cycles: 214079127 heartbeat IPC: 1.32796 cumulative IPC: 1.31277 (Simulation time: 1 hr 42 min 42 sec) 
Heartbeat CPU 6 instructions: 320000000 cycles: 215675812 heartbeat IPC: 1.46081 cumulative IPC: 1.41595 (Simulation time: 1 hr 43 min 19 sec) 
Heartbeat CPU 0 instructions: 100000000 cycles: 217460346 heartbeat IPC: 0.363241 cumulative IPC: 0.359308 (Simulation time: 1 hr 44 min 0 sec) 
Heartbeat CPU 3 instructions: 110000000 cycles: 217575179 heartbeat IPC: 0.43199 cumulative IPC: 0.427021 (Simulation time: 1 hr 44 min 3 sec) 
Heartbeat CPU 1 instructions: 240000000 cycles: 219273466 heartbeat IPC: 1.10962 cumulative IPC: 1.03631 (Simulation time: 1 hr 44 min 42 sec) 
Heartbeat CPU 2 instructions: 230000000 cycles: 221184958 heartbeat IPC: 0.831005 cumulative IPC: 0.942241 (Simulation time: 1 hr 45 min 29 sec) 
Heartbeat CPU 5 instructions: 310000001 cycles: 221609538 heartbeat IPC: 1.32795 cumulative IPC: 1.31332 (Simulation time: 1 hr 45 min 40 sec) 
Heartbeat CPU 6 instructions: 330000002 cycles: 222480723 heartbeat IPC: 1.46953 cumulative IPC: 1.4177 (Simulation time: 1 hr 46 min 1 sec) 
Heartbeat CPU 1 instructions: 250000003 cycles: 228159249 heartbeat IPC: 1.12539 cumulative IPC: 1.04002 (Simulation time: 1 hr 48 min 18 sec) 
Heartbeat CPU 5 instructions: 320000000 cycles: 229195071 heartbeat IPC: 1.3183 cumulative IPC: 1.3135 (Simulation time: 1 hr 48 min 42 sec) 
Heartbeat CPU 6 instructions: 340000000 cycles: 229336155 heartbeat IPC: 1.4587 cumulative IPC: 1.41901 (Simulation time: 1 hr 48 min 45 sec) 
Heartbeat CPU 2 instructions: 240000000 cycles: 233035663 heartbeat IPC: 0.843832 cumulative IPC: 0.936896 (Simulation time: 1 hr 50 min 10 sec) 
Heartbeat CPU 4 instructions: 70000000 cycles: 233666236 heartbeat IPC: 0.229059 cumulative IPC: 0.228495 (Simulation time: 1 hr 50 min 25 sec) 
Heartbeat CPU 7 instructions: 120000000 cycles: 235238969 heartbeat IPC: 0.431357 cumulative IPC: 0.438522 (Simulation time: 1 hr 51 min 2 sec) 
Heartbeat CPU 6 instructions: 350000003 cycles: 236140527 heartbeat IPC: 1.46964 cumulative IPC: 1.42057 (Simulation time: 1 hr 51 min 22 sec) 
Heartbeat CPU 5 instructions: 330000000 cycles: 236775582 heartbeat IPC: 1.31917 cumulative IPC: 1.31369 (Simulation time: 1 hr 51 min 36 sec) 
Heartbeat CPU 1 instructions: 260000000 cycles: 237174995 heartbeat IPC: 1.10917 cumulative IPC: 1.04283 (Simulation time: 1 hr 51 min 45 sec) 
Finished CPU 7 instructions: 100000002 cycles: 228025555 cumulative IPC: 0.438547 (Simulation time: 1 hr 53 min 57 sec) 
Heartbeat CPU 6 instructions: 360000000 cycles: 243045552 heartbeat IPC: 1.44822 cumulative IPC: 1.42141 (Simulation time: 1 hr 54 min 1 sec) 
Heartbeat CPU 3 instructions: 120000000 cycles: 244245469 heartbeat IPC: 0.374949 cumulative IPC: 0.420967 (Simulation time: 1 hr 54 min 28 sec) 
Heartbeat CPU 5 instructions: 340000000 cycles: 244376169 heartbeat IPC: 1.31569 cumulative IPC: 1.31376 (Simulation time: 1 hr 54 min 31 sec) 
Heartbeat CPU 2 instructions: 250000001 cycles: 244885796 heartbeat IPC: 0.843872 cumulative IPC: 0.932104 (Simulation time: 1 hr 54 min 42 sec) 
Heartbeat CPU 0 instructions: 110000000 cycles: 244899074 heartbeat IPC: 0.364448 cumulative IPC: 0.359921 (Simulation time: 1 hr 54 min 42 sec) 
Heartbeat CPU 1 instructions: 270000001 cycles: 246608427 heartbeat IPC: 1.06006 cumulative IPC: 1.04353 (Simulation time: 1 hr 55 min 22 sec) 
Heartbeat CPU 6 instructions: 370000002 cycles: 249692285 heartbeat IPC: 1.5045 cumulative IPC: 1.42376 (Simulation time: 1 hr 56 min 31 sec) 
Heartbeat CPU 5 instructions: 350000000 cycles: 252034767 heartbeat IPC: 1.30572 cumulative IPC: 1.3135 (Simulation time: 1 hr 57 min 23 sec) 
Finished CPU 3 instructions: 100000000 cycles: 237414994 cumulative IPC: 0.421203 (Simulation time: 1 hr 57 min 28 sec) 
Heartbeat CPU 1 instructions: 280000000 cycles: 255547962 heartbeat IPC: 1.11863 cumulative IPC: 1.04632 (Simulation time: 1 hr 58 min 38 sec) 
Heartbeat CPU 2 instructions: 260000000 cycles: 256857288 heartbeat IPC: 0.835318 cumulative IPC: 0.927316 (Simulation time: 1 hr 59 min 5 sec) 
Heartbeat CPU 7 instructions: 130000002 cycles: 258001209 heartbeat IPC: 0.439324 cumulative IPC: 0.438597 (Simulation time: 1 hr 59 min 31 sec) 
Heartbeat CPU 6 instructions: 380000000 cycles: 258896649 heartbeat IPC: 1.08644 cumulative IPC: 1.41104 (Simulation time: 1 hr 59 min 52 sec) 
Heartbeat CPU 5 instructions: 360000000 cycles: 259896171 heartbeat IPC: 1.27204 cumulative IPC: 1.31217 (Simulation time: 2 hr 0 min 15 sec) 
Heartbeat CPU 6 instructions: 390000002 cycles: 263256973 heartbeat IPC: 2.29341 cumulative IPC: 1.42653 (Simulation time: 2 hr 1 min 35 sec) 
Heartbeat CPU 1 instructions: 290000002 cycles: 264654104 heartbeat IPC: 1.09816 cumulative IPC: 1.04821 (Simulation time: 2 hr 2 min 6 sec) 
Heartbeat CPU 3 instructions: 130000001 cycles: 267613072 heartbeat IPC: 0.427943 cumulative IPC: 0.421612 (Simulation time: 2 hr 3 min 11 sec) 
Heartbeat CPU 5 instructions: 370000002 cycles: 268764916 heartbeat IPC: 1.12756 cumulative IPC: 1.30572 (Simulation time: 2 hr 3 min 36 sec) 
Heartbeat CPU 2 instructions: 270000002 cycles: 268960393 heartbeat IPC: 0.826234 cumulative IPC: 0.922502 (Simulation time: 2 hr 3 min 41 sec) 
Heartbeat CPU 6 instructions: 400000000 cycles: 270593167 heartbeat IPC: 1.3631 cumulative IPC: 1.42471 (Simulation time: 2 hr 4 min 15 sec) 
Heartbeat CPU 0 instructions: 120000000 cycles: 272008823 heartbeat IPC: 0.368871 cumulative IPC: 0.360865 (Simulation time: 2 hr 4 min 46 sec) 
Heartbeat CPU 1 instructions: 300000000 cycles: 274332324 heartbeat IPC: 1.03325 cumulative IPC: 1.04765 (Simulation time: 2 hr 5 min 37 sec) 
Heartbeat CPU 5 instructions: 380000000 cycles: 276084849 heartbeat IPC: 1.36613 cumulative IPC: 1.30741 (Simulation time: 2 hr 6 min 16 sec) 
Heartbeat CPU 4 instructions: 80000000 cycles: 277984732 heartbeat IPC: 0.225639 cumulative IPC: 0.228014 (Simulation time: 2 hr 6 min 58 sec) 
Heartbeat CPU 6 instructions: 410000002 cycles: 278193278 heartbeat IPC: 1.31577 cumulative IPC: 1.42156 (Simulation time: 2 hr 7 min 3 sec) 
Heartbeat CPU 7 instructions: 140000000 cycles: 280600296 heartbeat IPC: 0.442496 cumulative IPC: 0.438929 (Simulation time: 2 hr 7 min 57 sec) 
Heartbeat CPU 2 instructions: 280000000 cycles: 281094553 heartbeat IPC: 0.82412 cumulative IPC: 0.918018 (Simulation time: 2 hr 8 min 7 sec) 
Heartbeat CPU 5 instructions: 390000001 cycles: 282746289 heartbeat IPC: 1.50118 cumulative IPC: 1.31223 (Simulation time: 2 hr 8 min 44 sec) 
Heartbeat CPU 1 instructions: 310000001 cycles: 283925425 heartbeat IPC: 1.04242 cumulative IPC: 1.04746 (Simulation time: 2 hr 9 min 11 sec) 
Heartbeat CPU 6 instructions: 420000000 cycles: 285675827 heartbeat IPC: 1.33644 cumulative IPC: 1.41921 (Simulation time: 2 hr 9 min 50 sec) 
Heartbeat CPU 5 instructions: 400000000 cycles: 289441011 heartbeat IPC: 1.49371 cumulative IPC: 1.31665 (Simulation time: 2 hr 11 min 14 sec) 
Heartbeat CPU 3 instructions: 140000000 cycles: 290867780 heartbeat IPC: 0.43002 cumulative IPC: 0.42232 (Simulation time: 2 hr 11 min 44 sec) 
Finished CPU 0 instructions: 100000000 cycles: 276703994 cumulative IPC: 0.361397 (Simulation time: 2 hr 11 min 59 sec) 
Heartbeat CPU 1 instructions: 320000000 cycles: 293001618 heartbeat IPC: 1.10178 cumulative IPC: 1.04923 (Simulation time: 2 hr 12 min 32 sec) 
Heartbeat CPU 6 instructions: 430000000 cycles: 293203303 heartbeat IPC: 1.32847 cumulative IPC: 1.41676 (Simulation time: 2 hr 12 min 36 sec) 
Heartbeat CPU 2 instructions: 290000000 cycles: 293277697 heartbeat IPC: 0.820806 cumulative IPC: 0.913765 (Simulation time: 2 hr 12 min 38 sec) 
Heartbeat CPU 5 instructions: 410000000 cycles: 296408270 heartbeat IPC: 1.43528 cumulative IPC: 1.31959 (Simulation time: 2 hr 13 min 47 sec) 
Heartbeat CPU 0 instructions: 130000001 cycles: 299116753 heartbeat IPC: 0.368896 cumulative IPC: 0.361631 (Simulation time: 2 hr 14 min 48 sec) 
Heartbeat CPU 6 instructions: 440000000 cycles: 300716216 heartbeat IPC: 1.33104 cumulative IPC: 1.4145 (Simulation time: 2 hr 15 min 25 sec) 
Heartbeat CPU 1 instructions: 330000003 cycles: 302023557 heartbeat IPC: 1.10841 cumulative IPC: 1.05109 (Simulation time: 2 hr 15 min 54 sec) 
Heartbeat CPU 5 instructions: 420000000 cycles: 303071664 heartbeat IPC: 1.50074 cumulative IPC: 1.32378 (Simulation time: 2 hr 16 min 17 sec) 
Heartbeat CPU 7 instructions: 150000001 cycles: 303259056 heartbeat IPC: 0.44133 cumulative IPC: 0.439117 (Simulation time: 2 hr 16 min 21 sec) 
Heartbeat CPU 2 instructions: 300000000 cycles: 305506461 heartbeat IPC: 0.817744 cumulative IPC: 0.909725 (Simulation time: 2 hr 17 min 11 sec) 
Heartbeat CPU 6 instructions: 450000002 cycles: 308271427 heartbeat IPC: 1.32359 cumulative IPC: 1.41216 (Simulation time: 2 hr 18 min 11 sec) 
Heartbeat CPU 5 instructions: 430000002 cycles: 309910444 heartbeat IPC: 1.46225 cumulative IPC: 1.32699 (Simulation time: 2 hr 18 min 46 sec) 
Heartbeat CPU 1 instructions: 340000000 cycles: 311061981 heartbeat IPC: 1.10639 cumulative IPC: 1.05278 (Simulation time: 2 hr 19 min 11 sec) 
Heartbeat CPU 3 instructions: 150000000 cycles: 314204952 heartbeat IPC: 0.428501 cumulative IPC: 0.422802 (Simulation time: 2 hr 20 min 20 sec) 
Heartbeat CPU 6 instructions: 460000000 cycles: 315800371 heartbeat IPC: 1.32821 cumulative IPC: 1.41006 (Simulation time: 2 hr 20 min 55 sec) 
Heartbeat CPU 5 instructions: 440000000 cycles: 316777110 heartbeat IPC: 1.45631 cumulative IPC: 1.32993 (Simulation time: 2 hr 21 min 17 sec) 
Heartbeat CPU 2 instructions: 310000003 cycles: 317815124 heartbeat IPC: 0.812436 cumulative IPC: 0.905773 (Simulation time: 2 hr 21 min 40 sec) 
Heartbeat CPU 1 instructions: 350000002 cycles: 320508825 heartbeat IPC: 1.05855 cumulative IPC: 1.05296 (Simulation time: 2 hr 22 min 39 sec) 
Heartbeat CPU 4 instructions: 90000002 cycles: 321680069 heartbeat IPC: 0.228857 cumulative IPC: 0.228134 (Simulation time: 2 hr 23 min 3 sec) 
Heartbeat CPU 6 instructions: 470000003 cycles: 323303165 heartbeat IPC: 1.33284 cumulative IPC: 1.40818 (Simulation time: 2 hr 23 min 40 sec) 
Heartbeat CPU 5 instructions: 450000000 cycles: 323423219 heartbeat IPC: 1.50464 cumulative IPC: 1.33369 (Simulation time: 2 hr 23 min 42 sec) 
Heartbeat CPU 7 instructions: 160000000 cycles: 326214402 heartbeat IPC: 0.435628 cumulative IPC: 0.43886 (Simulation time: 2 hr 24 min 44 sec) 
Heartbeat CPU 0 instructions: 140000000 cycles: 326597304 heartbeat IPC: 0.363894 cumulative IPC: 0.36183 (Simulation time: 2 hr 24 min 52 sec) 
Heartbeat CPU 1 instructions: 360000000 cycles: 329727700 heartbeat IPC: 1.08473 cumulative IPC: 1.05389 (Simulation time: 2 hr 26 min 2 sec) 
Heartbeat CPU 5 instructions: 460000000 cycles: 330027327 heartbeat IPC: 1.51421 cumulative IPC: 1.33747 (Simulation time: 2 hr 26 min 8 sec) 
Heartbeat CPU 2 instructions: 320000000 cycles: 330109982 heartbeat IPC: 0.813348 cumulative IPC: 0.902168 (Simulation time: 2 hr 26 min 10 sec) 
Heartbeat CPU 6 instructions: 480000000 cycles: 330714088 heartbeat IPC: 1.34936 cumulative IPC: 1.4068 (Simulation time: 2 hr 26 min 23 sec) 
Heartbeat CPU 5 instructions: 470000000 cycles: 336722405 heartbeat IPC: 1.49363 cumulative IPC: 1.34072 (Simulation time: 2 hr 28 min 37 sec) 
Heartbeat CPU 3 instructions: 160000000 cycles: 337596403 heartbeat IPC: 0.427507 cumulative IPC: 0.423143 (Simulation time: 2 hr 28 min 56 sec) 
Heartbeat CPU 6 instructions: 490000003 cycles: 338138469 heartbeat IPC: 1.34691 cumulative IPC: 1.40543 (Simulation time: 2 hr 29 min 8 sec) 
Heartbeat CPU 1 instructions: 370000000 cycles: 338649277 heartbeat IPC: 1.12088 cumulative IPC: 1.05574 (Simulation time: 2 hr 29 min 19 sec) 
Heartbeat CPU 2 instructions: 330000000 cycles: 342340139 heartbeat IPC: 0.817651 cumulative IPC: 0.899012 (Simulation time: 2 hr 30 min 39 sec) 
Heartbeat CPU 5 instructions: 480000000 cycles: 343356371 heartbeat IPC: 1.50739 cumulative IPC: 1.34409 (Simulation time: 2 hr 31 min 2 sec) 
Heartbeat CPU 6 instructions: 500000000 cycles: 345556331 heartbeat IPC: 1.3481 cumulative IPC: 1.40414 (Simulation time: 2 hr 31 min 50 sec) 
Heartbeat CPU 1 instructions: 380000000 cycles: 348228094 heartbeat IPC: 1.04397 cumulative IPC: 1.0554 (Simulation time: 2 hr 32 min 48 sec) 
Heartbeat CPU 7 instructions: 170000000 cycles: 348845641 heartbeat IPC: 0.441867 cumulative IPC: 0.439064 (Simulation time: 2 hr 33 min 2 sec) 
Heartbeat CPU 5 instructions: 490000002 cycles: 350185818 heartbeat IPC: 1.46425 cumulative IPC: 1.34653 (Simulation time: 2 hr 33 min 32 sec) 
Heartbeat CPU 6 instructions: 510000003 cycles: 353002300 heartbeat IPC: 1.34301 cumulative IPC: 1.4028 (Simulation time: 2 hr 34 min 33 sec) 
Heartbeat CPU 0 instructions: 150000001 cycles: 353826324 heartbeat IPC: 0.367255 cumulative IPC: 0.362266 (Simulation time: 2 hr 34 min 51 sec) 
Heartbeat CPU 2 instructions: 340000000 cycles: 354692021 heartbeat IPC: 0.809593 cumulative IPC: 0.895762 (Simulation time: 2 hr 35 min 10 sec) 
Heartbeat CPU 5 instructions: 500000000 cycles: 356945503 heartbeat IPC: 1.47936 cumulative IPC: 1.34916 (Simulation time: 2 hr 36 min 0 sec) 
Heartbeat CPU 1 instructions: 390000001 cycles: 357397474 heartbeat IPC: 1.09059 cumulative IPC: 1.05634 (Simulation time: 2 hr 36 min 11 sec) 
Heartbeat CPU 6 instructions: 520000000 cycles: 360445597 heartbeat IPC: 1.34349 cumulative IPC: 1.40152 (Simulation time: 2 hr 37 min 18 sec) 
Heartbeat CPU 3 instructions: 170000000 cycles: 361140739 heartbeat IPC: 0.424731 cumulative IPC: 0.423251 (Simulation time: 2 hr 37 min 34 sec) 
Heartbeat CPU 5 instructions: 510000001 cycles: 363650168 heartbeat IPC: 1.4915 cumulative IPC: 1.35189 (Simulation time: 2 hr 38 min 29 sec) 
Heartbeat CPU 4 instructions: 100000000 cycles: 365014582 heartbeat IPC: 0.230763 cumulative IPC: 0.22846 (Simulation time: 2 hr 39 min 0 sec) 
Heartbeat CPU 1 instructions: 400000000 cycles: 366658881 heartbeat IPC: 1.07975 cumulative IPC: 1.05696 (Simulation time: 2 hr 39 min 37 sec) 
Heartbeat CPU 2 instructions: 350000000 cycles: 366855444 heartbeat IPC: 0.822137 cumulative IPC: 0.893218 (Simulation time: 2 hr 39 min 41 sec) 
Heartbeat CPU 6 instructions: 530000001 cycles: 367889030 heartbeat IPC: 1.34347 cumulative IPC: 1.4003 (Simulation time: 2 hr 40 min 5 sec) 
Heartbeat CPU 5 instructions: 520000000 cycles: 370442057 heartbeat IPC: 1.47234 cumulative IPC: 1.35419 (Simulation time: 2 hr 41 min 2 sec) 
Heartbeat CPU 7 instructions: 180000000 cycles: 371335514 heartbeat IPC: 0.444645 cumulative IPC: 0.439416 (Simulation time: 2 hr 41 min 21 sec) 
Heartbeat CPU 6 instructions: 540000000 cycles: 375315673 heartbeat IPC: 1.3465 cumulative IPC: 1.39919 (Simulation time: 2 hr 42 min 47 sec) 
Heartbeat CPU 1 instructions: 410000000 cycles: 375957484 heartbeat IPC: 1.07543 cumulative IPC: 1.05743 (Simulation time: 2 hr 43 min 1 sec) 
Heartbeat CPU 5 instructions: 530000003 cycles: 377235678 heartbeat IPC: 1.47197 cumulative IPC: 1.3564 (Simulation time: 2 hr 43 min 29 sec) 
Heartbeat CPU 2 instructions: 360000000 cycles: 379267819 heartbeat IPC: 0.805648 cumulative IPC: 0.890235 (Simulation time: 2 hr 44 min 14 sec) 
Heartbeat CPU 0 instructions: 160000000 cycles: 380183344 heartbeat IPC: 0.379406 cumulative IPC: 0.363502 (Simulation time: 2 hr 44 min 33 sec) 
Heartbeat CPU 6 instructions: 550000002 cycles: 382742687 heartbeat IPC: 1.34644 cumulative IPC: 1.39812 (Simulation time: 2 hr 45 min 29 sec) 
Heartbeat CPU 5 instructions: 540000000 cycles: 383846041 heartbeat IPC: 1.51278 cumulative IPC: 1.3592 (Simulation time: 2 hr 45 min 53 sec) 
Heartbeat CPU 3 instructions: 180000000 cycles: 384562890 heartbeat IPC: 0.426946 cumulative IPC: 0.423485 (Simulation time: 2 hr 46 min 9 sec) 
Heartbeat CPU 1 instructions: 420000000 cycles: 385753700 heartbeat IPC: 1.0208 cumulative IPC: 1.05646 (Simulation time: 2 hr 46 min 34 sec) 
Heartbeat CPU 6 instructions: 560000000 cycles: 390217533 heartbeat IPC: 1.33782 cumulative IPC: 1.39692 (Simulation time: 2 hr 48 min 11 sec) 
Heartbeat CPU 5 instructions: 550000000 cycles: 390547070 heartbeat IPC: 1.49231 cumulative IPC: 1.36158 (Simulation time: 2 hr 48 min 18 sec) 
Heartbeat CPU 2 instructions: 370000001 cycles: 391498823 heartbeat IPC: 0.817594 cumulative IPC: 0.887876 (Simulation time: 2 hr 48 min 38 sec) 
Heartbeat CPU 1 instructions: 430000000 cycles: 396259360 heartbeat IPC: 0.951868 cumulative IPC: 1.05358 (Simulation time: 2 hr 50 min 15 sec) 
Heartbeat CPU 6 instructions: 570000000 cycles: 397710668 heartbeat IPC: 1.33455 cumulative IPC: 1.3957 (Simulation time: 2 hr 50 min 47 sec) 
Heartbeat CPU 5 instructions: 560000000 cycles: 399085245 heartbeat IPC: 1.17121 cumulative IPC: 1.35735 (Simulation time: 2 hr 51 min 19 sec) 
Heartbeat CPU 2 instructions: 380000000 cycles: 403711524 heartbeat IPC: 0.81882 cumulative IPC: 0.885708 (Simulation time: 2 hr 52 min 56 sec) 
Heartbeat CPU 5 instructions: 570000002 cycles: 404323741 heartbeat IPC: 1.90895 cumulative IPC: 1.36477 (Simulation time: 2 hr 53 min 9 sec) 
Heartbeat CPU 6 instructions: 580000000 cycles: 406690482 heartbeat IPC: 1.11361 cumulative IPC: 1.38924 (Simulation time: 2 hr 54 min 1 sec) 
Heartbeat CPU 0 instructions: 170000002 cycles: 406724119 heartbeat IPC: 0.376779 cumulative IPC: 0.364402 (Simulation time: 2 hr 54 min 2 sec) 
Heartbeat CPU 7 instructions: 190000002 cycles: 406767588 heartbeat IPC: 0.28223 cumulative IPC: 0.425205 (Simulation time: 2 hr 54 min 3 sec) 
Heartbeat CPU 1 instructions: 440000000 cycles: 407209958 heartbeat IPC: 0.913192 cumulative IPC: 1.04966 (Simulation time: 2 hr 54 min 13 sec) 
Heartbeat CPU 3 instructions: 190000003 cycles: 407869183 heartbeat IPC: 0.429069 cumulative IPC: 0.423816 (Simulation time: 2 hr 54 min 28 sec) 
Heartbeat CPU 4 instructions: 110000002 cycles: 409415825 heartbeat IPC: 0.225219 cumulative IPC: 0.228095 (Simulation time: 2 hr 55 min 2 sec) 
Heartbeat CPU 6 instructions: 590000002 cycles: 411649068 heartbeat IPC: 2.0167 cumulative IPC: 1.39708 (Simulation time: 2 hr 55 min 51 sec) 
Heartbeat CPU 5 instructions: 580000000 cycles: 412477099 heartbeat IPC: 1.22649 cumulative IPC: 1.36193 (Simulation time: 2 hr 56 min 8 sec) 
Heartbeat CPU 2 instructions: 390000001 cycles: 415901654 heartbeat IPC: 0.820336 cumulative IPC: 0.883721 (Simulation time: 2 hr 57 min 22 sec) 
Heartbeat CPU 1 instructions: 450000000 cycles: 417962054 heartbeat IPC: 0.930051 cumulative IPC: 1.04647 (Simulation time: 2 hr 58 min 7 sec) 
Heartbeat CPU 6 instructions: 600000000 cycles: 419138820 heartbeat IPC: 1.33516 cumulative IPC: 1.39593 (Simulation time: 2 hr 58 min 32 sec) 
Heartbeat CPU 5 instructions: 590000003 cycles: 419194641 heartbeat IPC: 1.48864 cumulative IPC: 1.36404 (Simulation time: 2 hr 58 min 33 sec) 
Heartbeat CPU 5 instructions: 600000000 cycles: 425989194 heartbeat IPC: 1.47177 cumulative IPC: 1.36582 (Simulation time: 3 hr 0 min 59 sec) 
Heartbeat CPU 6 instructions: 610000001 cycles: 426657700 heartbeat IPC: 1.32999 cumulative IPC: 1.39473 (Simulation time: 3 hr 1 min 13 sec) 
Heartbeat CPU 1 instructions: 460000000 cycles: 427838559 heartbeat IPC: 1.0125 cumulative IPC: 1.04566 (Simulation time: 3 hr 1 min 39 sec) 
Heartbeat CPU 2 instructions: 400000000 cycles: 428104613 heartbeat IPC: 0.819473 cumulative IPC: 0.881824 (Simulation time: 3 hr 1 min 45 sec) 
Heartbeat CPU 3 instructions: 200000000 cycles: 431253891 heartbeat IPC: 0.42763 cumulative IPC: 0.42403 (Simulation time: 3 hr 2 min 53 sec) 
Heartbeat CPU 7 instructions: 200000000 cycles: 432600881 heartbeat IPC: 0.387097 cumulative IPC: 0.422849 (Simulation time: 3 hr 3 min 22 sec) 
Heartbeat CPU 5 instructions: 610000001 cycles: 433006399 heartbeat IPC: 1.42507 cumulative IPC: 1.36681 (Simulation time: 3 hr 3 min 31 sec) 
Heartbeat CPU 0 instructions: 180000000 cycles: 433302981 heartbeat IPC: 0.376239 cumulative IPC: 0.365153 (Simulation time: 3 hr 3 min 37 sec) 
Heartbeat CPU 6 instructions: 620000000 cycles: 434118066 heartbeat IPC: 1.34042 cumulative IPC: 1.39376 (Simulation time: 3 hr 3 min 54 sec) 
Heartbeat CPU 1 instructions: 470000000 cycles: 437829472 heartbeat IPC: 1.00091 cumulative IPC: 1.0446 (Simulation time: 3 hr 5 min 15 sec) 
Heartbeat CPU 5 instructions: 620000000 cycles: 439771935 heartbeat IPC: 1.47808 cumulative IPC: 1.36858 (Simulation time: 3 hr 5 min 57 sec) 
Heartbeat CPU 2 instructions: 410000002 cycles: 440195534 heartbeat IPC: 0.827067 cumulative IPC: 0.880267 (Simulation time: 3 hr 6 min 6 sec) 
Heartbeat CPU 6 instructions: 630000002 cycles: 441517072 heartbeat IPC: 1.35153 cumulative IPC: 1.39303 (Simulation time: 3 hr 6 min 35 sec) 
Heartbeat CPU 5 instructions: 630000001 cycles: 446608675 heartbeat IPC: 1.46269 cumulative IPC: 1.37007 (Simulation time: 3 hr 8 min 25 sec) 
Heartbeat CPU 1 instructions: 480000000 cycles: 447837495 heartbeat IPC: 0.999198 cumulative IPC: 1.04356 (Simulation time: 3 hr 8 min 52 sec) 
Heartbeat CPU 6 instructions: 640000000 cycles: 448943530 heartbeat IPC: 1.34654 cumulative IPC: 1.39223 (Simulation time: 3 hr 9 min 16 sec) 
Heartbeat CPU 2 instructions: 420000000 cycles: 452359602 heartbeat IPC: 0.822093 cumulative IPC: 0.87865 (Simulation time: 3 hr 10 min 29 sec) 
Heartbeat CPU 4 instructions: 120000000 cycles: 453004861 heartbeat IPC: 0.229415 cumulative IPC: 0.228226 (Simulation time: 3 hr 10 min 43 sec) 
Finished CPU 4 instructions: 100000000 cycles: 438161713 cumulative IPC: 0.228226 (Simulation time: 3 hr 10 min 43 sec) 

CPU 0 Branch Prediction Accuracy: 98.1621% MPKI: 3.21988

CPU 1 Branch Prediction Accuracy: 99.9708% MPKI: 0.00716726

CPU 2 Branch Prediction Accuracy: 99.9307% MPKI: 0.173452

CPU 3 Branch Prediction Accuracy: 84.7086% MPKI: 15.755

CPU 4 Branch Prediction Accuracy: 96.0991% MPKI: 5.8203

CPU 5 Branch Prediction Accuracy: 97.2105% MPKI: 1.01961

CPU 6 Branch Prediction Accuracy: 97.0243% MPKI: 1.00569

CPU 7 Branch Prediction Accuracy: 85.4687% MPKI: 16.2734

ChampSim completed all CPUs

Total Simulation Statistics (not including warmup)

CPU 0 cumulative IPC: 0.365753 instructions: 160258835 cycles: 438161713
L1D TOTAL     ACCESS:   62683386  HIT:   37792238  MISS:   24891148
L1D LOAD      ACCESS:   52731196  HIT:   28233108  MISS:   24498088
L1D RFO       ACCESS:    9952190  HIT:    9559130  MISS:     393060
L1D PREFETCH  ACCESS:          0  HIT:          0  MISS:          0
L1D WRITEBACK ACCESS:          0  HIT:          0  MISS:          0
L1I TOTAL     ACCESS:   59973822  HIT:   59973822  MISS:          0
L1I LOAD      ACCESS:   59973822  HIT:   59973822  MISS:          0
L1I RFO       ACCESS:          0  HIT:          0  MISS:          0
L1I PREFETCH  ACCESS:          0  HIT:          0  MISS:          0
L1I WRITEBACK ACCESS:          0  HIT:          0  MISS:          0
L2C TOTAL     ACCESS:   35014977  HIT:    5430717  MISS:   29584260
L2C LOAD      ACCESS:   24498085  HIT:    2001565  MISS:   22496520
L2C RFO       ACCESS:     393060  HIT:       4480  MISS:     388580
L2C PREFETCH  ACCESS:    9628750  HIT:    2931136  MISS:    6697614
L2C WRITEBACK ACCESS:     495082  HIT:     493536  MISS:       1546

L2C Best-offset prefetcher final stats
LLC TOTAL     ACCESS:   30100889  HIT:   29338078  MISS:     762811
LLC LOAD      ACCESS:   22245369  HIT:   22140963  MISS:     104406
LLC RFO       ACCESS:     380886  HIT:       2952  MISS:     377934
LLC PREFETCH  ACCESS:    6981777  HIT:    6701422  MISS:     280355
LLC WRITEBACK ACCESS:     492857  HIT:     492741  MISS:        116

CPU 1 cumulative IPC: 1.04305 instructions: 457024003 cycles: 438161713
L1D TOTAL     ACCESS:  174208793  HIT:  164708448  MISS:    9500345
L1D LOAD      ACCESS:  148696958  HIT:  139489058  MISS:    9207900
L1D RFO       ACCESS:   25511835  HIT:   25219390  MISS:     292445
L1D PREFETCH  ACCESS:          0  HIT:          0  MISS:          0
L1D WRITEBACK ACCESS:          0  HIT:          0  MISS:          0
L1I TOTAL     ACCESS:  113893251  HIT:  113893251  MISS:          0
L1I LOAD      ACCESS:  113893251  HIT:  113893251  MISS:          0
L1I RFO       ACCESS:          0  HIT:          0  MISS:          0
L1I PREFETCH  ACCESS:          0  HIT:          0  MISS:          0
L1I WRITEBACK ACCESS:          0  HIT:          0  MISS:          0
L2C TOTAL     ACCESS:   14928661  HIT:    6225543  MISS:    8703118
L2C LOAD      ACCESS:    9205329  HIT:    5834528  MISS:    3370801
L2C RFO       ACCESS:     287123  HIT:      64441  MISS:     222682
L2C PREFETCH  ACCESS:    5118137  HIT:      10600  MISS:    5107537
L2C WRITEBACK ACCESS:     318072  HIT:     315974  MISS:       2098

L2C Best-offset prefetcher final stats
LLC TOTAL     ACCESS:   10570331  HIT:    1885282  MISS:    8685049
LLC LOAD      ACCESS:    2040446  HIT:    1650534  MISS:     389912
LLC RFO       ACCESS:     222682  HIT:          0  MISS:     222682
LLC PREFETCH  ACCESS:    8082257  HIT:      10064  MISS:    8072193
LLC WRITEBACK ACCESS:     224946  HIT:     224684  MISS:        262

CPU 2 cumulative IPC: 0.878595 instructions: 384966926 cycles: 438161713
L1D TOTAL     ACCESS:   79532414  HIT:   70971717  MISS:    8560697
L1D LOAD      ACCESS:   73061932  HIT:   64516220  MISS:    8545712
L1D RFO       ACCESS:    6470482  HIT:    6455497  MISS:      14985
L1D PREFETCH  ACCESS:          0  HIT:          0  MISS:          0
L1D WRITEBACK ACCESS:          0  HIT:          0  MISS:          0
L1I TOTAL     ACCESS:  133930264  HIT:  133930172  MISS:         92
L1I LOAD      ACCESS:  133930264  HIT:  133930172  MISS:         92
L1I RFO       ACCESS:          0  HIT:          0  MISS:          0
L1I PREFETCH  ACCESS:          0  HIT:          0  MISS:          0
L1I WRITEBACK ACCESS:          0  HIT:          0  MISS:          0
L2C TOTAL     ACCESS:   14661757  HIT:    7565946  MISS:    7095811
L2C LOAD      ACCESS:    8545802  HIT:    7462903  MISS:    1082899
L2C RFO       ACCESS:      14985  HIT:       6896  MISS:       8089
L2C PREFETCH  ACCESS:    6079242  HIT:      74420  MISS:    6004822
L2C WRITEBACK ACCESS:      21728  HIT:      21727  MISS:          1

L2C Best-offset prefetcher final stats
LLC TOTAL     ACCESS:    7111278  HIT:    7042774  MISS:      68504
LLC LOAD      ACCESS:    1048067  HIT:    1035117  MISS:      12950
LLC RFO       ACCESS:       8084  HIT:       2564  MISS:       5520
LLC PREFETCH  ACCESS:    6039757  HIT:    5993625  MISS:      46132
LLC WRITEBACK ACCESS:      15370  HIT:      11468  MISS:       3902

CPU 3 cumulative IPC: 0.424344 instructions: 185931274 cycles: 438161713
L1D TOTAL     ACCESS:   62187109  HIT:   61615959  MISS:     571150
L1D LOAD      ACCESS:   40694497  HIT:   40208500  MISS:     485997
L1D RFO       ACCESS:   21492612  HIT:   21407459  MISS:      85153
L1D PREFETCH  ACCESS:          0  HIT:          0  MISS:          0
L1D WRITEBACK ACCESS:          0  HIT:          0  MISS:          0
L1I TOTAL     ACCESS:   42569728  HIT:   42558596  MISS:      11132
L1I LOAD      ACCESS:   42569728  HIT:   42558596  MISS:      11132
L1I RFO       ACCESS:          0  HIT:          0  MISS:          0
L1I PREFETCH  ACCESS:          0  HIT:          0  MISS:          0
L1I WRITEBACK ACCESS:          0  HIT:          0  MISS:          0
L2C TOTAL     ACCESS:     762008  HIT:     650748  MISS:     111260
L2C LOAD      ACCESS:     497128  HIT:     457389  MISS:      39739
L2C RFO       ACCESS:      85153  HIT:      50870  MISS:      34283
L2C PREFETCH  ACCESS:      51902  HIT:      16219  MISS:      35683
L2C WRITEBACK ACCESS:     127825  HIT:     126270  MISS:       1555

L2C Best-offset prefetcher final stats
LLC TOTAL     ACCESS:     149534  HIT:      69003  MISS:      80531
LLC LOAD      ACCESS:      31935  HIT:      12761  MISS:      19174
LLC RFO       ACCESS:      34274  HIT:       1981  MISS:      32293
LLC PREFETCH  ACCESS:      43499  HIT:      18961  MISS:      24538
LLC WRITEBACK ACCESS:      39826  HIT:      35300  MISS:       4526

CPU 4 cumulative IPC: 0.228226 instructions: 100000000 cycles: 438161713
L1D TOTAL     ACCESS:   44816502  HIT:   42761814  MISS:    2054688
L1D LOAD      ACCESS:   26708734  HIT:   24903317  MISS:    1805417
L1D RFO       ACCESS:   18107768  HIT:   17858497  MISS:     249271
L1D PREFETCH  ACCESS:          0  HIT:          0  MISS:          0
L1D WRITEBACK ACCESS:          0  HIT:          0  MISS:          0
L1I TOTAL     ACCESS:   35049515  HIT:   34987413  MISS:      62102
L1I LOAD      ACCESS:   35049515  HIT:   34987413  MISS:      62102
L1I RFO       ACCESS:          0  HIT:          0  MISS:          0
L1I PREFETCH  ACCESS:          0  HIT:          0  MISS:          0
L1I WRITEBACK ACCESS:          0  HIT:          0  MISS:          0
L2C TOTAL     ACCESS:    4237229  HIT:    1957230  MISS:    2279999
L2C LOAD      ACCESS:    1867450  HIT:     726418  MISS:    1141032
L2C RFO       ACCESS:     249260  HIT:      98646  MISS:     150614
L2C PREFETCH  ACCESS:    1145036  HIT:     161979  MISS:     983057
L2C WRITEBACK ACCESS:     975483  HIT:     970187  MISS:       5296

L2C Best-offset prefetcher final stats
LLC TOTAL     ACCESS:    3054014  HIT:    1465463  MISS:    1588551
LLC LOAD      ACCESS:    1114238  HIT:     344222  MISS:     770016
LLC RFO       ACCESS:     142101  HIT:      46025  MISS:      96076
LLC PREFETCH  ACCESS:    1018387  HIT:     298277  MISS:     720110
LLC WRITEBACK ACCESS:     779288  HIT:     776939  MISS:       2349

CPU 5 cumulative IPC: 1.37155 instructions: 600960941 cycles: 438161714
L1D TOTAL     ACCESS:   94481041  HIT:   93429731  MISS:    1051310
L1D LOAD      ACCESS:   54280550  HIT:   53545798  MISS:     734752
L1D RFO       ACCESS:   40200491  HIT:   39883933  MISS:     316558
L1D PREFETCH  ACCESS:          0  HIT:          0  MISS:          0
L1D WRITEBACK ACCESS:          0  HIT:          0  MISS:          0
L1I TOTAL     ACCESS:  142481226  HIT:  141526749  MISS:     954477
L1I LOAD      ACCESS:  142481226  HIT:  141526749  MISS:     954477
L1I RFO       ACCESS:          0  HIT:          0  MISS:          0
L1I PREFETCH  ACCESS:          0  HIT:          0  MISS:          0
L1I WRITEBACK ACCESS:          0  HIT:          0  MISS:          0
L2C TOTAL     ACCESS:    2730338  HIT:    2071638  MISS:     658700
L2C LOAD      ACCESS:    1689227  HIT:    1440041  MISS:     249186
L2C RFO       ACCESS:     315467  HIT:     139181  MISS:     176286
L2C PREFETCH  ACCESS:     355669  HIT:     125938  MISS:     229731
L2C WRITEBACK ACCESS:     369975  HIT:     366478  MISS:       3497

L2C Best-offset prefetcher final stats
LLC TOTAL     ACCESS:     874199  HIT:     388159  MISS:     486040
LLC LOAD      ACCESS:     234022  HIT:      85791  MISS:     148231
LLC RFO       ACCESS:     176138  HIT:       9078  MISS:     167060
LLC PREFETCH  ACCESS:     258474  HIT:      93578  MISS:     164896
LLC WRITEBACK ACCESS:     205565  HIT:     199712  MISS:       5853

CPU 6 cumulative IPC: 1.39183 instructions: 609845139 cycles: 438161714
L1D TOTAL     ACCESS:   96191729  HIT:   93782670  MISS:    2409059
L1D LOAD      ACCESS:   55864398  HIT:   54114840  MISS:    1749558
L1D RFO       ACCESS:   40327331  HIT:   39667830  MISS:     659501
L1D PREFETCH  ACCESS:          0  HIT:          0  MISS:          0
L1D WRITEBACK ACCESS:          0  HIT:          0  MISS:          0
L1I TOTAL     ACCESS:  140856533  HIT:  138634938  MISS:    2221595
L1I LOAD      ACCESS:  140856533  HIT:  138634938  MISS:    2221595
L1I RFO       ACCESS:          0  HIT:          0  MISS:          0
L1I PREFETCH  ACCESS:          0  HIT:          0  MISS:          0
L1I WRITEBACK ACCESS:          0  HIT:          0  MISS:          0
L2C TOTAL     ACCESS:    6094687  HIT:    4659459  MISS:    1435228
L2C LOAD      ACCESS:    3971134  HIT:    3407019  MISS:     564115
L2C RFO       ACCESS:     657918  HIT:     364523  MISS:     293395
L2C PREFETCH  ACCESS:     678949  HIT:     110347  MISS:     568602
L2C WRITEBACK ACCESS:     786686  HIT:     777570  MISS:       9116

L2C Best-offset prefetcher final stats
LLC TOTAL     ACCESS:    1842811  HIT:    1044038  MISS:     798773
LLC LOAD      ACCESS:     535927  HIT:     318426  MISS:     217501
LLC RFO       ACCESS:     293374  HIT:      16119  MISS:     277255
LLC PREFETCH  ACCESS:     639145  HIT:     341563  MISS:     297582
LLC WRITEBACK ACCESS:     374365  HIT:     367930  MISS:       6435

CPU 7 cumulative IPC: 0.422528 instructions: 185135809 cycles: 438161714
L1D TOTAL     ACCESS:   60399624  HIT:   59359691  MISS:    1039933
L1D LOAD      ACCESS:   38325170  HIT:   37569210  MISS:     755960
L1D RFO       ACCESS:   22074454  HIT:   21790481  MISS:     283973
L1D PREFETCH  ACCESS:          0  HIT:          0  MISS:          0
L1D WRITEBACK ACCESS:          0  HIT:          0  MISS:          0
L1I TOTAL     ACCESS:   44432255  HIT:   44382049  MISS:      50206
L1I LOAD      ACCESS:   44432255  HIT:   44382049  MISS:      50206
L1I RFO       ACCESS:          0  HIT:          0  MISS:          0
L1I PREFETCH  ACCESS:          0  HIT:          0  MISS:          0
L1I WRITEBACK ACCESS:          0  HIT:          0  MISS:          0
L2C TOTAL     ACCESS:    1665385  HIT:    1391269  MISS:     274116
L2C LOAD      ACCESS:     806163  HIT:     744372  MISS:      61791
L2C RFO       ACCESS:     283973  HIT:     172937  MISS:     111036
L2C PREFETCH  ACCESS:     121564  HIT:      20518  MISS:     101046
L2C WRITEBACK ACCESS:     453685  HIT:     453442  MISS:        243

L2C Best-offset prefetcher final stats
LLC TOTAL     ACCESS:     410234  HIT:     332984  MISS:      77250
LLC LOAD      ACCESS:      42638  HIT:      21521  MISS:      21117
LLC RFO       ACCESS:     110872  HIT:      88183  MISS:      22689
LLC PREFETCH  ACCESS:     120391  HIT:      93615  MISS:      26776
LLC WRITEBACK ACCESS:     136333  HIT:     129665  MISS:       6668

Region of Interest Statistics

CPU 0 cumulative IPC: 0.361397 instructions: 100000000 cycles: 276703994
L1D TOTAL     ACCESS:   39168649  HIT:   23818374  MISS:   15350275
L1D LOAD      ACCESS:   32692968  HIT:   17628847  MISS:   15064121
L1D RFO       ACCESS:    6475681  HIT:    6189527  MISS:     286154
L1D PREFETCH  ACCESS:          0  HIT:          0  MISS:          0
L1D WRITEBACK ACCESS:          0  HIT:          0  MISS:          0
L1D PREFETCH  REQUESTED:          0  ISSUED:          0  USEFUL:          0  USELESS:          0
L1I TOTAL     ACCESS:   36802616  HIT:   36802616  MISS:          0
L1I LOAD      ACCESS:   36802616  HIT:   36802616  MISS:          0
L1I RFO       ACCESS:          0  HIT:          0  MISS:          0
L1I PREFETCH  ACCESS:          0  HIT:          0  MISS:          0
L1I WRITEBACK ACCESS:          0  HIT:          0  MISS:          0
L1I PREFETCH  REQUESTED:          0  ISSUED:          0  USEFUL:          0  USELESS:          0
L2C TOTAL     ACCESS:   21694998  HIT:    3438529  MISS:   18256469
L2C LOAD      ACCESS:   15064121  HIT:    1254421  MISS:   13809700
L2C RFO       ACCESS:     286154  HIT:       3070  MISS:     283084
L2C PREFETCH  ACCESS:    5986347  HIT:    1823588  MISS:    4162759
L2C WRITEBACK ACCESS:     358376  HIT:     357450  MISS:        926
L2C PREFETCH  REQUESTED:   13994373  ISSUED:   13994318  USEFUL:    2773183  USELESS:    6258377
LLC TOTAL     ACCESS:   18626252  HIT:   18076474  MISS:     549778
LLC LOAD      ACCESS:   13666679  HIT:   13590095  MISS:      76584
LLC RFO       ACCESS:     277638  HIT:       1884  MISS:     275754
LLC PREFETCH  ACCESS:    4325086  HIT:    4127709  MISS:     197377
LLC WRITEBACK ACCESS:     356849  HIT:     356786  MISS:         63
LLC PREFETCH  REQUESTED:          0  ISSUED:          0  USEFUL:    1827574  USELESS:    8430164
Major fault: 0 Minor fault: 14681

CPU 1 cumulative IPC: 1.04186 instructions: 100000000 cycles: 95981887
L1D TOTAL     ACCESS:   38121052  HIT:   36042259  MISS:    2078793
L1D LOAD      ACCESS:   32539181  HIT:   30524361  MISS:    2014820
L1D RFO       ACCESS:    5581871  HIT:    5517898  MISS:      63973
L1D PREFETCH  ACCESS:          0  HIT:          0  MISS:          0
L1D WRITEBACK ACCESS:          0  HIT:          0  MISS:          0
L1D PREFETCH  REQUESTED:          0  ISSUED:          0  USEFUL:          0  USELESS:          0
L1I TOTAL     ACCESS:   24923746  HIT:   24923746  MISS:          0
L1I LOAD      ACCESS:   24923746  HIT:   24923746  MISS:          0
L1I RFO       ACCESS:          0  HIT:          0  MISS:          0
L1I PREFETCH  ACCESS:          0  HIT:          0  MISS:          0
L1I WRITEBACK ACCESS:          0  HIT:          0  MISS:          0
L1I PREFETCH  REQUESTED:          0  ISSUED:          0  USEFUL:          0  USELESS:          0
L2C TOTAL     ACCESS:    3265159  HIT:    1360263  MISS:    1904896
L2C LOAD      ACCESS:    2014277  HIT:    1274731  MISS:     739546
L2C RFO       ACCESS:      62818  HIT:      14094  MISS:      48724
L2C PREFETCH  ACCESS:    1118480  HIT:       2292  MISS:    1116188
L2C WRITEBACK ACCESS:      69584  HIT:      69146  MISS:        438
L2C PREFETCH  REQUESTED:    8618166  ISSUED:    8618166  USEFUL:    5601224  USELESS:        299
LLC TOTAL     ACCESS:    2311519  HIT:     411169  MISS:    1900350
LLC LOAD      ACCESS:     442603  HIT:     359565  MISS:      83038
LLC RFO       ACCESS:      48724  HIT:          0  MISS:      48724
LLC PREFETCH  ACCESS:    1771020  HIT:       2488  MISS:    1768532
LLC WRITEBACK ACCESS:      49172  HIT:      49116  MISS:         56
LLC PREFETCH  REQUESTED:          0  ISSUED:          0  USEFUL:    1827574  USELESS:    8430164
Major fault: 0 Minor fault: 136958

CPU 2 cumulative IPC: 0.950006 instructions: 100000000 cycles: 105262474
L1D TOTAL     ACCESS:   19509390  HIT:   17607075  MISS:    1902315
L1D LOAD      ACCESS:   18197838  HIT:   16296082  MISS:    1901756
L1D RFO       ACCESS:    1311552  HIT:    1310993  MISS:        559
L1D PREFETCH  ACCESS:          0  HIT:          0  MISS:          0
L1D WRITEBACK ACCESS:          0  HIT:          0  MISS:          0
L1D PREFETCH  REQUESTED:          0  ISSUED:          0  USEFUL:          0  USELESS:          0
L1I TOTAL     ACCESS:   35106988  HIT:   35106988  MISS:          0
L1I LOAD      ACCESS:   35106988  HIT:   35106988  MISS:          0
L1I RFO       ACCESS:          0  HIT:          0  MISS:          0
L1I PREFETCH  ACCESS:          0  HIT:          0  MISS:          0
L1I WRITEBACK ACCESS:          0  HIT:          0  MISS:          0
L1I PREFETCH  REQUESTED:          0  ISSUED:          0  USEFUL:          0  USELESS:          0
L2C TOTAL     ACCESS:    3582431  HIT:    1584580  MISS:    1997851
L2C LOAD      ACCESS:    1901756  HIT:    1579718  MISS:     322038
L2C RFO       ACCESS:        559  HIT:        274  MISS:        285
L2C PREFETCH  ACCESS:    1679293  HIT:       3765  MISS:    1675528
L2C WRITEBACK ACCESS:        823  HIT:        823  MISS:          0
L2C PREFETCH  REQUESTED:    6716899  ISSUED:    6716899  USEFUL:    6291853  USELESS:     291024
LLC TOTAL     ACCESS:    1998676  HIT:    1979617  MISS:      19059
LLC LOAD      ACCESS:     313524  HIT:     312038  MISS:       1486
LLC RFO       ACCESS:        285  HIT:        211  MISS:         74
LLC PREFETCH  ACCESS:    1684044  HIT:    1666545  MISS:      17499
LLC WRITEBACK ACCESS:        823  HIT:        823  MISS:          0
LLC PREFETCH  REQUESTED:          0  ISSUED:          0  USEFUL:    1827574  USELESS:    8430164
Major fault: 0 Minor fault: 2271

CPU 3 cumulative IPC: 0.421203 instructions: 100000000 cycles: 237414994
L1D TOTAL     ACCESS:   33523341  HIT:   33182997  MISS:     340344
L1D LOAD      ACCESS:   21926185  HIT:   21646939  MISS:     279246
L1D RFO       ACCESS:   11597156  HIT:   11536058  MISS:      61098
L1D PREFETCH  ACCESS:          0  HIT:          0  MISS:          0
L1D WRITEBACK ACCESS:          0  HIT:          0  MISS:          0
L1D PREFETCH  REQUESTED:          0  ISSUED:          0  USEFUL:          0  USELESS:          0
L1I TOTAL     ACCESS:   22952638  HIT:   22946473  MISS:       6165
L1I LOAD      ACCESS:   22952638  HIT:   22946473  MISS:       6165
L1I RFO       ACCESS:          0  HIT:          0  MISS:          0
L1I PREFETCH  ACCESS:          0  HIT:          0  MISS:          0
L1I WRITEBACK ACCESS:          0  HIT:          0  MISS:          0
L1I PREFETCH  REQUESTED:          0  ISSUED:          0  USEFUL:          0  USELESS:          0
L2C TOTAL     ACCESS:     470286  HIT:     378426  MISS:      91860
L2C LOAD      ACCESS:     285410  HIT:     257572  MISS:      27838
L2C RFO       ACCESS:      61098  HIT:      27467  MISS:      33631
L2C PREFETCH  ACCESS:      38716  HIT:       9078  MISS:      29638
L2C WRITEBACK ACCESS:      85062  HIT:      84309  MISS:        753
L2C PREFETCH  REQUESTED:      69791  ISSUED:      69791  USEFUL:      25177  USELESS:      13249
LLC TOTAL     ACCESS:     128361  HIT:      61309  MISS:      67052
LLC LOAD      ACCESS:      20068  HIT:       8477  MISS:      11591
LLC RFO       ACCESS:      33625  HIT:       1367  MISS:      32258
LLC PREFETCH  ACCESS:      37417  HIT:      17168  MISS:      20249
LLC WRITEBACK ACCESS:      37251  HIT:      34297  MISS:       2954
LLC PREFETCH  REQUESTED:          0  ISSUED:          0  USEFUL:    1827574  USELESS:    8430164
Major fault: 0 Minor fault: 1403

CPU 4 cumulative IPC: 0.228226 instructions: 100000000 cycles: 438161713
L1D TOTAL     ACCESS:   44816502  HIT:   42761814  MISS:    2054688
L1D LOAD      ACCESS:   26708734  HIT:   24903317  MISS:    1805417
L1D RFO       ACCESS:   18107768  HIT:   17858497  MISS:     249271
L1D PREFETCH  ACCESS:          0  HIT:          0  MISS:          0
L1D WRITEBACK ACCESS:          0  HIT:          0  MISS:          0
L1D PREFETCH  REQUESTED:          0  ISSUED:          0  USEFUL:          0  USELESS:          0
L1I TOTAL     ACCESS:   35049515  HIT:   34987413  MISS:      62102
L1I LOAD      ACCESS:   35049515  HIT:   34987413  MISS:      62102
L1I RFO       ACCESS:          0  HIT:          0  MISS:          0
L1I PREFETCH  ACCESS:          0  HIT:          0  MISS:          0
L1I WRITEBACK ACCESS:          0  HIT:          0  MISS:          0
L1I PREFETCH  REQUESTED:          0  ISSUED:          0  USEFUL:          0  USELESS:          0
L2C TOTAL     ACCESS:    4237229  HIT:    1957230  MISS:    2279999
L2C LOAD      ACCESS:    1867450  HIT:     726418  MISS:    1141032
L2C RFO       ACCESS:     249260  HIT:      98646  MISS:     150614
L2C PREFETCH  ACCESS:    1145036  HIT:     161979  MISS:     983057
L2C WRITEBACK ACCESS:     975483  HIT:     970187  MISS:       5296
L2C PREFETCH  REQUESTED:    1633194  ISSUED:    1633194  USEFUL:     363603  USELESS:     829550
LLC TOTAL     ACCESS:    3054014  HIT:    1465463  MISS:    1588551
LLC LOAD      ACCESS:    1114238  HIT:     344222  MISS:     770016
LLC RFO       ACCESS:     142101  HIT:      46025  MISS:      96076
LLC PREFETCH  ACCESS:    1018387  HIT:     298277  MISS:     720110
LLC WRITEBACK ACCESS:     779288  HIT:     776939  MISS:       2349
LLC PREFETCH  REQUESTED:          0  ISSUED:          0  USEFUL:    1827574  USELESS:    8430164
Major fault: 0 Minor fault: 50067

CPU 5 cumulative IPC: 1.31311 instructions: 100000002 cycles: 76155208
L1D TOTAL     ACCESS:   15306577  HIT:   15277192  MISS:      29385
L1D LOAD      ACCESS:    7907124  HIT:    7878738  MISS:      28386
L1D RFO       ACCESS:    7399453  HIT:    7398454  MISS:        999
L1D PREFETCH  ACCESS:          0  HIT:          0  MISS:          0
L1D WRITEBACK ACCESS:          0  HIT:          0  MISS:          0
L1D PREFETCH  REQUESTED:          0  ISSUED:          0  USEFUL:          0  USELESS:          0
L1I TOTAL     ACCESS:   23786950  HIT:   23786939  MISS:         11
L1I LOAD      ACCESS:   23786950  HIT:   23786939  MISS:         11
L1I RFO       ACCESS:          0  HIT:          0  MISS:          0
L1I PREFETCH  ACCESS:          0  HIT:          0  MISS:          0
L1I WRITEBACK ACCESS:          0  HIT:          0  MISS:          0
L1I PREFETCH  REQUESTED:          0  ISSUED:          0  USEFUL:          0  USELESS:          0
L2C TOTAL     ACCESS:      55562  HIT:      27380  MISS:      28182
L2C LOAD      ACCESS:      28397  HIT:       4440  MISS:      23957
L2C RFO       ACCESS:        999  HIT:         49  MISS:        950
L2C PREFETCH  ACCESS:      25150  HIT:      21930  MISS:       3220
L2C WRITEBACK ACCESS:       1016  HIT:        961  MISS:         55
L2C PREFETCH  REQUESTED:     412118  ISSUED:     411837  USEFUL:     182993  USELESS:      47825
LLC TOTAL     ACCESS:      29151  HIT:        484  MISS:      28667
LLC LOAD      ACCESS:      23942  HIT:        262  MISS:      23680
LLC RFO       ACCESS:        950  HIT:         29  MISS:        921
LLC PREFETCH  ACCESS:       3235  HIT:         52  MISS:       3183
LLC WRITEBACK ACCESS:       1024  HIT:        141  MISS:        883
LLC PREFETCH  REQUESTED:          0  ISSUED:          0  USEFUL:    1827574  USELESS:    8430164
Major fault: 0 Minor fault: 7059

CPU 6 cumulative IPC: 1.39898 instructions: 100000002 cycles: 71480864
L1D TOTAL     ACCESS:   15841891  HIT:   15491736  MISS:     350155
L1D LOAD      ACCESS:    9493840  HIT:    9251769  MISS:     242071
L1D RFO       ACCESS:    6348051  HIT:    6239967  MISS:     108084
L1D PREFETCH  ACCESS:          0  HIT:          0  MISS:          0
L1D WRITEBACK ACCESS:          0  HIT:          0  MISS:          0
L1D PREFETCH  REQUESTED:          0  ISSUED:          0  USEFUL:          0  USELESS:          0
L1I TOTAL     ACCESS:   22305234  HIT:   21792124  MISS:     513110
L1I LOAD      ACCESS:   22305234  HIT:   21792124  MISS:     513110
L1I RFO       ACCESS:          0  HIT:          0  MISS:          0
L1I PREFETCH  ACCESS:          0  HIT:          0  MISS:          0
L1I WRITEBACK ACCESS:          0  HIT:          0  MISS:          0
L1I PREFETCH  REQUESTED:          0  ISSUED:          0  USEFUL:          0  USELESS:          0
L2C TOTAL     ACCESS:    1116939  HIT:     874649  MISS:     242290
L2C LOAD      ACCESS:     755180  HIT:     680058  MISS:      75122
L2C RFO       ACCESS:     107986  HIT:      39344  MISS:      68642
L2C PREFETCH  ACCESS:     112986  HIT:      15284  MISS:      97702
L2C WRITEBACK ACCESS:     140787  HIT:     139963  MISS:        824
L2C PREFETCH  REQUESTED:     785544  ISSUED:     784648  USEFUL:     310906  USELESS:     277559
LLC TOTAL     ACCESS:     347751  HIT:     191275  MISS:     156476
LLC LOAD      ACCESS:      65934  HIT:      40824  MISS:      25110
LLC RFO       ACCESS:      68631  HIT:       2022  MISS:      66609
LLC PREFETCH  ACCESS:     118950  HIT:      56034  MISS:      62916
LLC WRITEBACK ACCESS:      94236  HIT:      92395  MISS:       1841
LLC PREFETCH  REQUESTED:          0  ISSUED:          0  USEFUL:    1827574  USELESS:    8430164
Major fault: 0 Minor fault: 7394

CPU 7 cumulative IPC: 0.438547 instructions: 100000002 cycles: 228025555
L1D TOTAL     ACCESS:   31773013  HIT:   31310183  MISS:     462830
L1D LOAD      ACCESS:   20279566  HIT:   19917119  MISS:     362447
L1D RFO       ACCESS:   11493447  HIT:   11393064  MISS:     100383
L1D PREFETCH  ACCESS:          0  HIT:          0  MISS:          0
L1D WRITEBACK ACCESS:          0  HIT:          0  MISS:          0
L1D PREFETCH  REQUESTED:          0  ISSUED:          0  USEFUL:          0  USELESS:          0
L1I TOTAL     ACCESS:   23583972  HIT:   23558143  MISS:      25829
L1I LOAD      ACCESS:   23583972  HIT:   23558143  MISS:      25829
L1I RFO       ACCESS:          0  HIT:          0  MISS:          0
L1I PREFETCH  ACCESS:          0  HIT:          0  MISS:          0
L1I WRITEBACK ACCESS:          0  HIT:          0  MISS:          0
L1I PREFETCH  REQUESTED:          0  ISSUED:          0  USEFUL:          0  USELESS:          0
L2C TOTAL     ACCESS:     683419  HIT:     672269  MISS:      11150
L2C LOAD      ACCESS:     388275  HIT:     381065  MISS:       7210
L2C RFO       ACCESS:     100383  HIT:      99754  MISS:        629
L2C PREFETCH  ACCESS:       7483  HIT:       4214  MISS:       3269
L2C WRITEBACK ACCESS:     187278  HIT:     187236  MISS:         42
L2C PREFETCH  REQUESTED:     151473  ISSUED:     151473  USEFUL:      89739  USELESS:      12637
LLC TOTAL     ACCESS:      12236  HIT:       4628  MISS:       7608
LLC LOAD      ACCESS:       7188  HIT:       3327  MISS:       3861
LLC RFO       ACCESS:        628  HIT:          8  MISS:        620
LLC PREFETCH  ACCESS:       3292  HIT:       1137  MISS:       2155
LLC WRITEBACK ACCESS:       1128  HIT:        156  MISS:        972
LLC PREFETCH  REQUESTED:          0  ISSUED:          0  USEFUL:    1827574  USELESS:    8430164
Major fault: 0 Minor fault: 1253

L2C Best-offset prefetcher final stats

L2C Best-offset prefetcher final stats

L2C Best-offset prefetcher final stats

L2C Best-offset prefetcher final stats

L2C Best-offset prefetcher final stats

L2C Best-offset prefetcher final stats

L2C Best-offset prefetcher final stats

L2C Best-offset prefetcher final stats

DRAM Statistics
 CHANNEL 0
 RQ ROW_BUFFER_HIT:    4032450  ROW_BUFFER_MISS:    2222781
 DBUS_CONGESTED:    5493669
 WQ ROW_BUFFER_HIT:      84158  ROW_BUFFER_MISS:     850980  FULL:          0

 CHANNEL 1
 RQ ROW_BUFFER_HIT:    4027760  ROW_BUFFER_MISS:    2233916
 DBUS_CONGESTED:    5493669
 WQ ROW_BUFFER_HIT:      84807  ROW_BUFFER_MISS:     848846  FULL:          0

 AVG_CONGESTED_CYCLE: 12
