
*** ChampSim Multicore Out-of-Order Simulator ***

Warmup Instructions: 20000000
Simulation Instructions: 100000000
Number of CPUs: 8
LLC sets: 16384
LLC ways: 16
Off-chip DRAM Size: 8192 MB Channels: 2 Width: 64-bit Data Rate: 1600 MT/s

CPU 0 runs /scratch/user/djimenez/champsim-traces/speccpu2017/xz/654.roms_s/654.roms_s-1070B.champsimtrace.xz
CPU 1 runs /scratch/user/djimenez/champsim-traces/speccpu2017/xz/600.perlbench_s/600.perlbench_s-1273B.champsimtrace.xz
CPU 2 runs /scratch/user/djimenez/champsim-traces/speccpu2017/xz/619.lbm_s/619.lbm_s-3766B.champsimtrace.xz
CPU 3 runs /scratch/user/djimenez/champsim-traces/speccpu2017/xz/602.gcc_s/602.gcc_s-1850B.champsimtrace.xz
CPU 4 runs /scratch/user/djimenez/champsim-traces/speccpu2017/xz/621.wrf_s/621.wrf_s-6673B.champsimtrace.xz
CPU 5 runs /scratch/user/djimenez/champsim-traces/speccpu2017/xz/600.perlbench_s/600.perlbench_s-570B.champsimtrace.xz
CPU 6 runs /scratch/user/djimenez/champsim-traces/speccpu2017/xz/605.mcf_s/605.mcf_s-665B.champsimtrace.xz
CPU 7 runs /scratch/user/djimenez/champsim-traces/speccpu2017/xz/654.roms_s/654.roms_s-1390B.champsimtrace.xz
L2C Best-offset prefetcher
L2C Best-offset prefetcher
L2C Best-offset prefetcher
L2C Best-offset prefetcher
L2C Best-offset prefetcher
L2C Best-offset prefetcher
L2C Best-offset prefetcher
L2C Best-offset prefetcher
Heartbeat CPU 2 instructions: 10000000 cycles: 4276874 heartbeat IPC: 2.33816 cumulative IPC: 2.33816 (Simulation time: 0 hr 3 min 19 sec) 
Heartbeat CPU 0 instructions: 10000001 cycles: 4947684 heartbeat IPC: 2.02115 cumulative IPC: 2.02115 (Simulation time: 0 hr 3 min 50 sec) 
Heartbeat CPU 4 instructions: 10000001 cycles: 5374949 heartbeat IPC: 1.86048 cumulative IPC: 1.86048 (Simulation time: 0 hr 4 min 9 sec) 
Heartbeat CPU 3 instructions: 10000001 cycles: 5583306 heartbeat IPC: 1.79105 cumulative IPC: 1.79105 (Simulation time: 0 hr 4 min 19 sec) 
Heartbeat CPU 5 instructions: 10000000 cycles: 5689965 heartbeat IPC: 1.75748 cumulative IPC: 1.75748 (Simulation time: 0 hr 4 min 24 sec) 
Heartbeat CPU 1 instructions: 10000003 cycles: 5916931 heartbeat IPC: 1.69007 cumulative IPC: 1.69007 (Simulation time: 0 hr 4 min 35 sec) 
Heartbeat CPU 6 instructions: 10000001 cycles: 6511395 heartbeat IPC: 1.53577 cumulative IPC: 1.53577 (Simulation time: 0 hr 5 min 3 sec) 
Heartbeat CPU 7 instructions: 10000001 cycles: 6744602 heartbeat IPC: 1.48267 cumulative IPC: 1.48267 (Simulation time: 0 hr 5 min 14 sec) 
Heartbeat CPU 2 instructions: 20000000 cycles: 8563706 heartbeat IPC: 2.33273 cumulative IPC: 2.33544 (Simulation time: 0 hr 6 min 41 sec) 
Heartbeat CPU 4 instructions: 20000000 cycles: 9444670 heartbeat IPC: 2.45717 cumulative IPC: 2.1176 (Simulation time: 0 hr 7 min 24 sec) 
Heartbeat CPU 0 instructions: 20000000 cycles: 10007794 heartbeat IPC: 1.97624 cumulative IPC: 1.99844 (Simulation time: 0 hr 7 min 50 sec) 
Heartbeat CPU 3 instructions: 20000000 cycles: 11168347 heartbeat IPC: 1.7905 cumulative IPC: 1.79078 (Simulation time: 0 hr 8 min 45 sec) 
Heartbeat CPU 5 instructions: 20000000 cycles: 11556075 heartbeat IPC: 1.70471 cumulative IPC: 1.73069 (Simulation time: 0 hr 9 min 3 sec) 
Heartbeat CPU 1 instructions: 20000000 cycles: 11738531 heartbeat IPC: 1.71774 cumulative IPC: 1.70379 (Simulation time: 0 hr 9 min 11 sec) 
Heartbeat CPU 7 instructions: 20000000 cycles: 11880694 heartbeat IPC: 1.94701 cumulative IPC: 1.6834 (Simulation time: 0 hr 9 min 17 sec) 
Heartbeat CPU 2 instructions: 30000001 cycles: 12842020 heartbeat IPC: 2.33737 cumulative IPC: 0.778694 (Simulation time: 0 hr 10 min 3 sec) 
Heartbeat CPU 6 instructions: 20000000 cycles: 13010618 heartbeat IPC: 1.53865 cumulative IPC: 1.53721 (Simulation time: 0 hr 10 min 11 sec) 

Warmup complete CPU 0 instructions: 25951497 cycles: 13010620 (Simulation time: 0 hr 10 min 11 sec) 
Warmup complete CPU 1 instructions: 22164992 cycles: 13010620 (Simulation time: 0 hr 10 min 11 sec) 
Warmup complete CPU 2 instructions: 30394116 cycles: 13010620 (Simulation time: 0 hr 10 min 11 sec) 
Warmup complete CPU 3 instructions: 23298891 cycles: 13010620 (Simulation time: 0 hr 10 min 11 sec) 
Warmup complete CPU 4 instructions: 29522945 cycles: 13010620 (Simulation time: 0 hr 10 min 11 sec) 
Warmup complete CPU 5 instructions: 22440351 cycles: 13010620 (Simulation time: 0 hr 10 min 11 sec) 
Warmup complete CPU 6 instructions: 20000001 cycles: 13010620 (Simulation time: 0 hr 10 min 11 sec) 
Warmup complete CPU 7 instructions: 22357765 cycles: 13010619 (Simulation time: 0 hr 10 min 11 sec) 

Heartbeat CPU 4 instructions: 30000000 cycles: 13499131 heartbeat IPC: 2.46642 cumulative IPC: 0.976549 (Simulation time: 0 hr 10 min 22 sec) 
Heartbeat CPU 1 instructions: 30000002 cycles: 20705002 heartbeat IPC: 1.11527 cumulative IPC: 1.01828 (Simulation time: 0 hr 14 min 28 sec) 
Heartbeat CPU 0 instructions: 30000000 cycles: 24042041 heartbeat IPC: 0.712543 cumulative IPC: 0.366997 (Simulation time: 0 hr 16 min 3 sec) 
Heartbeat CPU 5 instructions: 30000000 cycles: 24251554 heartbeat IPC: 0.787682 cumulative IPC: 0.672511 (Simulation time: 0 hr 16 min 7 sec) 
Heartbeat CPU 2 instructions: 40000000 cycles: 25193270 heartbeat IPC: 0.809635 cumulative IPC: 0.788489 (Simulation time: 0 hr 16 min 28 sec) 
Heartbeat CPU 4 instructions: 40000000 cycles: 32646049 heartbeat IPC: 0.522277 cumulative IPC: 0.533579 (Simulation time: 0 hr 18 min 50 sec) 
Heartbeat CPU 1 instructions: 40000000 cycles: 32990711 heartbeat IPC: 0.813954 cumulative IPC: 0.892639 (Simulation time: 0 hr 18 min 57 sec) 
Heartbeat CPU 7 instructions: 30000002 cycles: 33581106 heartbeat IPC: 0.460821 cumulative IPC: 0.371515 (Simulation time: 0 hr 19 min 10 sec) 
Heartbeat CPU 5 instructions: 40000000 cycles: 38227084 heartbeat IPC: 0.715536 cumulative IPC: 0.696357 (Simulation time: 0 hr 20 min 39 sec) 
Heartbeat CPU 2 instructions: 50000003 cycles: 38896389 heartbeat IPC: 0.729761 cumulative IPC: 0.7574 (Simulation time: 0 hr 20 min 52 sec) 
Heartbeat CPU 3 instructions: 30000003 cycles: 39478933 heartbeat IPC: 0.353225 cumulative IPC: 0.253175 (Simulation time: 0 hr 21 min 3 sec) 
Heartbeat CPU 0 instructions: 40000000 cycles: 45687094 heartbeat IPC: 0.461999 cumulative IPC: 0.429927 (Simulation time: 0 hr 23 min 12 sec) 
Heartbeat CPU 1 instructions: 50000003 cycles: 46186670 heartbeat IPC: 0.757808 cumulative IPC: 0.839009 (Simulation time: 0 hr 23 min 24 sec) 
Heartbeat CPU 4 instructions: 50000000 cycles: 47550710 heartbeat IPC: 0.670931 cumulative IPC: 0.592849 (Simulation time: 0 hr 23 min 54 sec) 
Heartbeat CPU 2 instructions: 60000000 cycles: 51339501 heartbeat IPC: 0.803657 cumulative IPC: 0.772417 (Simulation time: 0 hr 25 min 21 sec) 
Heartbeat CPU 5 instructions: 50000002 cycles: 51363576 heartbeat IPC: 0.761238 cumulative IPC: 0.71858 (Simulation time: 0 hr 25 min 22 sec) 
Heartbeat CPU 6 instructions: 30000001 cycles: 51759456 heartbeat IPC: 0.258072 cumulative IPC: 0.258072 (Simulation time: 0 hr 25 min 32 sec) 
Heartbeat CPU 0 instructions: 50000000 cycles: 57868767 heartbeat IPC: 0.820905 cumulative IPC: 0.536101 (Simulation time: 0 hr 27 min 59 sec) 
Heartbeat CPU 1 instructions: 60000000 cycles: 58271290 heartbeat IPC: 0.827498 cumulative IPC: 0.835936 (Simulation time: 0 hr 28 min 8 sec) 
Heartbeat CPU 7 instructions: 40000000 cycles: 60814178 heartbeat IPC: 0.367201 cumulative IPC: 0.369057 (Simulation time: 0 hr 29 min 2 sec) 
Heartbeat CPU 2 instructions: 70000003 cycles: 64177788 heartbeat IPC: 0.77892 cumulative IPC: 0.774049 (Simulation time: 0 hr 30 min 12 sec) 
Heartbeat CPU 5 instructions: 60000000 cycles: 64325550 heartbeat IPC: 0.771487 cumulative IPC: 0.731944 (Simulation time: 0 hr 30 min 15 sec) 
Heartbeat CPU 4 instructions: 60000000 cycles: 64542054 heartbeat IPC: 0.588535 cumulative IPC: 0.591426 (Simulation time: 0 hr 30 min 20 sec) 
Heartbeat CPU 1 instructions: 70000002 cycles: 72375748 heartbeat IPC: 0.708996 cumulative IPC: 0.805776 (Simulation time: 0 hr 32 min 52 sec) 
Heartbeat CPU 2 instructions: 80000000 cycles: 77458087 heartbeat IPC: 0.752995 cumulative IPC: 0.76971 (Simulation time: 0 hr 34 min 30 sec) 
Heartbeat CPU 3 instructions: 40000000 cycles: 78595436 heartbeat IPC: 0.255646 cumulative IPC: 0.254649 (Simulation time: 0 hr 34 min 51 sec) 
Heartbeat CPU 7 instructions: 50000003 cycles: 81325789 heartbeat IPC: 0.487529 cumulative IPC: 0.404628 (Simulation time: 0 hr 35 min 44 sec) 
Heartbeat CPU 1 instructions: 80000000 cycles: 85346880 heartbeat IPC: 0.770943 cumulative IPC: 0.79953 (Simulation time: 0 hr 36 min 58 sec) 
Heartbeat CPU 0 instructions: 60000000 cycles: 85647727 heartbeat IPC: 0.359985 cumulative IPC: 0.468748 (Simulation time: 0 hr 37 min 4 sec) 
Heartbeat CPU 4 instructions: 70000003 cycles: 85656355 heartbeat IPC: 0.473613 cumulative IPC: 0.557184 (Simulation time: 0 hr 37 min 4 sec) 
Heartbeat CPU 5 instructions: 70000002 cycles: 87721143 heartbeat IPC: 0.427431 cumulative IPC: 0.636586 (Simulation time: 0 hr 37 min 48 sec) 
Heartbeat CPU 2 instructions: 90000000 cycles: 90739538 heartbeat IPC: 0.75293 cumulative IPC: 0.766843 (Simulation time: 0 hr 38 min 54 sec) 
Heartbeat CPU 6 instructions: 40000000 cycles: 91991150 heartbeat IPC: 0.24856 cumulative IPC: 0.253227 (Simulation time: 0 hr 39 min 22 sec) 
Heartbeat CPU 7 instructions: 60000000 cycles: 94253625 heartbeat IPC: 0.773524 cumulative IPC: 0.463329 (Simulation time: 0 hr 40 min 12 sec) 
Heartbeat CPU 1 instructions: 90000001 cycles: 97761752 heartbeat IPC: 0.805486 cumulative IPC: 0.800402 (Simulation time: 0 hr 41 min 28 sec) 
Heartbeat CPU 0 instructions: 70000001 cycles: 98423187 heartbeat IPC: 0.782751 cumulative IPC: 0.515715 (Simulation time: 0 hr 41 min 42 sec) 
Heartbeat CPU 4 instructions: 80000000 cycles: 100209641 heartbeat IPC: 0.68713 cumulative IPC: 0.578872 (Simulation time: 0 hr 42 min 24 sec) 
Heartbeat CPU 2 instructions: 100000000 cycles: 102323389 heartbeat IPC: 0.863271 cumulative IPC: 0.77935 (Simulation time: 0 hr 43 min 17 sec) 
Heartbeat CPU 7 instructions: 70000002 cycles: 105184788 heartbeat IPC: 0.914816 cumulative IPC: 0.516872 (Simulation time: 0 hr 44 min 24 sec) 
Heartbeat CPU 1 instructions: 100000000 cycles: 110248694 heartbeat IPC: 0.800837 cumulative IPC: 0.800458 (Simulation time: 0 hr 46 min 14 sec) 
Heartbeat CPU 5 instructions: 80000000 cycles: 111776533 heartbeat IPC: 0.415707 cumulative IPC: 0.582789 (Simulation time: 0 hr 46 min 48 sec) 
Heartbeat CPU 0 instructions: 80000000 cycles: 114538515 heartbeat IPC: 0.620527 cumulative IPC: 0.532351 (Simulation time: 0 hr 47 min 46 sec) 
Heartbeat CPU 2 instructions: 110000001 cycles: 115172179 heartbeat IPC: 0.778283 cumulative IPC: 0.779216 (Simulation time: 0 hr 47 min 59 sec) 
Heartbeat CPU 7 instructions: 80000000 cycles: 115790380 heartbeat IPC: 0.942899 cumulative IPC: 0.560833 (Simulation time: 0 hr 48 min 13 sec) 
Heartbeat CPU 4 instructions: 90000002 cycles: 115802256 heartbeat IPC: 0.641329 cumulative IPC: 0.588346 (Simulation time: 0 hr 48 min 13 sec) 
Heartbeat CPU 3 instructions: 50000003 cycles: 116053522 heartbeat IPC: 0.266965 cumulative IPC: 0.259126 (Simulation time: 0 hr 48 min 19 sec) 
Heartbeat CPU 1 instructions: 110000000 cycles: 123737787 heartbeat IPC: 0.74134 cumulative IPC: 0.793256 (Simulation time: 0 hr 51 min 4 sec) 
Heartbeat CPU 2 instructions: 120000000 cycles: 129044443 heartbeat IPC: 0.720863 cumulative IPC: 0.772239 (Simulation time: 0 hr 52 min 57 sec) 
Heartbeat CPU 6 instructions: 50000003 cycles: 129960963 heartbeat IPC: 0.263367 cumulative IPC: 0.256519 (Simulation time: 0 hr 53 min 17 sec) 
Heartbeat CPU 0 instructions: 90000001 cycles: 132383624 heartbeat IPC: 0.560378 cumulative IPC: 0.536541 (Simulation time: 0 hr 54 min 10 sec) 
Heartbeat CPU 7 instructions: 90000003 cycles: 137952179 heartbeat IPC: 0.451227 cumulative IPC: 0.541391 (Simulation time: 0 hr 56 min 0 sec) 
Heartbeat CPU 1 instructions: 120000000 cycles: 138382604 heartbeat IPC: 0.682835 cumulative IPC: 0.780358 (Simulation time: 0 hr 56 min 8 sec) 
Heartbeat CPU 4 instructions: 100000000 cycles: 139211959 heartbeat IPC: 0.427173 cumulative IPC: 0.558449 (Simulation time: 0 hr 56 min 24 sec) 
Finished CPU 1 instructions: 100000000 cycles: 128538728 cumulative IPC: 0.777976 (Simulation time: 0 hr 57 min 20 sec) 
Heartbeat CPU 5 instructions: 90000002 cycles: 144183542 heartbeat IPC: 0.308575 cumulative IPC: 0.515043 (Simulation time: 0 hr 58 min 25 sec) 
Heartbeat CPU 2 instructions: 130000000 cycles: 144620881 heartbeat IPC: 0.641995 cumulative IPC: 0.756825 (Simulation time: 0 hr 58 min 35 sec) 
Heartbeat CPU 0 instructions: 100000000 cycles: 144879864 heartbeat IPC: 0.800241 cumulative IPC: 0.56153 (Simulation time: 0 hr 58 min 41 sec) 
Finished CPU 2 instructions: 100000001 cycles: 132174930 cumulative IPC: 0.756573 (Simulation time: 0 hr 58 min 51 sec) 
Heartbeat CPU 4 instructions: 110000001 cycles: 148570034 heartbeat IPC: 1.0686 cumulative IPC: 0.593666 (Simulation time: 1 hr 0 min 20 sec) 
Heartbeat CPU 1 instructions: 130000003 cycles: 152418880 heartbeat IPC: 0.71244 cumulative IPC: 0.77352 (Simulation time: 1 hr 1 min 46 sec) 
Heartbeat CPU 3 instructions: 60000000 cycles: 154984970 heartbeat IPC: 0.256862 cumulative IPC: 0.258505 (Simulation time: 1 hr 2 min 45 sec) 
Heartbeat CPU 7 instructions: 100000000 cycles: 157030732 heartbeat IPC: 0.524149 cumulative IPC: 0.539107 (Simulation time: 1 hr 3 min 33 sec) 
Heartbeat CPU 5 instructions: 100000000 cycles: 158904995 heartbeat IPC: 0.679281 cumulative IPC: 0.531615 (Simulation time: 1 hr 4 min 16 sec) 
Heartbeat CPU 4 instructions: 120000000 cycles: 160779439 heartbeat IPC: 0.819041 cumulative IPC: 0.612288 (Simulation time: 1 hr 5 min 5 sec) 
Heartbeat CPU 2 instructions: 140000000 cycles: 161862952 heartbeat IPC: 0.579977 cumulative IPC: 0.73634 (Simulation time: 1 hr 5 min 32 sec) 
Heartbeat CPU 1 instructions: 140000000 cycles: 166724923 heartbeat IPC: 0.699005 cumulative IPC: 0.766585 (Simulation time: 1 hr 7 min 23 sec) 
Heartbeat CPU 0 instructions: 110000001 cycles: 166797675 heartbeat IPC: 0.45625 cumulative IPC: 0.546525 (Simulation time: 1 hr 7 min 25 sec) 
Finished CPU 4 instructions: 100000000 cycles: 156565636 cumulative IPC: 0.63871 (Simulation time: 1 hr 8 min 27 sec) 
Heartbeat CPU 6 instructions: 60000000 cycles: 169919244 heartbeat IPC: 0.250261 cumulative IPC: 0.254925 (Simulation time: 1 hr 8 min 35 sec) 
Heartbeat CPU 4 instructions: 130000000 cycles: 170086926 heartbeat IPC: 1.0744 cumulative IPC: 0.63967 (Simulation time: 1 hr 8 min 39 sec) 
Heartbeat CPU 5 instructions: 110000000 cycles: 173289335 heartbeat IPC: 0.695201 cumulative IPC: 0.546296 (Simulation time: 1 hr 9 min 52 sec) 
Heartbeat CPU 7 instructions: 110000000 cycles: 176832906 heartbeat IPC: 0.504995 cumulative IPC: 0.534984 (Simulation time: 1 hr 11 min 3 sec) 
Heartbeat CPU 1 instructions: 150000000 cycles: 178991528 heartbeat IPC: 0.815221 cumulative IPC: 0.770179 (Simulation time: 1 hr 11 min 53 sec) 
Heartbeat CPU 0 instructions: 120000000 cycles: 179667020 heartbeat IPC: 0.77704 cumulative IPC: 0.564326 (Simulation time: 1 hr 12 min 8 sec) 
Heartbeat CPU 2 instructions: 150000001 cycles: 180596019 heartbeat IPC: 0.533815 cumulative IPC: 0.713701 (Simulation time: 1 hr 12 min 29 sec) 
Heartbeat CPU 4 instructions: 140000000 cycles: 181406080 heartbeat IPC: 0.883458 cumulative IPC: 0.656057 (Simulation time: 1 hr 12 min 47 sec) 
Finished CPU 0 instructions: 100000002 cycles: 174604066 cumulative IPC: 0.572724 (Simulation time: 1 hr 15 min 3 sec) 
Heartbeat CPU 5 instructions: 120000000 cycles: 188850356 heartbeat IPC: 0.642631 cumulative IPC: 0.554821 (Simulation time: 1 hr 15 min 29 sec) 
Heartbeat CPU 4 instructions: 150000000 cycles: 191872308 heartbeat IPC: 0.955454 cumulative IPC: 0.673577 (Simulation time: 1 hr 16 min 29 sec) 
Heartbeat CPU 1 instructions: 160000000 cycles: 192548384 heartbeat IPC: 0.737634 cumulative IPC: 0.767722 (Simulation time: 1 hr 16 min 42 sec) 
Finished CPU 5 instructions: 100000000 cycles: 179584457 cumulative IPC: 0.556841 (Simulation time: 1 hr 16 min 43 sec) 
Heartbeat CPU 3 instructions: 70000001 cycles: 192603640 heartbeat IPC: 0.265825 cumulative IPC: 0.260039 (Simulation time: 1 hr 16 min 43 sec) 
Heartbeat CPU 7 instructions: 120000000 cycles: 193591161 heartbeat IPC: 0.596721 cumulative IPC: 0.540713 (Simulation time: 1 hr 17 min 4 sec) 
Heartbeat CPU 0 instructions: 130000001 cycles: 196519788 heartbeat IPC: 0.593374 cumulative IPC: 0.566993 (Simulation time: 1 hr 18 min 6 sec) 
Finished CPU 7 instructions: 100000000 cycles: 184584049 cumulative IPC: 0.541759 (Simulation time: 1 hr 18 min 29 sec) 
Heartbeat CPU 4 instructions: 160000000 cycles: 203201282 heartbeat IPC: 0.882692 cumulative IPC: 0.686033 (Simulation time: 1 hr 20 min 24 sec) 
Heartbeat CPU 2 instructions: 160000000 cycles: 203226811 heartbeat IPC: 0.441876 cumulative IPC: 0.681361 (Simulation time: 1 hr 20 min 24 sec) 
Heartbeat CPU 5 instructions: 130000000 cycles: 204459309 heartbeat IPC: 0.640658 cumulative IPC: 0.56182 (Simulation time: 1 hr 20 min 49 sec) 
Heartbeat CPU 1 instructions: 170000000 cycles: 206198991 heartbeat IPC: 0.732568 cumulative IPC: 0.765238 (Simulation time: 1 hr 21 min 22 sec) 
Heartbeat CPU 6 instructions: 70000000 cycles: 209642922 heartbeat IPC: 0.251739 cumulative IPC: 0.254282 (Simulation time: 1 hr 22 min 30 sec) 
Heartbeat CPU 7 instructions: 130000001 cycles: 210361758 heartbeat IPC: 0.596282 cumulative IPC: 0.545435 (Simulation time: 1 hr 22 min 44 sec) 
Heartbeat CPU 0 instructions: 140000000 cycles: 212327125 heartbeat IPC: 0.632618 cumulative IPC: 0.572198 (Simulation time: 1 hr 23 min 20 sec) 
Heartbeat CPU 4 instructions: 170000000 cycles: 217913500 heartbeat IPC: 0.679707 cumulative IPC: 0.685579 (Simulation time: 1 hr 25 min 1 sec) 
Heartbeat CPU 1 instructions: 180000000 cycles: 220871049 heartbeat IPC: 0.681568 cumulative IPC: 0.759332 (Simulation time: 1 hr 25 min 57 sec) 
Heartbeat CPU 4 instructions: 180000000 cycles: 227199351 heartbeat IPC: 1.07691 cumulative IPC: 0.702544 (Simulation time: 1 hr 28 min 2 sec) 
Heartbeat CPU 0 instructions: 150000002 cycles: 227814051 heartbeat IPC: 0.645706 cumulative IPC: 0.577498 (Simulation time: 1 hr 28 min 14 sec) 
Heartbeat CPU 2 instructions: 170000002 cycles: 230228375 heartbeat IPC: 0.370349 cumulative IPC: 0.6427 (Simulation time: 1 hr 29 min 2 sec) 
Heartbeat CPU 3 instructions: 80000000 cycles: 231162738 heartbeat IPC: 0.259342 cumulative IPC: 0.259915 (Simulation time: 1 hr 29 min 18 sec) 
Heartbeat CPU 7 instructions: 140000000 cycles: 235366267 heartbeat IPC: 0.399928 cumulative IPC: 0.529072 (Simulation time: 1 hr 30 min 28 sec) 
Heartbeat CPU 1 instructions: 190000001 cycles: 235379165 heartbeat IPC: 0.689269 cumulative IPC: 0.754761 (Simulation time: 1 hr 30 min 29 sec) 
Heartbeat CPU 5 instructions: 140000000 cycles: 237093848 heartbeat IPC: 0.306424 cumulative IPC: 0.524625 (Simulation time: 1 hr 31 min 2 sec) 
Heartbeat CPU 4 instructions: 190000002 cycles: 242478551 heartbeat IPC: 0.654485 cumulative IPC: 0.699344 (Simulation time: 1 hr 32 min 46 sec) 
Heartbeat CPU 1 instructions: 200000000 cycles: 248299321 heartbeat IPC: 0.773984 cumulative IPC: 0.755816 (Simulation time: 1 hr 34 min 32 sec) 
Heartbeat CPU 6 instructions: 80000000 cycles: 249259904 heartbeat IPC: 0.252417 cumulative IPC: 0.253969 (Simulation time: 1 hr 34 min 51 sec) 
Heartbeat CPU 0 instructions: 160000000 cycles: 253131960 heartbeat IPC: 0.394977 cumulative IPC: 0.558253 (Simulation time: 1 hr 36 min 11 sec) 
Heartbeat CPU 7 instructions: 150000000 cycles: 255603748 heartbeat IPC: 0.494133 cumulative IPC: 0.526158 (Simulation time: 1 hr 37 min 1 sec) 
Heartbeat CPU 4 instructions: 200000000 cycles: 257533219 heartbeat IPC: 0.664246 cumulative IPC: 0.697183 (Simulation time: 1 hr 37 min 42 sec) 
Heartbeat CPU 2 instructions: 180000000 cycles: 258775379 heartbeat IPC: 0.350299 cumulative IPC: 0.608736 (Simulation time: 1 hr 38 min 8 sec) 
Heartbeat CPU 1 instructions: 210000003 cycles: 260587840 heartbeat IPC: 0.813768 cumulative IPC: 0.758693 (Simulation time: 1 hr 38 min 45 sec) 
Heartbeat CPU 0 instructions: 170000003 cycles: 264829412 heartbeat IPC: 0.854887 cumulative IPC: 0.572032 (Simulation time: 1 hr 40 min 14 sec) 
Heartbeat CPU 5 instructions: 150000001 cycles: 266278068 heartbeat IPC: 0.342651 cumulative IPC: 0.503656 (Simulation time: 1 hr 40 min 43 sec) 
Heartbeat CPU 3 instructions: 90000000 cycles: 268590887 heartbeat IPC: 0.267179 cumulative IPC: 0.260979 (Simulation time: 1 hr 41 min 31 sec) 
Heartbeat CPU 4 instructions: 210000003 cycles: 272582098 heartbeat IPC: 0.664502 cumulative IPC: 0.695288 (Simulation time: 1 hr 42 min 51 sec) 
Heartbeat CPU 7 instructions: 160000000 cycles: 272920747 heartbeat IPC: 0.577467 cumulative IPC: 0.529576 (Simulation time: 1 hr 42 min 58 sec) 
Heartbeat CPU 1 instructions: 220000000 cycles: 274594818 heartbeat IPC: 0.71393 cumulative IPC: 0.756296 (Simulation time: 1 hr 43 min 31 sec) 
Heartbeat CPU 0 instructions: 180000000 cycles: 281931697 heartbeat IPC: 0.584717 cumulative IPC: 0.572839 (Simulation time: 1 hr 46 min 2 sec) 
Heartbeat CPU 2 instructions: 190000000 cycles: 287401008 heartbeat IPC: 0.349337 cumulative IPC: 0.581674 (Simulation time: 1 hr 47 min 58 sec) 
Heartbeat CPU 1 instructions: 230000001 cycles: 287721497 heartbeat IPC: 0.761807 cumulative IPC: 0.756559 (Simulation time: 1 hr 48 min 4 sec) 
Heartbeat CPU 4 instructions: 220000000 cycles: 287933090 heartbeat IPC: 0.651424 cumulative IPC: 0.692839 (Simulation time: 1 hr 48 min 8 sec) 
Heartbeat CPU 6 instructions: 90000000 cycles: 288825440 heartbeat IPC: 0.252745 cumulative IPC: 0.253793 (Simulation time: 1 hr 48 min 25 sec) 
Heartbeat CPU 5 instructions: 160000000 cycles: 290187859 heartbeat IPC: 0.418239 cumulative IPC: 0.496288 (Simulation time: 1 hr 48 min 52 sec) 
Heartbeat CPU 7 instructions: 170000003 cycles: 290444318 heartbeat IPC: 0.57066 cumulative IPC: 0.532171 (Simulation time: 1 hr 48 min 57 sec) 
Heartbeat CPU 0 instructions: 190000000 cycles: 296839812 heartbeat IPC: 0.670776 cumulative IPC: 0.577983 (Simulation time: 1 hr 51 min 4 sec) 
Heartbeat CPU 1 instructions: 240000000 cycles: 302814277 heartbeat IPC: 0.662568 cumulative IPC: 0.751664 (Simulation time: 1 hr 53 min 3 sec) 
Heartbeat CPU 4 instructions: 230000003 cycles: 304090748 heartbeat IPC: 0.618902 cumulative IPC: 0.688735 (Simulation time: 1 hr 53 min 27 sec) 
Heartbeat CPU 5 instructions: 170000003 cycles: 307060496 heartbeat IPC: 0.592676 cumulative IPC: 0.501818 (Simulation time: 1 hr 54 min 23 sec) 
Heartbeat CPU 3 instructions: 100000000 cycles: 307272289 heartbeat IPC: 0.258522 cumulative IPC: 0.260656 (Simulation time: 1 hr 54 min 27 sec) 
Heartbeat CPU 0 instructions: 200000000 cycles: 310558982 heartbeat IPC: 0.728907 cumulative IPC: 0.584942 (Simulation time: 1 hr 55 min 26 sec) 
Heartbeat CPU 7 instructions: 180000000 cycles: 314765880 heartbeat IPC: 0.411158 cumulative IPC: 0.522418 (Simulation time: 1 hr 56 min 36 sec) 
Heartbeat CPU 2 instructions: 200000000 cycles: 316259873 heartbeat IPC: 0.346514 cumulative IPC: 0.559295 (Simulation time: 1 hr 57 min 2 sec) 
Heartbeat CPU 1 instructions: 250000000 cycles: 317406605 heartbeat IPC: 0.685292 cumulative IPC: 0.748482 (Simulation time: 1 hr 57 min 22 sec) 
Heartbeat CPU 4 instructions: 240000000 cycles: 325303945 heartbeat IPC: 0.471405 cumulative IPC: 0.673972 (Simulation time: 1 hr 59 min 41 sec) 
Heartbeat CPU 6 instructions: 100000000 cycles: 328852455 heartbeat IPC: 0.249831 cumulative IPC: 0.253291 (Simulation time: 2 hr 0 min 53 sec) 
Heartbeat CPU 0 instructions: 210000002 cycles: 329054350 heartbeat IPC: 0.540676 cumulative IPC: 0.582351 (Simulation time: 2 hr 0 min 58 sec) 
Heartbeat CPU 1 instructions: 260000000 cycles: 329652960 heartbeat IPC: 0.81657 cumulative IPC: 0.751116 (Simulation time: 2 hr 1 min 10 sec) 
Heartbeat CPU 5 instructions: 180000000 cycles: 329870784 heartbeat IPC: 0.438399 cumulative IPC: 0.497253 (Simulation time: 2 hr 1 min 15 sec) 
Heartbeat CPU 4 instructions: 250000003 cycles: 335255963 heartbeat IPC: 1.00482 cumulative IPC: 0.68419 (Simulation time: 2 hr 3 min 1 sec) 
Heartbeat CPU 7 instructions: 190000001 cycles: 336418461 heartbeat IPC: 0.461839 cumulative IPC: 0.518362 (Simulation time: 2 hr 3 min 23 sec) 
Heartbeat CPU 0 instructions: 220000000 cycles: 340038150 heartbeat IPC: 0.910432 cumulative IPC: 0.593371 (Simulation time: 2 hr 4 min 37 sec) 
Heartbeat CPU 2 instructions: 210000002 cycles: 342377314 heartbeat IPC: 0.382886 cumulative IPC: 0.545307 (Simulation time: 2 hr 5 min 24 sec) 
Heartbeat CPU 1 instructions: 270000002 cycles: 342519783 heartbeat IPC: 0.777193 cumulative IPC: 0.752134 (Simulation time: 2 hr 5 min 27 sec) 
Heartbeat CPU 4 instructions: 260000000 cycles: 345274743 heartbeat IPC: 0.998125 cumulative IPC: 0.693656 (Simulation time: 2 hr 6 min 18 sec) 
Heartbeat CPU 3 instructions: 110000003 cycles: 346484938 heartbeat IPC: 0.25502 cumulative IPC: 0.259993 (Simulation time: 2 hr 6 min 40 sec) 
Heartbeat CPU 1 instructions: 280000000 cycles: 356058433 heartbeat IPC: 0.738626 cumulative IPC: 0.751601 (Simulation time: 2 hr 9 min 20 sec) 
Heartbeat CPU 4 instructions: 270000000 cycles: 356261449 heartbeat IPC: 0.910191 cumulative IPC: 0.700587 (Simulation time: 2 hr 9 min 23 sec) 
Heartbeat CPU 0 instructions: 230000001 cycles: 357973510 heartbeat IPC: 0.557558 cumulative IPC: 0.591509 (Simulation time: 2 hr 9 min 52 sec) 
Heartbeat CPU 7 instructions: 200000000 cycles: 361411610 heartbeat IPC: 0.40011 cumulative IPC: 0.509879 (Simulation time: 2 hr 10 min 45 sec) 
Heartbeat CPU 5 instructions: 190000003 cycles: 362389254 heartbeat IPC: 0.307518 cumulative IPC: 0.479593 (Simulation time: 2 hr 11 min 2 sec) 
Heartbeat CPU 4 instructions: 280000000 cycles: 365810423 heartbeat IPC: 1.04723 cumulative IPC: 0.709969 (Simulation time: 2 hr 12 min 5 sec) 
Heartbeat CPU 6 instructions: 110000000 cycles: 366629024 heartbeat IPC: 0.264714 cumulative IPC: 0.254512 (Simulation time: 2 hr 12 min 18 sec) 
Heartbeat CPU 2 instructions: 220000000 cycles: 366686800 heartbeat IPC: 0.411362 cumulative IPC: 0.5361 (Simulation time: 2 hr 12 min 19 sec) 
Heartbeat CPU 0 instructions: 240000000 cycles: 373475710 heartbeat IPC: 0.64507 cumulative IPC: 0.593812 (Simulation time: 2 hr 14 min 28 sec) 
Heartbeat CPU 4 instructions: 290000003 cycles: 375813097 heartbeat IPC: 0.999733 cumulative IPC: 0.717958 (Simulation time: 2 hr 15 min 15 sec) 
Heartbeat CPU 1 instructions: 290000001 cycles: 376451932 heartbeat IPC: 0.490352 cumulative IPC: 0.736942 (Simulation time: 2 hr 15 min 26 sec) 
Heartbeat CPU 7 instructions: 210000000 cycles: 379460924 heartbeat IPC: 0.554038 cumulative IPC: 0.512054 (Simulation time: 2 hr 16 min 18 sec) 
Heartbeat CPU 3 instructions: 120000000 cycles: 384154016 heartbeat IPC: 0.26547 cumulative IPC: 0.260549 (Simulation time: 2 hr 17 min 39 sec) 
Heartbeat CPU 0 instructions: 250000000 cycles: 386413874 heartbeat IPC: 0.772907 cumulative IPC: 0.600018 (Simulation time: 2 hr 18 min 11 sec) 
Heartbeat CPU 4 instructions: 300000000 cycles: 388010146 heartbeat IPC: 0.81987 cumulative IPC: 0.721273 (Simulation time: 2 hr 18 min 36 sec) 
Heartbeat CPU 2 instructions: 230000003 cycles: 389513928 heartbeat IPC: 0.438075 cumulative IPC: 0.530157 (Simulation time: 2 hr 18 min 59 sec) 
Heartbeat CPU 5 instructions: 200000000 cycles: 392724200 heartbeat IPC: 0.329653 cumulative IPC: 0.467615 (Simulation time: 2 hr 19 min 48 sec) 
Finished CPU 3 instructions: 100000002 cycles: 384230545 cumulative IPC: 0.26026 (Simulation time: 2 hr 20 min 55 sec) 
Heartbeat CPU 7 instructions: 220000000 cycles: 403583667 heartbeat IPC: 0.414547 cumulative IPC: 0.506031 (Simulation time: 2 hr 22 min 31 sec) 
Heartbeat CPU 1 instructions: 300000000 cycles: 403858097 heartbeat IPC: 0.364881 cumulative IPC: 0.710853 (Simulation time: 2 hr 22 min 36 sec) 
Heartbeat CPU 6 instructions: 120000000 cycles: 405327857 heartbeat IPC: 0.258406 cumulative IPC: 0.254896 (Simulation time: 2 hr 22 min 57 sec) 
Finished CPU 6 instructions: 100000001 cycles: 392317246 cumulative IPC: 0.254896 (Simulation time: 2 hr 22 min 57 sec) 

CPU 0 Branch Prediction Accuracy: 99.8842% MPKI: 0.0626197

CPU 1 Branch Prediction Accuracy: 98.3366% MPKI: 2.11432

CPU 2 Branch Prediction Accuracy: 97.8237% MPKI: 0.311122

CPU 3 Branch Prediction Accuracy: 96.289% MPKI: 8.44043

CPU 4 Branch Prediction Accuracy: 99.2698% MPKI: 0.363803

CPU 5 Branch Prediction Accuracy: 96.4704% MPKI: 5.10391

CPU 6 Branch Prediction Accuracy: 90.0354% MPKI: 19.3652

CPU 7 Branch Prediction Accuracy: 99.7539% MPKI: 0.0947011

ChampSim completed all CPUs

Total Simulation Statistics (not including warmup)

CPU 0 cumulative IPC: 0.595695 instructions: 233701592 cycles: 392317246
L1D TOTAL     ACCESS:   59656058  HIT:   54105353  MISS:    5550705
L1D LOAD      ACCESS:   55984460  HIT:   52064299  MISS:    3920161
L1D RFO       ACCESS:    3671598  HIT:    2041054  MISS:    1630544
L1D PREFETCH  ACCESS:          0  HIT:          0  MISS:          0
L1D WRITEBACK ACCESS:          0  HIT:          0  MISS:          0
L1I TOTAL     ACCESS:   64083732  HIT:   64083682  MISS:         50
L1I LOAD      ACCESS:   64083732  HIT:   64083682  MISS:         50
L1I RFO       ACCESS:          0  HIT:          0  MISS:          0
L1I PREFETCH  ACCESS:          0  HIT:          0  MISS:          0
L1I WRITEBACK ACCESS:          0  HIT:          0  MISS:          0
L2C TOTAL     ACCESS:    9682074  HIT:    4514426  MISS:    5167648
L2C LOAD      ACCESS:    3920207  HIT:    2868411  MISS:    1051796
L2C RFO       ACCESS:    1630544  HIT:          6  MISS:    1630538
L2C PREFETCH  ACCESS:    2491352  HIT:       6066  MISS:    2485286
L2C WRITEBACK ACCESS:    1639971  HIT:    1639943  MISS:         28

L2C Best-offset prefetcher final stats
LLC TOTAL     ACCESS:    7039945  HIT:    1854391  MISS:    5185554
LLC LOAD      ACCESS:     540012  HIT:     223028  MISS:     316984
LLC RFO       ACCESS:    1630538  HIT:          1  MISS:    1630537
LLC PREFETCH  ACCESS:    3238893  HIT:        904  MISS:    3237989
LLC WRITEBACK ACCESS:    1630502  HIT:    1630458  MISS:         44

CPU 1 cumulative IPC: 0.709903 instructions: 278507221 cycles: 392317246
L1D TOTAL     ACCESS:  104095472  HIT:  103964884  MISS:     130588
L1D LOAD      ACCESS:   44595434  HIT:   44480403  MISS:     115031
L1D RFO       ACCESS:   59500038  HIT:   59484481  MISS:      15557
L1D PREFETCH  ACCESS:          0  HIT:          0  MISS:          0
L1D WRITEBACK ACCESS:          0  HIT:          0  MISS:          0
L1I TOTAL     ACCESS:   76270519  HIT:   76115811  MISS:     154708
L1I LOAD      ACCESS:   76270519  HIT:   76115811  MISS:     154708
L1I RFO       ACCESS:          0  HIT:          0  MISS:          0
L1I PREFETCH  ACCESS:          0  HIT:          0  MISS:          0
L1I WRITEBACK ACCESS:          0  HIT:          0  MISS:          0
L2C TOTAL     ACCESS:     381033  HIT:     279195  MISS:     101838
L2C LOAD      ACCESS:     269737  HIT:     213815  MISS:      55922
L2C RFO       ACCESS:      15556  HIT:      11365  MISS:       4191
L2C PREFETCH  ACCESS:      60262  HIT:      19176  MISS:      41086
L2C WRITEBACK ACCESS:      35478  HIT:      34839  MISS:        639

L2C Best-offset prefetcher final stats
LLC TOTAL     ACCESS:     114201  HIT:      28346  MISS:      85855
LLC LOAD      ACCESS:      52042  HIT:      11247  MISS:      40795
LLC RFO       ACCESS:       4136  HIT:       1025  MISS:       3111
LLC PREFETCH  ACCESS:      45047  HIT:       7200  MISS:      37847
LLC WRITEBACK ACCESS:      12976  HIT:       8874  MISS:       4102

CPU 2 cumulative IPC: 0.52593 instructions: 206331213 cycles: 392317246
L1D TOTAL     ACCESS:   56128657  HIT:   43510970  MISS:   12617687
L1D LOAD      ACCESS:   21336363  HIT:   19423321  MISS:    1913042
L1D RFO       ACCESS:   34792294  HIT:   24087649  MISS:   10704645
L1D PREFETCH  ACCESS:          0  HIT:          0  MISS:          0
L1D WRITEBACK ACCESS:          0  HIT:          0  MISS:          0
L1I TOTAL     ACCESS:   49141341  HIT:   49141341  MISS:          0
L1I LOAD      ACCESS:   49141341  HIT:   49141341  MISS:          0
L1I RFO       ACCESS:          0  HIT:          0  MISS:          0
L1I PREFETCH  ACCESS:          0  HIT:          0  MISS:          0
L1I WRITEBACK ACCESS:          0  HIT:          0  MISS:          0
L2C TOTAL     ACCESS:   24936867  HIT:   15427069  MISS:    9509798
L2C LOAD      ACCESS:    1913042  HIT:    1614719  MISS:     298323
L2C RFO       ACCESS:   10704634  HIT:    3109779  MISS:    7594855
L2C PREFETCH  ACCESS:    1614552  HIT:         49  MISS:    1614503
L2C WRITEBACK ACCESS:   10704639  HIT:   10702522  MISS:       2117

L2C Best-offset prefetcher final stats
LLC TOTAL     ACCESS:   17126766  HIT:    9483345  MISS:    7643421
LLC LOAD      ACCESS:     279518  HIT:      27238  MISS:     252280
LLC RFO       ACCESS:    7590762  HIT:    1858482  MISS:    5732280
LLC PREFETCH  ACCESS:    1659633  HIT:       1079  MISS:    1658554
LLC WRITEBACK ACCESS:    7596853  HIT:    7596546  MISS:        307

CPU 3 cumulative IPC: 0.2601 instructions: 102041629 cycles: 392317246
L1D TOTAL     ACCESS:   31333000  HIT:   28561558  MISS:    2771442
L1D LOAD      ACCESS:   21430718  HIT:   18660078  MISS:    2770640
L1D RFO       ACCESS:    9902282  HIT:    9901480  MISS:        802
L1D PREFETCH  ACCESS:          0  HIT:          0  MISS:          0
L1D WRITEBACK ACCESS:          0  HIT:          0  MISS:          0
L1I TOTAL     ACCESS:   25433494  HIT:   25433494  MISS:          0
L1I LOAD      ACCESS:   25433494  HIT:   25433494  MISS:          0
L1I RFO       ACCESS:          0  HIT:          0  MISS:          0
L1I PREFETCH  ACCESS:          0  HIT:          0  MISS:          0
L1I WRITEBACK ACCESS:          0  HIT:          0  MISS:          0
L2C TOTAL     ACCESS:    4033837  HIT:    2207247  MISS:    1826590
L2C LOAD      ACCESS:    2770641  HIT:    2198472  MISS:     572169
L2C RFO       ACCESS:        802  HIT:        263  MISS:        539
L2C PREFETCH  ACCESS:    1255814  HIT:       1932  MISS:    1253882
L2C WRITEBACK ACCESS:       6580  HIT:       6580  MISS:          0

L2C Best-offset prefetcher final stats
LLC TOTAL     ACCESS:    1829090  HIT:       4747  MISS:    1824343
LLC LOAD      ACCESS:      99864  HIT:       1768  MISS:      98096
LLC RFO       ACCESS:        539  HIT:         18  MISS:        521
LLC PREFETCH  ACCESS:    1726187  HIT:        463  MISS:    1725724
LLC WRITEBACK ACCESS:       2500  HIT:       2498  MISS:          2

CPU 4 cumulative IPC: 0.708718 instructions: 278042205 cycles: 392317246
L1D TOTAL     ACCESS:   68042238  HIT:   62812960  MISS:    5229278
L1D LOAD      ACCESS:   56789663  HIT:   52501014  MISS:    4288649
L1D RFO       ACCESS:   11252575  HIT:   10311946  MISS:     940629
L1D PREFETCH  ACCESS:          0  HIT:          0  MISS:          0
L1D WRITEBACK ACCESS:          0  HIT:          0  MISS:          0
L1I TOTAL     ACCESS:   73856599  HIT:   73847729  MISS:       8870
L1I LOAD      ACCESS:   73856599  HIT:   73847729  MISS:       8870
L1I RFO       ACCESS:          0  HIT:          0  MISS:          0
L1I PREFETCH  ACCESS:          0  HIT:          0  MISS:          0
L1I WRITEBACK ACCESS:          0  HIT:          0  MISS:          0
L2C TOTAL     ACCESS:    9108678  HIT:    5208371  MISS:    3900307
L2C LOAD      ACCESS:    4297353  HIT:    3077467  MISS:    1219886
L2C RFO       ACCESS:     940623  HIT:     217896  MISS:     722727
L2C PREFETCH  ACCESS:    1998883  HIT:      46319  MISS:    1952564
L2C WRITEBACK ACCESS:    1871819  HIT:    1866689  MISS:       5130

L2C Best-offset prefetcher final stats
LLC TOTAL     ACCESS:    5696054  HIT:    2373149  MISS:    3322905
LLC LOAD      ACCESS:     816793  HIT:     353579  MISS:     463214
LLC RFO       ACCESS:     722269  HIT:      93576  MISS:     628693
LLC PREFETCH  ACCESS:    2634561  HIT:     414218  MISS:    2220343
LLC WRITEBACK ACCESS:    1522431  HIT:    1511776  MISS:      10655

CPU 5 cumulative IPC: 0.462982 instructions: 181636020 cycles: 392317246
L1D TOTAL     ACCESS:   67654343  HIT:   66939045  MISS:     715298
L1D LOAD      ACCESS:   32361418  HIT:   31710878  MISS:     650540
L1D RFO       ACCESS:   35292925  HIT:   35228167  MISS:      64758
L1D PREFETCH  ACCESS:          0  HIT:          0  MISS:          0
L1D WRITEBACK ACCESS:          0  HIT:          0  MISS:          0
L1I TOTAL     ACCESS:   49658362  HIT:   48791399  MISS:     866963
L1I LOAD      ACCESS:   49658362  HIT:   48791399  MISS:     866963
L1I RFO       ACCESS:          0  HIT:          0  MISS:          0
L1I PREFETCH  ACCESS:          0  HIT:          0  MISS:          0
L1I WRITEBACK ACCESS:          0  HIT:          0  MISS:          0
L2C TOTAL     ACCESS:    2154303  HIT:    1517790  MISS:     636513
L2C LOAD      ACCESS:    1517500  HIT:    1161818  MISS:     355682
L2C RFO       ACCESS:      64757  HIT:      41867  MISS:      22890
L2C PREFETCH  ACCESS:     371625  HIT:     118072  MISS:     253553
L2C WRITEBACK ACCESS:     200421  HIT:     196033  MISS:       4388

L2C Best-offset prefetcher final stats
LLC TOTAL     ACCESS:     720013  HIT:     294972  MISS:     425041
LLC LOAD      ACCESS:     331034  HIT:     125806  MISS:     205228
LLC RFO       ACCESS:      22492  HIT:       9502  MISS:      12990
LLC PREFETCH  ACCESS:     278697  HIT:      88123  MISS:     190574
LLC WRITEBACK ACCESS:      87790  HIT:      71541  MISS:      16249

CPU 6 cumulative IPC: 0.254896 instructions: 100000001 cycles: 392317246
L1D TOTAL     ACCESS:   38888799  HIT:   34853963  MISS:    4034836
L1D LOAD      ACCESS:   27925812  HIT:   24284510  MISS:    3641302
L1D RFO       ACCESS:   10962987  HIT:   10569453  MISS:     393534
L1D PREFETCH  ACCESS:          0  HIT:          0  MISS:          0
L1D WRITEBACK ACCESS:          0  HIT:          0  MISS:          0
L1I TOTAL     ACCESS:   23869790  HIT:   23869790  MISS:          0
L1I LOAD      ACCESS:   23869790  HIT:   23869790  MISS:          0
L1I RFO       ACCESS:          0  HIT:          0  MISS:          0
L1I PREFETCH  ACCESS:          0  HIT:          0  MISS:          0
L1I WRITEBACK ACCESS:          0  HIT:          0  MISS:          0
L2C TOTAL     ACCESS:    6757528  HIT:    2517732  MISS:    4239796
L2C LOAD      ACCESS:    3641292  HIT:    1703713  MISS:    1937579
L2C RFO       ACCESS:     393521  HIT:      78475  MISS:     315046
L2C PREFETCH  ACCESS:    2161582  HIT:     175237  MISS:    1986345
L2C WRITEBACK ACCESS:     561133  HIT:     560307  MISS:        826

L2C Best-offset prefetcher final stats
LLC TOTAL     ACCESS:    4796281  HIT:    3174541  MISS:    1621740
LLC LOAD      ACCESS:    1881839  HIT:    1341059  MISS:     540780
LLC RFO       ACCESS:     315039  HIT:     312107  MISS:       2932
LLC PREFETCH  ACCESS:    2184707  HIT:    1106852  MISS:    1077855
LLC WRITEBACK ACCESS:     414696  HIT:     414523  MISS:        173

CPU 7 cumulative IPC: 0.505095 instructions: 198157318 cycles: 392317247
L1D TOTAL     ACCESS:   54795588  HIT:   48210140  MISS:    6585448
L1D LOAD      ACCESS:   49084158  HIT:   43709580  MISS:    5374578
L1D RFO       ACCESS:    5711430  HIT:    4500560  MISS:    1210870
L1D PREFETCH  ACCESS:          0  HIT:          0  MISS:          0
L1D WRITEBACK ACCESS:          0  HIT:          0  MISS:          0
L1I TOTAL     ACCESS:   47397184  HIT:   47396423  MISS:        761
L1I LOAD      ACCESS:   47397184  HIT:   47396423  MISS:        761
L1I RFO       ACCESS:          0  HIT:          0  MISS:          0
L1I PREFETCH  ACCESS:          0  HIT:          0  MISS:          0
L1I WRITEBACK ACCESS:          0  HIT:          0  MISS:          0
L2C TOTAL     ACCESS:   10887519  HIT:    5528437  MISS:    5359082
L2C LOAD      ACCESS:    5375172  HIT:    3867959  MISS:    1507213
L2C RFO       ACCESS:    1210747  HIT:        509  MISS:    1210238
L2C PREFETCH  ACCESS:    2645728  HIT:       4521  MISS:    2641207
L2C WRITEBACK ACCESS:    1655872  HIT:    1655448  MISS:        424

L2C Best-offset prefetcher final stats
LLC TOTAL     ACCESS:    7352160  HIT:    1980162  MISS:    5371998
LLC LOAD      ACCESS:     725140  HIT:     329699  MISS:     395441
LLC RFO       ACCESS:    1210237  HIT:        481  MISS:    1209756
LLC PREFETCH  ACCESS:    3773666  HIT:       6985  MISS:    3766681
LLC WRITEBACK ACCESS:    1643117  HIT:    1642997  MISS:        120

Region of Interest Statistics

CPU 0 cumulative IPC: 0.572724 instructions: 100000002 cycles: 174604066
L1D TOTAL     ACCESS:   25383011  HIT:   23175406  MISS:    2207605
L1D LOAD      ACCESS:   23750154  HIT:   22231921  MISS:    1518233
L1D RFO       ACCESS:    1632857  HIT:     943485  MISS:     689372
L1D PREFETCH  ACCESS:          0  HIT:          0  MISS:          0
L1D WRITEBACK ACCESS:          0  HIT:          0  MISS:          0
L1D PREFETCH  REQUESTED:          0  ISSUED:          0  USEFUL:          0  USELESS:          0
L1I TOTAL     ACCESS:   28238815  HIT:   28238815  MISS:          0
L1I LOAD      ACCESS:   28238815  HIT:   28238815  MISS:          0
L1I RFO       ACCESS:          0  HIT:          0  MISS:          0
L1I PREFETCH  ACCESS:          0  HIT:          0  MISS:          0
L1I WRITEBACK ACCESS:          0  HIT:          0  MISS:          0
L1I PREFETCH  REQUESTED:          0  ISSUED:          0  USEFUL:          0  USELESS:          0
L2C TOTAL     ACCESS:    3955127  HIT:    1730197  MISS:    2224930
L2C LOAD      ACCESS:    1518232  HIT:    1033621  MISS:     484611
L2C RFO       ACCESS:     689372  HIT:          1  MISS:     689371
L2C PREFETCH  ACCESS:    1054179  HIT:       3235  MISS:    1050944
L2C WRITEBACK ACCESS:     693344  HIT:     693340  MISS:          4
L2C PREFETCH  REQUESTED:    3627182  ISSUED:    3627182  USEFUL:    2767584  USELESS:      88247
LLC TOTAL     ACCESS:    3017267  HIT:     784457  MISS:    2232810
LLC LOAD      ACCESS:     236099  HIT:      96358  MISS:     139741
LLC RFO       ACCESS:     689371  HIT:          0  MISS:     689371
LLC PREFETCH  ACCESS:    1404095  HIT:        416  MISS:    1403679
LLC WRITEBACK ACCESS:     687702  HIT:     687683  MISS:         19
LLC PREFETCH  REQUESTED:          0  ISSUED:          0  USEFUL:    1142486  USELESS:   14678848
Major fault: 0 Minor fault: 53334

CPU 1 cumulative IPC: 0.777976 instructions: 100000000 cycles: 128538728
L1D TOTAL     ACCESS:   37550368  HIT:   37543305  MISS:       7063
L1D LOAD      ACCESS:   15612523  HIT:   15605768  MISS:       6755
L1D RFO       ACCESS:   21937845  HIT:   21937537  MISS:        308
L1D PREFETCH  ACCESS:          0  HIT:          0  MISS:          0
L1D WRITEBACK ACCESS:          0  HIT:          0  MISS:          0
L1D PREFETCH  REQUESTED:          0  ISSUED:          0  USEFUL:          0  USELESS:          0
L1I TOTAL     ACCESS:   27567089  HIT:   27564212  MISS:       2877
L1I LOAD      ACCESS:   27567089  HIT:   27564212  MISS:       2877
L1I RFO       ACCESS:          0  HIT:          0  MISS:          0
L1I PREFETCH  ACCESS:          0  HIT:          0  MISS:          0
L1I WRITEBACK ACCESS:          0  HIT:          0  MISS:          0
L1I PREFETCH  REQUESTED:          0  ISSUED:          0  USEFUL:          0  USELESS:          0
L2C TOTAL     ACCESS:      15973  HIT:       7702  MISS:       8271
L2C LOAD      ACCESS:       9632  HIT:       4934  MISS:       4698
L2C RFO       ACCESS:        308  HIT:        116  MISS:        192
L2C PREFETCH  ACCESS:       5199  HIT:       1832  MISS:       3367
L2C WRITEBACK ACCESS:        834  HIT:        820  MISS:         14
L2C PREFETCH  REQUESTED:      72147  ISSUED:      72147  USEFUL:      16023  USELESS:      25990
LLC TOTAL     ACCESS:       8808  HIT:          3  MISS:       8805
LLC LOAD      ACCESS:       4367  HIT:          0  MISS:       4367
LLC RFO       ACCESS:        192  HIT:          3  MISS:        189
LLC PREFETCH  ACCESS:       3698  HIT:          0  MISS:       3698
LLC WRITEBACK ACCESS:        551  HIT:          0  MISS:        551
LLC PREFETCH  REQUESTED:          0  ISSUED:          0  USEFUL:    1142486  USELESS:   14678848
Major fault: 0 Minor fault: 4148

CPU 2 cumulative IPC: 0.756573 instructions: 100000001 cycles: 132174930
L1D TOTAL     ACCESS:   25650633  HIT:   21915934  MISS:    3734699
L1D LOAD      ACCESS:   10683830  HIT:   10117957  MISS:     565873
L1D RFO       ACCESS:   14966803  HIT:   11797977  MISS:    3168826
L1D PREFETCH  ACCESS:          0  HIT:          0  MISS:          0
L1D WRITEBACK ACCESS:          0  HIT:          0  MISS:          0
L1D PREFETCH  REQUESTED:          0  ISSUED:          0  USEFUL:          0  USELESS:          0
L1I TOTAL     ACCESS:   23498382  HIT:   23498382  MISS:          0
L1I LOAD      ACCESS:   23498382  HIT:   23498382  MISS:          0
L1I RFO       ACCESS:          0  HIT:          0  MISS:          0
L1I PREFETCH  ACCESS:          0  HIT:          0  MISS:          0
L1I WRITEBACK ACCESS:          0  HIT:          0  MISS:          0
L1I PREFETCH  REQUESTED:          0  ISSUED:          0  USEFUL:          0  USELESS:          0
L2C TOTAL     ACCESS:    7386110  HIT:    4556140  MISS:    2829970
L2C LOAD      ACCESS:     565873  HIT:     482572  MISS:      83301
L2C RFO       ACCESS:    3168826  HIT:     904782  MISS:    2264044
L2C PREFETCH  ACCESS:     482589  HIT:          0  MISS:     482589
L2C WRITEBACK ACCESS:    3168822  HIT:    3168786  MISS:         36
L2C PREFETCH  REQUESTED:    1809276  ISSUED:    1809276  USEFUL:    1734518  USELESS:        994
LLC TOTAL     ACCESS:    5095554  HIT:    2832064  MISS:    2263490
LLC LOAD      ACCESS:      82357  HIT:       2708  MISS:      79649
LLC RFO       ACCESS:    2262893  HIT:     565329  MISS:    1697564
LLC PREFETCH  ACCESS:     486243  HIT:          2  MISS:     486241
LLC WRITEBACK ACCESS:    2264061  HIT:    2264025  MISS:         36
LLC PREFETCH  REQUESTED:          0  ISSUED:          0  USEFUL:    1142486  USELESS:   14678848
Major fault: 0 Minor fault: 67963

CPU 3 cumulative IPC: 0.26026 instructions: 100000002 cycles: 384230545
L1D TOTAL     ACCESS:   30706573  HIT:   27990619  MISS:    2715954
L1D LOAD      ACCESS:   21002415  HIT:   18287236  MISS:    2715179
L1D RFO       ACCESS:    9704158  HIT:    9703383  MISS:        775
L1D PREFETCH  ACCESS:          0  HIT:          0  MISS:          0
L1D WRITEBACK ACCESS:          0  HIT:          0  MISS:          0
L1D PREFETCH  REQUESTED:          0  ISSUED:          0  USEFUL:          0  USELESS:          0
L1I TOTAL     ACCESS:   24923083  HIT:   24923083  MISS:          0
L1I LOAD      ACCESS:   24923083  HIT:   24923083  MISS:          0
L1I RFO       ACCESS:          0  HIT:          0  MISS:          0
L1I PREFETCH  ACCESS:          0  HIT:          0  MISS:          0
L1I WRITEBACK ACCESS:          0  HIT:          0  MISS:          0
L1I PREFETCH  REQUESTED:          0  ISSUED:          0  USEFUL:          0  USELESS:          0
L2C TOTAL     ACCESS:    3953428  HIT:    2163435  MISS:    1789993
L2C LOAD      ACCESS:    2715179  HIT:    2154827  MISS:     560352
L2C RFO       ACCESS:        775  HIT:        251  MISS:        524
L2C PREFETCH  ACCESS:    1231026  HIT:       1909  MISS:    1229117
L2C WRITEBACK ACCESS:       6448  HIT:       6448  MISS:          0
L2C PREFETCH  REQUESTED:    2126201  ISSUED:    2126201  USEFUL:    1634800  USELESS:      15454
LLC TOTAL     ACCESS:    1792441  HIT:       4653  MISS:    1787788
LLC LOAD      ACCESS:      97846  HIT:       1731  MISS:      96115
LLC RFO       ACCESS:        524  HIT:         18  MISS:        506
LLC PREFETCH  ACCESS:    1691623  HIT:        458  MISS:    1691165
LLC WRITEBACK ACCESS:       2448  HIT:       2446  MISS:          2
LLC PREFETCH  REQUESTED:          0  ISSUED:          0  USEFUL:    1142486  USELESS:   14678848
Major fault: 0 Minor fault: 37999

CPU 4 cumulative IPC: 0.63871 instructions: 100000000 cycles: 156565636
L1D TOTAL     ACCESS:   26022504  HIT:   23205253  MISS:    2817251
L1D LOAD      ACCESS:   21205651  HIT:   18865152  MISS:    2340499
L1D RFO       ACCESS:    4816853  HIT:    4340101  MISS:     476752
L1D PREFETCH  ACCESS:          0  HIT:          0  MISS:          0
L1D WRITEBACK ACCESS:          0  HIT:          0  MISS:          0
L1D PREFETCH  REQUESTED:          0  ISSUED:          0  USEFUL:          0  USELESS:          0
L1I TOTAL     ACCESS:   23814401  HIT:   23809929  MISS:       4472
L1I LOAD      ACCESS:   23814401  HIT:   23809929  MISS:       4472
L1I RFO       ACCESS:          0  HIT:          0  MISS:          0
L1I PREFETCH  ACCESS:          0  HIT:          0  MISS:          0
L1I WRITEBACK ACCESS:          0  HIT:          0  MISS:          0
L1I PREFETCH  REQUESTED:          0  ISSUED:          0  USEFUL:          0  USELESS:          0
L2C TOTAL     ACCESS:    4964745  HIT:    2825866  MISS:    2138879
L2C LOAD      ACCESS:    2344886  HIT:    1602385  MISS:     742501
L2C RFO       ACCESS:     476752  HIT:     147390  MISS:     329362
L2C PREFETCH  ACCESS:    1092035  HIT:      26342  MISS:    1065693
L2C WRITEBACK ACCESS:    1051072  HIT:    1049749  MISS:       1323
L2C PREFETCH  REQUESTED:    3078601  ISSUED:    3077290  USEFUL:    2157551  USELESS:     139918
LLC TOTAL     ACCESS:    3156676  HIT:    1309149  MISS:    1847527
LLC LOAD      ACCESS:     503973  HIT:     258396  MISS:     245577
LLC RFO       ACCESS:     328917  HIT:      27891  MISS:     301026
LLC PREFETCH  ACCESS:    1519820  HIT:     221549  MISS:    1298271
LLC WRITEBACK ACCESS:     803966  HIT:     801313  MISS:       2653
LLC PREFETCH  REQUESTED:          0  ISSUED:          0  USEFUL:    1142486  USELESS:   14678848
Major fault: 0 Minor fault: 10640

CPU 5 cumulative IPC: 0.556841 instructions: 100000000 cycles: 179584457
L1D TOTAL     ACCESS:   37244587  HIT:   37017432  MISS:     227155
L1D LOAD      ACCESS:   16872752  HIT:   16670348  MISS:     202404
L1D RFO       ACCESS:   20371835  HIT:   20347084  MISS:      24751
L1D PREFETCH  ACCESS:          0  HIT:          0  MISS:          0
L1D WRITEBACK ACCESS:          0  HIT:          0  MISS:          0
L1D PREFETCH  REQUESTED:          0  ISSUED:          0  USEFUL:          0  USELESS:          0
L1I TOTAL     ACCESS:   27382958  HIT:   27119527  MISS:     263431
L1I LOAD      ACCESS:   27382958  HIT:   27119527  MISS:     263431
L1I RFO       ACCESS:          0  HIT:          0  MISS:          0
L1I PREFETCH  ACCESS:          0  HIT:          0  MISS:          0
L1I WRITEBACK ACCESS:          0  HIT:          0  MISS:          0
L1I PREFETCH  REQUESTED:          0  ISSUED:          0  USEFUL:          0  USELESS:          0
L2C TOTAL     ACCESS:     674369  HIT:     473968  MISS:     200401
L2C LOAD      ACCESS:     465832  HIT:     355015  MISS:     110817
L2C RFO       ACCESS:      24751  HIT:      16693  MISS:       8058
L2C PREFETCH  ACCESS:     116621  HIT:      36565  MISS:      80056
L2C WRITEBACK ACCESS:      67165  HIT:      65695  MISS:       1470
L2C PREFETCH  REQUESTED:     446843  ISSUED:     446843  USEFUL:      97749  USELESS:     157095
LLC TOTAL     ACCESS:     227582  HIT:      82353  MISS:     145229
LLC LOAD      ACCESS:     103265  HIT:      33856  MISS:      69409
LLC RFO       ACCESS:       7967  HIT:       3177  MISS:       4790
LLC PREFETCH  ACCESS:      87734  HIT:      23290  MISS:      64444
LLC WRITEBACK ACCESS:      28616  HIT:      22030  MISS:       6586
LLC PREFETCH  REQUESTED:          0  ISSUED:          0  USEFUL:    1142486  USELESS:   14678848
Major fault: 0 Minor fault: 5812

CPU 6 cumulative IPC: 0.254896 instructions: 100000001 cycles: 392317246
L1D TOTAL     ACCESS:   38888799  HIT:   34853963  MISS:    4034836
L1D LOAD      ACCESS:   27925812  HIT:   24284510  MISS:    3641302
L1D RFO       ACCESS:   10962987  HIT:   10569453  MISS:     393534
L1D PREFETCH  ACCESS:          0  HIT:          0  MISS:          0
L1D WRITEBACK ACCESS:          0  HIT:          0  MISS:          0
L1D PREFETCH  REQUESTED:          0  ISSUED:          0  USEFUL:          0  USELESS:          0
L1I TOTAL     ACCESS:   23869790  HIT:   23869790  MISS:          0
L1I LOAD      ACCESS:   23869790  HIT:   23869790  MISS:          0
L1I RFO       ACCESS:          0  HIT:          0  MISS:          0
L1I PREFETCH  ACCESS:          0  HIT:          0  MISS:          0
L1I WRITEBACK ACCESS:          0  HIT:          0  MISS:          0
L1I PREFETCH  REQUESTED:          0  ISSUED:          0  USEFUL:          0  USELESS:          0
L2C TOTAL     ACCESS:    6757528  HIT:    2517732  MISS:    4239796
L2C LOAD      ACCESS:    3641292  HIT:    1703713  MISS:    1937579
L2C RFO       ACCESS:     393521  HIT:      78475  MISS:     315046
L2C PREFETCH  ACCESS:    2161582  HIT:     175237  MISS:    1986345
L2C WRITEBACK ACCESS:     561133  HIT:     560307  MISS:        826
L2C PREFETCH  REQUESTED:    2907469  ISSUED:    2907469  USEFUL:     975978  USELESS:    1504487
LLC TOTAL     ACCESS:    4796281  HIT:    3174541  MISS:    1621740
LLC LOAD      ACCESS:    1881839  HIT:    1341059  MISS:     540780
LLC RFO       ACCESS:     315039  HIT:     312107  MISS:       2932
LLC PREFETCH  ACCESS:    2184707  HIT:    1106852  MISS:    1077855
LLC WRITEBACK ACCESS:     414696  HIT:     414523  MISS:        173
LLC PREFETCH  REQUESTED:          0  ISSUED:          0  USEFUL:    1142486  USELESS:   14678848
Major fault: 0 Minor fault: 17210

CPU 7 cumulative IPC: 0.541759 instructions: 100000000 cycles: 184584049
L1D TOTAL     ACCESS:   21040196  HIT:   18077029  MISS:    2963167
L1D LOAD      ACCESS:   17953873  HIT:   15744662  MISS:    2209211
L1D RFO       ACCESS:    3086323  HIT:    2332367  MISS:     753956
L1D PREFETCH  ACCESS:          0  HIT:          0  MISS:          0
L1D WRITEBACK ACCESS:          0  HIT:          0  MISS:          0
L1D PREFETCH  REQUESTED:          0  ISSUED:          0  USEFUL:          0  USELESS:          0
L1I TOTAL     ACCESS:   23067219  HIT:   23066941  MISS:        278
L1I LOAD      ACCESS:   23067219  HIT:   23066941  MISS:        278
L1I RFO       ACCESS:          0  HIT:          0  MISS:          0
L1I PREFETCH  ACCESS:          0  HIT:          0  MISS:          0
L1I WRITEBACK ACCESS:          0  HIT:          0  MISS:          0
L1I PREFETCH  REQUESTED:          0  ISSUED:          0  USEFUL:          0  USELESS:          0
L2C TOTAL     ACCESS:    4933313  HIT:    2494687  MISS:    2438626
L2C LOAD      ACCESS:    2209465  HIT:    1567108  MISS:     642357
L2C RFO       ACCESS:     753956  HIT:         12  MISS:     753944
L2C PREFETCH  ACCESS:    1043574  HIT:       1316  MISS:    1042258
L2C WRITEBACK ACCESS:     926318  HIT:     926251  MISS:         67
L2C PREFETCH  REQUESTED:    4345432  ISSUED:    4345432  USEFUL:    3075135  USELESS:     107391
LLC TOTAL     ACCESS:    3480408  HIT:    1041494  MISS:    2438914
LLC LOAD      ACCESS:     248260  HIT:     115871  MISS:     132389
LLC RFO       ACCESS:     753944  HIT:        466  MISS:     753478
LLC PREFETCH  ACCESS:    1557883  HIT:       4867  MISS:    1553016
LLC WRITEBACK ACCESS:     920321  HIT:     920290  MISS:         31
LLC PREFETCH  REQUESTED:          0  ISSUED:          0  USEFUL:    1142486  USELESS:   14678848
Major fault: 0 Minor fault: 54228

L2C Best-offset prefetcher final stats

L2C Best-offset prefetcher final stats

L2C Best-offset prefetcher final stats

L2C Best-offset prefetcher final stats

L2C Best-offset prefetcher final stats

L2C Best-offset prefetcher final stats

L2C Best-offset prefetcher final stats

L2C Best-offset prefetcher final stats

DRAM Statistics
 CHANNEL 0
 RQ ROW_BUFFER_HIT:    3517007  ROW_BUFFER_MISS:    9204861
 DBUS_CONGESTED:   29941043
 WQ ROW_BUFFER_HIT:     359626  ROW_BUFFER_MISS:    4784963  FULL:          0

 CHANNEL 1
 RQ ROW_BUFFER_HIT:    3512875  ROW_BUFFER_MISS:    9214178
 DBUS_CONGESTED:   29941043
 WQ ROW_BUFFER_HIT:     359435  ROW_BUFFER_MISS:    4785552  FULL:          0

 AVG_CONGESTED_CYCLE: 14
