Initialize SIGNATURE TABLE
ST_SET: 1
ST_WAY: 256
ST_TAG_BIT: 16
ST_TAG_MASK: ffff

Initialize PATTERN TABLE
PT_SET: 512
PT_WAY: 4
SIG_DELTA_BIT: 7
C_SIG_BIT: 4
C_DELTA_BIT: 4

Initialize PREFETCH FILTER
FILTER_SET: 1024

Initialize PERCEPTRON
PERC_ENTRIES: 4096
PERC_FEATURES: 9

*** ChampSim Multicore Out-of-Order Simulator ***

Warmup Instructions: 200000000
Simulation Instructions: 1000000000
Number of CPUs: 4
LLC sets: 8192
LLC ways: 16
Off-chip DRAM Size: 8192 MB Channels: 2 Width: 64-bit Data Rate: 1600 MT/s

CPU 0 runs /scratch/user/djimenez/champsim-traces/speccpu2006/xz//429.mcf-22B.champsimtrace.xz
CPU 1 runs /scratch/user/djimenez/champsim-traces/speccpu2006/xz//435.gromacs-226B.champsimtrace.xz
CPU 2 runs /scratch/user/djimenez/champsim-traces/speccpu2006/xz//444.namd-33B.champsimtrace.xz
CPU 3 runs /scratch/user/djimenez/champsim-traces/speccpu2006/xz//459.GemsFDTD-1211B.champsimtrace.xz
Heartbeat CPU 2 instructions: 10000001 cycles: 4119240 heartbeat IPC: 2.42763 cumulative IPC: 2.42763 (Simulation time: 0 hr 1 min 29 sec) 
Heartbeat CPU 1 instructions: 10000000 cycles: 4753964 heartbeat IPC: 2.10351 cumulative IPC: 2.10351 (Simulation time: 0 hr 1 min 42 sec) 
Heartbeat CPU 0 instructions: 10000001 cycles: 5751481 heartbeat IPC: 1.73868 cumulative IPC: 1.73868 (Simulation time: 0 hr 2 min 4 sec) 
Heartbeat CPU 3 instructions: 10000000 cycles: 8096677 heartbeat IPC: 1.23507 cumulative IPC: 1.23507 (Simulation time: 0 hr 2 min 54 sec) 
Heartbeat CPU 2 instructions: 20000000 cycles: 8217526 heartbeat IPC: 2.44004 cumulative IPC: 2.43382 (Simulation time: 0 hr 2 min 57 sec) 
Heartbeat CPU 1 instructions: 20000000 cycles: 9511032 heartbeat IPC: 2.10214 cumulative IPC: 2.10282 (Simulation time: 0 hr 3 min 24 sec) 
Heartbeat CPU 0 instructions: 20000000 cycles: 11638852 heartbeat IPC: 1.69855 cumulative IPC: 1.71838 (Simulation time: 0 hr 4 min 11 sec) 
Heartbeat CPU 2 instructions: 30000001 cycles: 12449275 heartbeat IPC: 2.36309 cumulative IPC: 2.40978 (Simulation time: 0 hr 4 min 28 sec) 
Heartbeat CPU 1 instructions: 30000000 cycles: 14268480 heartbeat IPC: 2.10197 cumulative IPC: 2.10254 (Simulation time: 0 hr 5 min 8 sec) 
Heartbeat CPU 3 instructions: 20000000 cycles: 16193266 heartbeat IPC: 1.23509 cumulative IPC: 1.23508 (Simulation time: 0 hr 5 min 49 sec) 
Heartbeat CPU 2 instructions: 40000000 cycles: 16554273 heartbeat IPC: 2.43605 cumulative IPC: 2.41629 (Simulation time: 0 hr 5 min 57 sec) 
Heartbeat CPU 0 instructions: 30000002 cycles: 17361710 heartbeat IPC: 1.74738 cumulative IPC: 1.72794 (Simulation time: 0 hr 6 min 14 sec) 
Heartbeat CPU 1 instructions: 40000000 cycles: 19202076 heartbeat IPC: 2.02692 cumulative IPC: 2.08311 (Simulation time: 0 hr 6 min 53 sec) 
Heartbeat CPU 2 instructions: 50000002 cycles: 20799432 heartbeat IPC: 2.35562 cumulative IPC: 2.40391 (Simulation time: 0 hr 7 min 27 sec) 
Heartbeat CPU 0 instructions: 40000000 cycles: 23084400 heartbeat IPC: 1.74743 cumulative IPC: 1.73277 (Simulation time: 0 hr 8 min 16 sec) 
Heartbeat CPU 1 instructions: 50000000 cycles: 23505307 heartbeat IPC: 2.32384 cumulative IPC: 2.12718 (Simulation time: 0 hr 8 min 25 sec) 
Heartbeat CPU 3 instructions: 30000001 cycles: 24289697 heartbeat IPC: 1.23511 cumulative IPC: 1.23509 (Simulation time: 0 hr 8 min 43 sec) 
Heartbeat CPU 2 instructions: 60000000 cycles: 25073673 heartbeat IPC: 2.3396 cumulative IPC: 2.39295 (Simulation time: 0 hr 9 min 0 sec) 
Heartbeat CPU 1 instructions: 60000000 cycles: 27866780 heartbeat IPC: 2.2928 cumulative IPC: 2.1531 (Simulation time: 0 hr 10 min 2 sec) 
Heartbeat CPU 0 instructions: 50000002 cycles: 28815268 heartbeat IPC: 1.74494 cumulative IPC: 1.73519 (Simulation time: 0 hr 10 min 22 sec) 
Heartbeat CPU 2 instructions: 70000001 cycles: 29054387 heartbeat IPC: 2.51211 cumulative IPC: 2.40927 (Simulation time: 0 hr 10 min 27 sec) 
Heartbeat CPU 3 instructions: 40000000 cycles: 32371666 heartbeat IPC: 1.23732 cumulative IPC: 1.23565 (Simulation time: 0 hr 11 min 37 sec) 
Heartbeat CPU 1 instructions: 70000001 cycles: 32649487 heartbeat IPC: 2.09087 cumulative IPC: 2.14398 (Simulation time: 0 hr 11 min 42 sec) 
Heartbeat CPU 2 instructions: 80000000 cycles: 33347143 heartbeat IPC: 2.32951 cumulative IPC: 2.39901 (Simulation time: 0 hr 11 min 56 sec) 
Heartbeat CPU 0 instructions: 60000000 cycles: 34657328 heartbeat IPC: 1.71172 cumulative IPC: 1.73124 (Simulation time: 0 hr 12 min 21 sec) 
Heartbeat CPU 2 instructions: 90000001 cycles: 37369932 heartbeat IPC: 2.48584 cumulative IPC: 2.40835 (Simulation time: 0 hr 13 min 15 sec) 
Heartbeat CPU 1 instructions: 80000000 cycles: 38101865 heartbeat IPC: 1.83406 cumulative IPC: 2.09963 (Simulation time: 0 hr 13 min 29 sec) 
Heartbeat CPU 3 instructions: 50000001 cycles: 40372534 heartbeat IPC: 1.24986 cumulative IPC: 1.23847 (Simulation time: 0 hr 14 min 13 sec) 
Heartbeat CPU 0 instructions: 70000000 cycles: 40417780 heartbeat IPC: 1.73597 cumulative IPC: 1.73191 (Simulation time: 0 hr 14 min 14 sec) 
Heartbeat CPU 2 instructions: 100000000 cycles: 41639390 heartbeat IPC: 2.34222 cumulative IPC: 2.40157 (Simulation time: 0 hr 14 min 41 sec) 
Heartbeat CPU 1 instructions: 90000002 cycles: 43172626 heartbeat IPC: 1.97209 cumulative IPC: 2.08465 (Simulation time: 0 hr 15 min 10 sec) 
Heartbeat CPU 2 instructions: 110000003 cycles: 45686802 heartbeat IPC: 2.47072 cumulative IPC: 2.4077 (Simulation time: 0 hr 16 min 0 sec) 
Heartbeat CPU 0 instructions: 80000000 cycles: 46284071 heartbeat IPC: 1.70465 cumulative IPC: 1.72846 (Simulation time: 0 hr 16 min 11 sec) 
Heartbeat CPU 1 instructions: 100000000 cycles: 48226308 heartbeat IPC: 1.97875 cumulative IPC: 2.07356 (Simulation time: 0 hr 16 min 51 sec) 
Heartbeat CPU 3 instructions: 60000000 cycles: 48459694 heartbeat IPC: 1.23653 cumulative IPC: 1.23814 (Simulation time: 0 hr 16 min 56 sec) 
Heartbeat CPU 2 instructions: 120000000 cycles: 49942008 heartbeat IPC: 2.35006 cumulative IPC: 2.40279 (Simulation time: 0 hr 17 min 26 sec) 
Heartbeat CPU 0 instructions: 90000003 cycles: 52133597 heartbeat IPC: 1.70954 cumulative IPC: 1.72633 (Simulation time: 0 hr 18 min 10 sec) 
Heartbeat CPU 1 instructions: 110000000 cycles: 53278943 heartbeat IPC: 1.97917 cumulative IPC: 2.06461 (Simulation time: 0 hr 18 min 32 sec) 
Heartbeat CPU 2 instructions: 130000000 cycles: 53986690 heartbeat IPC: 2.47238 cumulative IPC: 2.408 (Simulation time: 0 hr 18 min 45 sec) 
Heartbeat CPU 3 instructions: 70000002 cycles: 56546860 heartbeat IPC: 1.23653 cumulative IPC: 1.23791 (Simulation time: 0 hr 19 min 36 sec) 
Heartbeat CPU 0 instructions: 100000000 cycles: 57948339 heartbeat IPC: 1.71977 cumulative IPC: 1.72567 (Simulation time: 0 hr 20 min 4 sec) 
Heartbeat CPU 2 instructions: 140000000 cycles: 58366921 heartbeat IPC: 2.28298 cumulative IPC: 2.39862 (Simulation time: 0 hr 20 min 11 sec) 
Heartbeat CPU 1 instructions: 120000000 cycles: 58636508 heartbeat IPC: 1.86652 cumulative IPC: 2.04651 (Simulation time: 0 hr 20 min 17 sec) 
Heartbeat CPU 2 instructions: 150000002 cycles: 62622155 heartbeat IPC: 2.35005 cumulative IPC: 2.39532 (Simulation time: 0 hr 21 min 36 sec) 
Heartbeat CPU 1 instructions: 130000002 cycles: 63712159 heartbeat IPC: 1.97019 cumulative IPC: 2.04043 (Simulation time: 0 hr 21 min 56 sec) 
Heartbeat CPU 0 instructions: 110000002 cycles: 63859218 heartbeat IPC: 1.6918 cumulative IPC: 1.72254 (Simulation time: 0 hr 21 min 59 sec) 
Heartbeat CPU 3 instructions: 80000000 cycles: 64634027 heartbeat IPC: 1.23653 cumulative IPC: 1.23774 (Simulation time: 0 hr 22 min 13 sec) 
Heartbeat CPU 2 instructions: 160000000 cycles: 66937009 heartbeat IPC: 2.31757 cumulative IPC: 2.39031 (Simulation time: 0 hr 22 min 58 sec) 
Heartbeat CPU 1 instructions: 140000000 cycles: 68620026 heartbeat IPC: 2.03754 cumulative IPC: 2.04022 (Simulation time: 0 hr 23 min 34 sec) 
Heartbeat CPU 0 instructions: 120000000 cycles: 69668366 heartbeat IPC: 1.72142 cumulative IPC: 1.72245 (Simulation time: 0 hr 23 min 54 sec) 
Heartbeat CPU 2 instructions: 170000001 cycles: 71030968 heartbeat IPC: 2.44262 cumulative IPC: 2.39332 (Simulation time: 0 hr 24 min 21 sec) 
Heartbeat CPU 3 instructions: 90000003 cycles: 72721158 heartbeat IPC: 1.23653 cumulative IPC: 1.2376 (Simulation time: 0 hr 24 min 55 sec) 
Heartbeat CPU 1 instructions: 150000003 cycles: 74043780 heartbeat IPC: 1.84374 cumulative IPC: 2.02583 (Simulation time: 0 hr 25 min 20 sec) 
Heartbeat CPU 2 instructions: 180000000 cycles: 75240784 heartbeat IPC: 2.3754 cumulative IPC: 2.39232 (Simulation time: 0 hr 25 min 44 sec) 
Heartbeat CPU 0 instructions: 130000001 cycles: 75586066 heartbeat IPC: 1.68985 cumulative IPC: 1.71989 (Simulation time: 0 hr 25 min 50 sec) 
Heartbeat CPU 1 instructions: 160000000 cycles: 79041392 heartbeat IPC: 2.00096 cumulative IPC: 2.02426 (Simulation time: 0 hr 27 min 1 sec) 
Heartbeat CPU 2 instructions: 190000000 cycles: 79486258 heartbeat IPC: 2.35545 cumulative IPC: 2.39035 (Simulation time: 0 hr 27 min 10 sec) 
Heartbeat CPU 3 instructions: 100000000 cycles: 80808170 heartbeat IPC: 1.23655 cumulative IPC: 1.2375 (Simulation time: 0 hr 27 min 37 sec) 
Heartbeat CPU 0 instructions: 140000000 cycles: 81317941 heartbeat IPC: 1.74463 cumulative IPC: 1.72164 (Simulation time: 0 hr 27 min 47 sec) 
Heartbeat CPU 2 instructions: 200000000 cycles: 83736083 heartbeat IPC: 2.35304 cumulative IPC: 2.38846 (Simulation time: 0 hr 28 min 36 sec) 
Heartbeat CPU 1 instructions: 170000001 cycles: 84055293 heartbeat IPC: 1.99446 cumulative IPC: 2.02248 (Simulation time: 0 hr 28 min 43 sec) 
Heartbeat CPU 0 instructions: 150000000 cycles: 87153689 heartbeat IPC: 1.71358 cumulative IPC: 1.7211 (Simulation time: 0 hr 29 min 46 sec) 
Heartbeat CPU 2 instructions: 210000003 cycles: 87891236 heartbeat IPC: 2.40665 cumulative IPC: 0.113777 (Simulation time: 0 hr 30 min 1 sec) 
Heartbeat CPU 3 instructions: 110000003 cycles: 88895227 heartbeat IPC: 1.23654 cumulative IPC: 1.23741 (Simulation time: 0 hr 30 min 20 sec) 
Heartbeat CPU 1 instructions: 180000000 cycles: 89231579 heartbeat IPC: 1.93189 cumulative IPC: 2.01722 (Simulation time: 0 hr 30 min 28 sec) 
Heartbeat CPU 2 instructions: 220000000 cycles: 91937125 heartbeat IPC: 2.47164 cumulative IPC: 0.21754 (Simulation time: 0 hr 31 min 22 sec) 
Heartbeat CPU 0 instructions: 160000000 cycles: 93030890 heartbeat IPC: 1.70149 cumulative IPC: 1.71986 (Simulation time: 0 hr 31 min 45 sec) 
Heartbeat CPU 1 instructions: 190000002 cycles: 94248291 heartbeat IPC: 1.99334 cumulative IPC: 2.01595 (Simulation time: 0 hr 32 min 10 sec) 
Heartbeat CPU 2 instructions: 230000000 cycles: 96157375 heartbeat IPC: 2.36953 cumulative IPC: 0.311989 (Simulation time: 0 hr 32 min 48 sec) 
Heartbeat CPU 3 instructions: 120000000 cycles: 96982258 heartbeat IPC: 1.23655 cumulative IPC: 1.23734 (Simulation time: 0 hr 33 min 6 sec) 
Heartbeat CPU 0 instructions: 170000003 cycles: 98757085 heartbeat IPC: 1.74636 cumulative IPC: 1.7214 (Simulation time: 0 hr 33 min 41 sec) 
Heartbeat CPU 1 instructions: 200000000 cycles: 99394410 heartbeat IPC: 1.94321 cumulative IPC: 2.01219 (Simulation time: 0 hr 33 min 54 sec) 
Heartbeat CPU 2 instructions: 240000000 cycles: 100217532 heartbeat IPC: 2.46296 cumulative IPC: 0.399132 (Simulation time: 0 hr 34 min 12 sec) 
Heartbeat CPU 1 instructions: 210000000 cycles: 104425860 heartbeat IPC: 1.9875 cumulative IPC: 0.0957617 (Simulation time: 0 hr 35 min 38 sec) 
Heartbeat CPU 0 instructions: 180000000 cycles: 104498970 heartbeat IPC: 1.74159 cumulative IPC: 1.7225 (Simulation time: 0 hr 35 min 40 sec) 
Heartbeat CPU 2 instructions: 250000000 cycles: 104506750 heartbeat IPC: 2.33143 cumulative IPC: 0.478438 (Simulation time: 0 hr 35 min 40 sec) 
Heartbeat CPU 3 instructions: 130000003 cycles: 105069260 heartbeat IPC: 1.23655 cumulative IPC: 1.23728 (Simulation time: 0 hr 35 min 50 sec) 
Heartbeat CPU 2 instructions: 260000000 cycles: 108814737 heartbeat IPC: 2.32127 cumulative IPC: 0.551396 (Simulation time: 0 hr 37 min 6 sec) 
Heartbeat CPU 1 instructions: 220000000 cycles: 109554240 heartbeat IPC: 1.94993 cumulative IPC: 0.182558 (Simulation time: 0 hr 37 min 22 sec) 
Heartbeat CPU 0 instructions: 190000000 cycles: 110338383 heartbeat IPC: 1.7125 cumulative IPC: 1.72198 (Simulation time: 0 hr 37 min 39 sec) 
Heartbeat CPU 2 instructions: 270000003 cycles: 112828378 heartbeat IPC: 2.4915 cumulative IPC: 0.620411 (Simulation time: 0 hr 38 min 29 sec) 
Heartbeat CPU 3 instructions: 140000000 cycles: 113156308 heartbeat IPC: 1.23654 cumulative IPC: 1.23723 (Simulation time: 0 hr 38 min 36 sec) 
Heartbeat CPU 1 instructions: 230000002 cycles: 114675843 heartbeat IPC: 1.95251 cumulative IPC: 0.261607 (Simulation time: 0 hr 39 min 6 sec) 
Heartbeat CPU 0 instructions: 200000000 cycles: 116064079 heartbeat IPC: 1.74651 cumulative IPC: 1.72319 (Simulation time: 0 hr 39 min 34 sec) 
Heartbeat CPU 2 instructions: 280000000 cycles: 117105910 heartbeat IPC: 2.3378 cumulative IPC: 0.683142 (Simulation time: 0 hr 39 min 57 sec) 
Heartbeat CPU 1 instructions: 240000000 cycles: 119721214 heartbeat IPC: 1.98201 cumulative IPC: 0.33411 (Simulation time: 0 hr 40 min 49 sec) 
Heartbeat CPU 2 instructions: 290000002 cycles: 121157881 heartbeat IPC: 2.46794 cumulative IPC: 0.742832 (Simulation time: 0 hr 41 min 17 sec) 
Heartbeat CPU 3 instructions: 150000002 cycles: 121243007 heartbeat IPC: 1.2366 cumulative IPC: 1.23718 (Simulation time: 0 hr 41 min 19 sec) 
Heartbeat CPU 0 instructions: 210000001 cycles: 121850119 heartbeat IPC: 1.7283 cumulative IPC: 0.082068 (Simulation time: 0 hr 41 min 31 sec) 
Heartbeat CPU 1 instructions: 250000001 cycles: 124896481 heartbeat IPC: 1.93227 cumulative IPC: 0.400332 (Simulation time: 0 hr 42 min 33 sec) 
Heartbeat CPU 2 instructions: 300000000 cycles: 125437981 heartbeat IPC: 2.33639 cumulative IPC: 0.797207 (Simulation time: 0 hr 42 min 45 sec) 
Heartbeat CPU 0 instructions: 220000000 cycles: 127626532 heartbeat IPC: 1.73118 cumulative IPC: 0.156707 (Simulation time: 0 hr 43 min 29 sec) 
Heartbeat CPU 3 instructions: 160000000 cycles: 129329848 heartbeat IPC: 1.23658 cumulative IPC: 1.23715 (Simulation time: 0 hr 44 min 5 sec) 
Heartbeat CPU 2 instructions: 310000003 cycles: 129744866 heartbeat IPC: 2.32186 cumulative IPC: 0.847818 (Simulation time: 0 hr 44 min 13 sec) 
Heartbeat CPU 1 instructions: 260000000 cycles: 129925875 heartbeat IPC: 1.98831 cumulative IPC: 0.461802 (Simulation time: 0 hr 44 min 16 sec) 
Heartbeat CPU 0 instructions: 230000002 cycles: 133637380 heartbeat IPC: 1.66366 cumulative IPC: 0.224488 (Simulation time: 0 hr 45 min 31 sec) 
Heartbeat CPU 2 instructions: 320000000 cycles: 133762215 heartbeat IPC: 2.4892 cumulative IPC: 0.897114 (Simulation time: 0 hr 45 min 33 sec) 
Heartbeat CPU 1 instructions: 270000001 cycles: 135089657 heartbeat IPC: 1.93657 cumulative IPC: 0.518174 (Simulation time: 0 hr 45 min 59 sec) 
Heartbeat CPU 3 instructions: 170000002 cycles: 137416835 heartbeat IPC: 1.23655 cumulative IPC: 1.23711 (Simulation time: 0 hr 46 min 46 sec) 
Heartbeat CPU 2 instructions: 330000001 cycles: 138030815 heartbeat IPC: 2.34269 cumulative IPC: 0.941819 (Simulation time: 0 hr 46 min 58 sec) 
Heartbeat CPU 0 instructions: 240000000 cycles: 139594688 heartbeat IPC: 1.67861 cumulative IPC: 0.286544 (Simulation time: 0 hr 47 min 32 sec) 
Heartbeat CPU 1 instructions: 280000000 cycles: 140101675 heartbeat IPC: 1.9952 cumulative IPC: 0.571014 (Simulation time: 0 hr 47 min 42 sec) 
Heartbeat CPU 2 instructions: 340000000 cycles: 142115691 heartbeat IPC: 2.44805 cumulative IPC: 0.985113 (Simulation time: 0 hr 48 min 22 sec) 
Heartbeat CPU 1 instructions: 290000000 cycles: 145290282 heartbeat IPC: 1.9273 cumulative IPC: 0.61945 (Simulation time: 0 hr 49 min 25 sec) 
Heartbeat CPU 3 instructions: 180000000 cycles: 145503692 heartbeat IPC: 1.23657 cumulative IPC: 1.23708 (Simulation time: 0 hr 49 min 30 sec) 
Heartbeat CPU 0 instructions: 250000001 cycles: 145550224 heartbeat IPC: 1.67911 cumulative IPC: 0.343524 (Simulation time: 0 hr 49 min 31 sec) 
Heartbeat CPU 2 instructions: 350000003 cycles: 146412087 heartbeat IPC: 2.32753 cumulative IPC: 1.02451 (Simulation time: 0 hr 49 min 49 sec) 
Heartbeat CPU 1 instructions: 300000000 cycles: 150285834 heartbeat IPC: 2.00178 cumulative IPC: 0.665399 (Simulation time: 0 hr 51 min 7 sec) 
Heartbeat CPU 2 instructions: 360000000 cycles: 150686481 heartbeat IPC: 2.33951 cumulative IPC: 1.06181 (Simulation time: 0 hr 51 min 15 sec) 
Heartbeat CPU 0 instructions: 260000000 cycles: 151331766 heartbeat IPC: 1.72964 cumulative IPC: 0.39648 (Simulation time: 0 hr 51 min 27 sec) 
Heartbeat CPU 3 instructions: 190000003 cycles: 153477176 heartbeat IPC: 1.25416 cumulative IPC: 1.23797 (Simulation time: 0 hr 52 min 12 sec) 
Heartbeat CPU 2 instructions: 370000001 cycles: 154729054 heartbeat IPC: 2.47367 cumulative IPC: 1.09869 (Simulation time: 0 hr 52 min 37 sec) 
Heartbeat CPU 1 instructions: 310000000 cycles: 155519542 heartbeat IPC: 1.91069 cumulative IPC: 0.707307 (Simulation time: 0 hr 52 min 52 sec) 
Heartbeat CPU 0 instructions: 270000003 cycles: 157053329 heartbeat IPC: 1.74777 cumulative IPC: 0.445708 (Simulation time: 0 hr 53 min 25 sec) 
Heartbeat CPU 2 instructions: 380000000 cycles: 158867198 heartbeat IPC: 2.41654 cumulative IPC: 1.13302 (Simulation time: 0 hr 54 min 1 sec) 
Heartbeat CPU 1 instructions: 320000000 cycles: 160488256 heartbeat IPC: 2.01259 cumulative IPC: 0.747718 (Simulation time: 0 hr 54 min 35 sec) 
Heartbeat CPU 3 instructions: 200000000 cycles: 161247214 heartbeat IPC: 1.28699 cumulative IPC: 1.24033 (Simulation time: 0 hr 54 min 50 sec) 

Warmup complete CPU 0 instructions: 277256172 cycles: 161247231 (Simulation time: 0 hr 54 min 50 sec) 
Warmup complete CPU 1 instructions: 321434261 cycles: 161247231 (Simulation time: 0 hr 54 min 50 sec) 
Warmup complete CPU 2 instructions: 385516044 cycles: 161247231 (Simulation time: 0 hr 54 min 50 sec) 
Warmup complete CPU 3 instructions: 200000001 cycles: 161247231 (Simulation time: 0 hr 54 min 50 sec) 

Heartbeat CPU 2 instructions: 390000002 cycles: 164163785 heartbeat IPC: 1.88801 cumulative IPC: 1.53742 (Simulation time: 0 hr 55 min 22 sec) 
Heartbeat CPU 0 instructions: 280000000 cycles: 166238462 heartbeat IPC: 1.08872 cumulative IPC: 0.54973 (Simulation time: 0 hr 55 min 51 sec) 
Heartbeat CPU 1 instructions: 330000000 cycles: 171415597 heartbeat IPC: 0.915136 cumulative IPC: 0.842391 (Simulation time: 0 hr 56 min 46 sec) 
Heartbeat CPU 2 instructions: 400000000 cycles: 171450086 heartbeat IPC: 1.37244 cumulative IPC: 1.4196 (Simulation time: 0 hr 56 min 47 sec) 
Heartbeat CPU 3 instructions: 210000000 cycles: 175256127 heartbeat IPC: 0.713831 cumulative IPC: 0.713832 (Simulation time: 0 hr 57 min 33 sec) 
Heartbeat CPU 2 instructions: 410000002 cycles: 178999371 heartbeat IPC: 1.32463 cumulative IPC: 1.37921 (Simulation time: 0 hr 58 min 12 sec) 
Heartbeat CPU 1 instructions: 340000000 cycles: 180992172 heartbeat IPC: 1.04421 cumulative IPC: 0.940278 (Simulation time: 0 hr 58 min 39 sec) 
Heartbeat CPU 2 instructions: 420000000 cycles: 186384226 heartbeat IPC: 1.35412 cumulative IPC: 1.37184 (Simulation time: 0 hr 59 min 38 sec) 
Heartbeat CPU 0 instructions: 290000003 cycles: 188105728 heartbeat IPC: 0.457305 cumulative IPC: 0.47448 (Simulation time: 1 hr 0 min 0 sec) 
Heartbeat CPU 3 instructions: 220000000 cycles: 189235989 heartbeat IPC: 0.715315 cumulative IPC: 0.714573 (Simulation time: 1 hr 0 min 14 sec) 
Heartbeat CPU 1 instructions: 350000001 cycles: 192163815 heartbeat IPC: 0.895124 cumulative IPC: 0.923962 (Simulation time: 1 hr 0 min 45 sec) 
Heartbeat CPU 2 instructions: 430000002 cycles: 193795584 heartbeat IPC: 1.34928 cumulative IPC: 1.3667 (Simulation time: 1 hr 1 min 4 sec) 
Heartbeat CPU 2 instructions: 440000000 cycles: 201719324 heartbeat IPC: 1.26203 cumulative IPC: 1.34621 (Simulation time: 1 hr 2 min 35 sec) 
Heartbeat CPU 1 instructions: 360000000 cycles: 202218150 heartbeat IPC: 0.994596 cumulative IPC: 0.941295 (Simulation time: 1 hr 2 min 42 sec) 
Heartbeat CPU 3 instructions: 230000003 cycles: 203231596 heartbeat IPC: 0.71451 cumulative IPC: 0.714552 (Simulation time: 1 hr 2 min 55 sec) 
Heartbeat CPU 2 instructions: 450000000 cycles: 209874783 heartbeat IPC: 1.22617 cumulative IPC: 1.32608 (Simulation time: 1 hr 4 min 7 sec) 
Heartbeat CPU 1 instructions: 370000000 cycles: 213015286 heartbeat IPC: 0.926172 cumulative IPC: 0.938141 (Simulation time: 1 hr 4 min 39 sec) 
Heartbeat CPU 0 instructions: 300000000 cycles: 215223328 heartbeat IPC: 0.368764 cumulative IPC: 0.421369 (Simulation time: 1 hr 5 min 2 sec) 
Heartbeat CPU 2 instructions: 460000000 cycles: 216891820 heartbeat IPC: 1.4251 cumulative IPC: 1.33857 (Simulation time: 1 hr 5 min 23 sec) 
Heartbeat CPU 3 instructions: 240000000 cycles: 217228029 heartbeat IPC: 0.714468 cumulative IPC: 0.714531 (Simulation time: 1 hr 5 min 27 sec) 
Heartbeat CPU 1 instructions: 380000000 cycles: 223170423 heartbeat IPC: 0.984723 cumulative IPC: 0.94578 (Simulation time: 1 hr 6 min 31 sec) 
Heartbeat CPU 2 instructions: 470000000 cycles: 224644852 heartbeat IPC: 1.28982 cumulative IPC: 1.3326 (Simulation time: 1 hr 6 min 48 sec) 
Heartbeat CPU 3 instructions: 250000003 cycles: 231152116 heartbeat IPC: 0.71818 cumulative IPC: 0.715258 (Simulation time: 1 hr 7 min 59 sec) 
Heartbeat CPU 2 instructions: 480000000 cycles: 232291553 heartbeat IPC: 1.30775 cumulative IPC: 1.32993 (Simulation time: 1 hr 8 min 10 sec) 
Heartbeat CPU 1 instructions: 390000003 cycles: 234697238 heartbeat IPC: 0.867543 cumulative IPC: 0.933502 (Simulation time: 1 hr 8 min 36 sec) 
Heartbeat CPU 2 instructions: 490000003 cycles: 239384936 heartbeat IPC: 1.40977 cumulative IPC: 1.33718 (Simulation time: 1 hr 9 min 32 sec) 
Heartbeat CPU 0 instructions: 310000000 cycles: 242028626 heartbeat IPC: 0.373061 cumulative IPC: 0.405339 (Simulation time: 1 hr 10 min 1 sec) 
Heartbeat CPU 1 instructions: 400000000 cycles: 244242980 heartbeat IPC: 1.04759 cumulative IPC: 0.946624 (Simulation time: 1 hr 10 min 32 sec) 
Heartbeat CPU 3 instructions: 260000000 cycles: 245078272 heartbeat IPC: 0.718073 cumulative IPC: 0.715725 (Simulation time: 1 hr 10 min 43 sec) 
Heartbeat CPU 2 instructions: 500000000 cycles: 247248379 heartbeat IPC: 1.27171 cumulative IPC: 1.33119 (Simulation time: 1 hr 11 min 6 sec) 
Heartbeat CPU 2 instructions: 510000002 cycles: 254740762 heartbeat IPC: 1.33469 cumulative IPC: 1.33147 (Simulation time: 1 hr 12 min 28 sec) 
Heartbeat CPU 1 instructions: 410000002 cycles: 255722019 heartbeat IPC: 0.871153 cumulative IPC: 0.937454 (Simulation time: 1 hr 12 min 38 sec) 
Heartbeat CPU 3 instructions: 270000000 cycles: 259114947 heartbeat IPC: 0.712419 cumulative IPC: 0.715251 (Simulation time: 1 hr 13 min 19 sec) 
Heartbeat CPU 2 instructions: 520000000 cycles: 262150446 heartbeat IPC: 1.34958 cumulative IPC: 1.3328 (Simulation time: 1 hr 13 min 52 sec) 
Heartbeat CPU 0 instructions: 320000000 cycles: 263628295 heartbeat IPC: 0.46297 cumulative IPC: 0.417497 (Simulation time: 1 hr 14 min 12 sec) 
Heartbeat CPU 1 instructions: 420000000 cycles: 264801461 heartbeat IPC: 1.10139 cumulative IPC: 0.951827 (Simulation time: 1 hr 14 min 29 sec) 
Heartbeat CPU 2 instructions: 530000000 cycles: 269630783 heartbeat IPC: 1.33684 cumulative IPC: 1.33308 (Simulation time: 1 hr 15 min 22 sec) 
Heartbeat CPU 3 instructions: 280000000 cycles: 273041037 heartbeat IPC: 0.718077 cumulative IPC: 0.715603 (Simulation time: 1 hr 16 min 6 sec) 
Heartbeat CPU 1 instructions: 430000003 cycles: 276247997 heartbeat IPC: 0.873627 cumulative IPC: 0.944044 (Simulation time: 1 hr 16 min 42 sec) 
Heartbeat CPU 2 instructions: 540000000 cycles: 276577108 heartbeat IPC: 1.43961 cumulative IPC: 1.3395 (Simulation time: 1 hr 16 min 46 sec) 
Heartbeat CPU 0 instructions: 330000003 cycles: 281342958 heartbeat IPC: 0.564504 cumulative IPC: 0.439182 (Simulation time: 1 hr 17 min 42 sec) 
Heartbeat CPU 2 instructions: 550000001 cycles: 284292578 heartbeat IPC: 1.2961 cumulative IPC: 1.33678 (Simulation time: 1 hr 18 min 21 sec) 
Heartbeat CPU 1 instructions: 440000000 cycles: 285459634 heartbeat IPC: 1.08558 cumulative IPC: 0.95454 (Simulation time: 1 hr 18 min 37 sec) 
Heartbeat CPU 3 instructions: 290000000 cycles: 287020516 heartbeat IPC: 0.715334 cumulative IPC: 0.715573 (Simulation time: 1 hr 18 min 54 sec) 
Heartbeat CPU 2 instructions: 560000000 cycles: 291507657 heartbeat IPC: 1.38599 cumulative IPC: 1.3395 (Simulation time: 1 hr 19 min 47 sec) 
Heartbeat CPU 1 instructions: 450000002 cycles: 296475022 heartbeat IPC: 0.907821 cumulative IPC: 0.950735 (Simulation time: 1 hr 20 min 40 sec) 
Heartbeat CPU 2 instructions: 570000003 cycles: 298694528 heartbeat IPC: 1.39143 cumulative IPC: 1.34222 (Simulation time: 1 hr 21 min 9 sec) 
Heartbeat CPU 3 instructions: 300000000 cycles: 300984399 heartbeat IPC: 0.716133 cumulative IPC: 0.715629 (Simulation time: 1 hr 21 min 32 sec) 
Heartbeat CPU 0 instructions: 340000000 cycles: 301033459 heartbeat IPC: 0.507859 cumulative IPC: 0.448856 (Simulation time: 1 hr 21 min 33 sec) 
Heartbeat CPU 2 instructions: 580000000 cycles: 306661927 heartbeat IPC: 1.25511 cumulative IPC: 1.33744 (Simulation time: 1 hr 22 min 35 sec) 
Heartbeat CPU 1 instructions: 460000000 cycles: 306871270 heartbeat IPC: 0.961885 cumulative IPC: 0.951531 (Simulation time: 1 hr 22 min 37 sec) 
Heartbeat CPU 2 instructions: 590000002 cycles: 313832082 heartbeat IPC: 1.39467 cumulative IPC: 1.34013 (Simulation time: 1 hr 23 min 58 sec) 
Heartbeat CPU 3 instructions: 310000002 cycles: 314252088 heartbeat IPC: 0.753711 cumulative IPC: 0.718931 (Simulation time: 1 hr 24 min 3 sec) 
Heartbeat CPU 1 instructions: 470000000 cycles: 316857497 heartbeat IPC: 1.00138 cumulative IPC: 0.95473 (Simulation time: 1 hr 24 min 36 sec) 
Heartbeat CPU 2 instructions: 600000000 cycles: 321295736 heartbeat IPC: 1.33983 cumulative IPC: 1.34012 (Simulation time: 1 hr 25 min 24 sec) 
Heartbeat CPU 0 instructions: 350000003 cycles: 323356603 heartbeat IPC: 0.447966 cumulative IPC: 0.448733 (Simulation time: 1 hr 25 min 53 sec) 
Heartbeat CPU 2 instructions: 610000002 cycles: 327997825 heartbeat IPC: 1.49207 cumulative IPC: 1.34623 (Simulation time: 1 hr 26 min 45 sec) 
Heartbeat CPU 3 instructions: 320000000 cycles: 328271114 heartbeat IPC: 0.713316 cumulative IPC: 0.71846 (Simulation time: 1 hr 26 min 48 sec) 
Heartbeat CPU 1 instructions: 480000000 cycles: 328271687 heartbeat IPC: 0.876102 cumulative IPC: 0.949356 (Simulation time: 1 hr 26 min 48 sec) 
Heartbeat CPU 2 instructions: 620000000 cycles: 335999044 heartbeat IPC: 1.24981 cumulative IPC: 1.34181 (Simulation time: 1 hr 28 min 18 sec) 
Heartbeat CPU 1 instructions: 490000002 cycles: 337379210 heartbeat IPC: 1.09799 cumulative IPC: 0.957042 (Simulation time: 1 hr 28 min 38 sec) 
Heartbeat CPU 3 instructions: 330000003 cycles: 342272966 heartbeat IPC: 0.714191 cumulative IPC: 0.71813 (Simulation time: 1 hr 29 min 31 sec) 
Heartbeat CPU 2 instructions: 630000000 cycles: 343138159 heartbeat IPC: 1.40073 cumulative IPC: 1.34412 (Simulation time: 1 hr 29 min 43 sec) 
Heartbeat CPU 0 instructions: 360000000 cycles: 343300050 heartbeat IPC: 0.501418 cumulative IPC: 0.454505 (Simulation time: 1 hr 29 min 45 sec) 
Heartbeat CPU 1 instructions: 500000000 cycles: 348848481 heartbeat IPC: 0.871895 cumulative IPC: 0.951837 (Simulation time: 1 hr 30 min 48 sec) 
Heartbeat CPU 2 instructions: 640000000 cycles: 351098501 heartbeat IPC: 1.25623 cumulative IPC: 1.34044 (Simulation time: 1 hr 31 min 17 sec) 
Heartbeat CPU 3 instructions: 340000000 cycles: 356276086 heartbeat IPC: 0.714126 cumulative IPC: 0.717843 (Simulation time: 1 hr 32 min 14 sec) 
Heartbeat CPU 1 instructions: 510000000 cycles: 358256884 heartbeat IPC: 1.06288 cumulative IPC: 0.95714 (Simulation time: 1 hr 32 min 38 sec) 
Heartbeat CPU 2 instructions: 650000003 cycles: 359276985 heartbeat IPC: 1.22272 cumulative IPC: 1.33558 (Simulation time: 1 hr 32 min 48 sec) 
Heartbeat CPU 2 instructions: 660000000 cycles: 367233075 heartbeat IPC: 1.2569 cumulative IPC: 1.33254 (Simulation time: 1 hr 34 min 12 sec) 
Heartbeat CPU 0 instructions: 370000000 cycles: 368304219 heartbeat IPC: 0.399933 cumulative IPC: 0.447915 (Simulation time: 1 hr 34 min 24 sec) 
Heartbeat CPU 1 instructions: 520000000 cycles: 369261293 heartbeat IPC: 0.908727 cumulative IPC: 0.954578 (Simulation time: 1 hr 34 min 36 sec) 
Heartbeat CPU 3 instructions: 350000003 cycles: 370224891 heartbeat IPC: 0.716908 cumulative IPC: 0.71778 (Simulation time: 1 hr 34 min 50 sec) 
Heartbeat CPU 2 instructions: 670000002 cycles: 375135140 heartbeat IPC: 1.26549 cumulative IPC: 1.33006 (Simulation time: 1 hr 35 min 46 sec) 
Heartbeat CPU 1 instructions: 530000001 cycles: 380360202 heartbeat IPC: 0.90099 cumulative IPC: 0.951864 (Simulation time: 1 hr 36 min 47 sec) 
Heartbeat CPU 2 instructions: 680000000 cycles: 383114154 heartbeat IPC: 1.25329 cumulative IPC: 1.3273 (Simulation time: 1 hr 37 min 22 sec) 
Heartbeat CPU 3 instructions: 360000000 cycles: 384243973 heartbeat IPC: 0.713313 cumulative IPC: 0.717499 (Simulation time: 1 hr 37 min 33 sec) 
Heartbeat CPU 0 instructions: 380000000 cycles: 388620481 heartbeat IPC: 0.492217 cumulative IPC: 0.451873 (Simulation time: 1 hr 38 min 20 sec) 
Heartbeat CPU 1 instructions: 540000000 cycles: 389554186 heartbeat IPC: 1.08767 cumulative IPC: 0.957333 (Simulation time: 1 hr 38 min 32 sec) 
Heartbeat CPU 2 instructions: 690000002 cycles: 390979782 heartbeat IPC: 1.27135 cumulative IPC: 1.32538 (Simulation time: 1 hr 38 min 47 sec) 
Heartbeat CPU 3 instructions: 370000000 cycles: 398240442 heartbeat IPC: 0.714466 cumulative IPC: 0.71732 (Simulation time: 1 hr 40 min 6 sec) 
Heartbeat CPU 2 instructions: 700000000 cycles: 398843978 heartbeat IPC: 1.27159 cumulative IPC: 1.3236 (Simulation time: 1 hr 40 min 12 sec) 
Heartbeat CPU 1 instructions: 550000001 cycles: 401426191 heartbeat IPC: 0.842318 cumulative IPC: 0.951648 (Simulation time: 1 hr 40 min 40 sec) 
Heartbeat CPU 2 instructions: 710000000 cycles: 406538701 heartbeat IPC: 1.29959 cumulative IPC: 1.32285 (Simulation time: 1 hr 41 min 33 sec) 
Heartbeat CPU 1 instructions: 560000000 cycles: 411868174 heartbeat IPC: 0.957672 cumulative IPC: 0.951899 (Simulation time: 1 hr 42 min 32 sec) 
Heartbeat CPU 3 instructions: 380000000 cycles: 412220665 heartbeat IPC: 0.715296 cumulative IPC: 0.717207 (Simulation time: 1 hr 42 min 35 sec) 
Heartbeat CPU 2 instructions: 720000000 cycles: 414487896 heartbeat IPC: 1.25799 cumulative IPC: 1.32081 (Simulation time: 1 hr 43 min 0 sec) 
Heartbeat CPU 0 instructions: 390000000 cycles: 419643425 heartbeat IPC: 0.322342 cumulative IPC: 0.436322 (Simulation time: 1 hr 43 min 56 sec) 
Heartbeat CPU 1 instructions: 570000001 cycles: 422408391 heartbeat IPC: 0.948747 cumulative IPC: 0.951771 (Simulation time: 1 hr 44 min 26 sec) 
Heartbeat CPU 2 instructions: 730000001 cycles: 422426710 heartbeat IPC: 1.25963 cumulative IPC: 1.31895 (Simulation time: 1 hr 44 min 27 sec) 
Heartbeat CPU 3 instructions: 390000000 cycles: 426216848 heartbeat IPC: 0.714481 cumulative IPC: 0.717063 (Simulation time: 1 hr 45 min 7 sec) 
Heartbeat CPU 2 instructions: 740000000 cycles: 430349353 heartbeat IPC: 1.2622 cumulative IPC: 1.31728 (Simulation time: 1 hr 45 min 54 sec) 
Heartbeat CPU 1 instructions: 580000000 cycles: 433927852 heartbeat IPC: 0.868096 cumulative IPC: 0.948237 (Simulation time: 1 hr 46 min 32 sec) 
Heartbeat CPU 2 instructions: 750000001 cycles: 438169890 heartbeat IPC: 1.27868 cumulative IPC: 1.31619 (Simulation time: 1 hr 47 min 21 sec) 
Heartbeat CPU 3 instructions: 400000000 cycles: 440194473 heartbeat IPC: 0.715429 cumulative IPC: 0.716981 (Simulation time: 1 hr 47 min 42 sec) 
Heartbeat CPU 1 instructions: 590000001 cycles: 443964380 heartbeat IPC: 0.996361 cumulative IPC: 0.949945 (Simulation time: 1 hr 48 min 28 sec) 
Heartbeat CPU 0 instructions: 400000000 cycles: 444265076 heartbeat IPC: 0.406147 cumulative IPC: 0.433696 (Simulation time: 1 hr 48 min 31 sec) 
Heartbeat CPU 2 instructions: 760000000 cycles: 446052425 heartbeat IPC: 1.26863 cumulative IPC: 1.31488 (Simulation time: 1 hr 48 min 52 sec) 
Heartbeat CPU 2 instructions: 770000002 cycles: 454004991 heartbeat IPC: 1.25746 cumulative IPC: 1.31332 (Simulation time: 1 hr 50 min 23 sec) 
Heartbeat CPU 3 instructions: 410000000 cycles: 454209393 heartbeat IPC: 0.713525 cumulative IPC: 0.716816 (Simulation time: 1 hr 50 min 25 sec) 
Heartbeat CPU 1 instructions: 600000000 cycles: 454805157 heartbeat IPC: 0.922443 cumulative IPC: 0.948929 (Simulation time: 1 hr 50 min 33 sec) 
Heartbeat CPU 2 instructions: 780000000 cycles: 461779710 heartbeat IPC: 1.28622 cumulative IPC: 1.31262 (Simulation time: 1 hr 51 min 53 sec) 
Heartbeat CPU 0 instructions: 410000002 cycles: 463432021 heartbeat IPC: 0.521732 cumulative IPC: 0.43928 (Simulation time: 1 hr 52 min 11 sec) 
Heartbeat CPU 1 instructions: 610000002 cycles: 466538517 heartbeat IPC: 0.852271 cumulative IPC: 0.945214 (Simulation time: 1 hr 52 min 46 sec) 
Heartbeat CPU 3 instructions: 420000000 cycles: 468191247 heartbeat IPC: 0.715213 cumulative IPC: 0.716743 (Simulation time: 1 hr 53 min 6 sec) 
Heartbeat CPU 2 instructions: 790000001 cycles: 469867768 heartbeat IPC: 1.23639 cumulative IPC: 1.31062 (Simulation time: 1 hr 53 min 25 sec) 
Heartbeat CPU 1 instructions: 620000000 cycles: 477265433 heartbeat IPC: 0.932234 cumulative IPC: 0.944774 (Simulation time: 1 hr 54 min 48 sec) 
Heartbeat CPU 2 instructions: 800000000 cycles: 477877648 heartbeat IPC: 1.24846 cumulative IPC: 1.30905 (Simulation time: 1 hr 54 min 54 sec) 
Heartbeat CPU 3 instructions: 430000000 cycles: 482135793 heartbeat IPC: 0.717126 cumulative IPC: 0.71676 (Simulation time: 1 hr 55 min 45 sec) 
Heartbeat CPU 0 instructions: 420000000 cycles: 483757803 heartbeat IPC: 0.491986 cumulative IPC: 0.442602 (Simulation time: 1 hr 56 min 1 sec) 
Heartbeat CPU 2 instructions: 810000000 cycles: 485759802 heartbeat IPC: 1.26869 cumulative IPC: 1.30807 (Simulation time: 1 hr 56 min 24 sec) 
Heartbeat CPU 1 instructions: 630000003 cycles: 488004556 heartbeat IPC: 0.931175 cumulative IPC: 0.944327 (Simulation time: 1 hr 56 min 53 sec) 
Heartbeat CPU 2 instructions: 820000000 cycles: 493542517 heartbeat IPC: 1.2849 cumulative IPC: 1.30752 (Simulation time: 1 hr 57 min 52 sec) 
Heartbeat CPU 3 instructions: 440000000 cycles: 496145984 heartbeat IPC: 0.713766 cumulative IPC: 0.716635 (Simulation time: 1 hr 58 min 24 sec) 
Heartbeat CPU 1 instructions: 640000000 cycles: 500074305 heartbeat IPC: 0.828517 cumulative IPC: 0.940202 (Simulation time: 1 hr 59 min 4 sec) 
Heartbeat CPU 2 instructions: 830000000 cycles: 501456472 heartbeat IPC: 1.26359 cumulative IPC: 1.3065 (Simulation time: 1 hr 59 min 22 sec) 
Heartbeat CPU 0 instructions: 430000002 cycles: 504821975 heartbeat IPC: 0.47474 cumulative IPC: 0.444572 (Simulation time: 1 hr 59 min 58 sec) 
Heartbeat CPU 2 instructions: 840000000 cycles: 509415559 heartbeat IPC: 1.25643 cumulative IPC: 1.30536 (Simulation time: 2 hr 0 min 54 sec) 
Heartbeat CPU 3 instructions: 450000003 cycles: 510212921 heartbeat IPC: 0.710887 cumulative IPC: 0.716403 (Simulation time: 2 hr 1 min 2 sec) 
Heartbeat CPU 1 instructions: 650000000 cycles: 510763542 heartbeat IPC: 0.93552 cumulative IPC: 0.940058 (Simulation time: 2 hr 1 min 8 sec) 
Heartbeat CPU 2 instructions: 850000001 cycles: 517434835 heartbeat IPC: 1.247 cumulative IPC: 1.30404 (Simulation time: 2 hr 2 min 25 sec) 
Heartbeat CPU 1 instructions: 660000000 cycles: 521939291 heartbeat IPC: 0.894795 cumulative IPC: 0.938656 (Simulation time: 2 hr 3 min 15 sec) 
Heartbeat CPU 0 instructions: 440000000 cycles: 522622340 heartbeat IPC: 0.561786 cumulative IPC: 0.450346 (Simulation time: 2 hr 3 min 25 sec) 
Heartbeat CPU 3 instructions: 460000000 cycles: 524229191 heartbeat IPC: 0.713456 cumulative IPC: 0.716289 (Simulation time: 2 hr 3 min 42 sec) 
Heartbeat CPU 2 instructions: 860000000 cycles: 525554500 heartbeat IPC: 1.23158 cumulative IPC: 1.30243 (Simulation time: 2 hr 3 min 56 sec) 
Heartbeat CPU 2 instructions: 870000003 cycles: 533409713 heartbeat IPC: 1.27304 cumulative IPC: 1.30181 (Simulation time: 2 hr 5 min 24 sec) 
Heartbeat CPU 1 instructions: 670000001 cycles: 533955641 heartbeat IPC: 0.8322 cumulative IPC: 0.935224 (Simulation time: 2 hr 5 min 30 sec) 
Heartbeat CPU 3 instructions: 470000003 cycles: 538287794 heartbeat IPC: 0.711308 cumulative IPC: 0.716103 (Simulation time: 2 hr 6 min 19 sec) 
Heartbeat CPU 2 instructions: 880000000 cycles: 541298042 heartbeat IPC: 1.2677 cumulative IPC: 1.3011 (Simulation time: 2 hr 6 min 54 sec) 
Heartbeat CPU 0 instructions: 450000002 cycles: 541728278 heartbeat IPC: 0.523398 cumulative IPC: 0.454014 (Simulation time: 2 hr 7 min 0 sec) 
Heartbeat CPU 1 instructions: 680000000 cycles: 545082289 heartbeat IPC: 0.898743 cumulative IPC: 0.934166 (Simulation time: 2 hr 7 min 34 sec) 
Heartbeat CPU 2 instructions: 890000000 cycles: 549309673 heartbeat IPC: 1.24819 cumulative IPC: 1.30001 (Simulation time: 2 hr 8 min 25 sec) 
Heartbeat CPU 3 instructions: 480000000 cycles: 552320744 heartbeat IPC: 0.712608 cumulative IPC: 0.715978 (Simulation time: 2 hr 9 min 0 sec) 
Heartbeat CPU 1 instructions: 690000003 cycles: 555934201 heartbeat IPC: 0.921497 cumulative IPC: 0.933818 (Simulation time: 2 hr 9 min 37 sec) 
Heartbeat CPU 2 instructions: 900000000 cycles: 557082512 heartbeat IPC: 1.28653 cumulative IPC: 1.29974 (Simulation time: 2 hr 9 min 54 sec) 
Heartbeat CPU 0 instructions: 460000000 cycles: 561301812 heartbeat IPC: 0.510894 cumulative IPC: 0.456797 (Simulation time: 2 hr 10 min 40 sec) 
Heartbeat CPU 2 instructions: 910000002 cycles: 564953918 heartbeat IPC: 1.27042 cumulative IPC: 1.29917 (Simulation time: 2 hr 11 min 23 sec) 
Heartbeat CPU 3 instructions: 490000001 cycles: 566327649 heartbeat IPC: 0.713934 cumulative IPC: 0.715907 (Simulation time: 2 hr 11 min 37 sec) 
Heartbeat CPU 1 instructions: 700000000 cycles: 567655175 heartbeat IPC: 0.853171 cumulative IPC: 0.931492 (Simulation time: 2 hr 11 min 53 sec) 
Heartbeat CPU 2 instructions: 920000000 cycles: 572796752 heartbeat IPC: 1.27505 cumulative IPC: 1.29871 (Simulation time: 2 hr 12 min 51 sec) 
Heartbeat CPU 1 instructions: 710000001 cycles: 578012263 heartbeat IPC: 0.965522 cumulative IPC: 0.932338 (Simulation time: 2 hr 13 min 53 sec) 
Heartbeat CPU 3 instructions: 500000000 cycles: 580418378 heartbeat IPC: 0.709686 cumulative IPC: 0.715698 (Simulation time: 2 hr 14 min 18 sec) 
Heartbeat CPU 2 instructions: 930000002 cycles: 580791681 heartbeat IPC: 1.25079 cumulative IPC: 1.2978 (Simulation time: 2 hr 14 min 21 sec) 
Heartbeat CPU 0 instructions: 470000000 cycles: 582310165 heartbeat IPC: 0.476001 cumulative IPC: 0.457755 (Simulation time: 2 hr 14 min 39 sec) 
Heartbeat CPU 2 instructions: 940000000 cycles: 588518827 heartbeat IPC: 1.29414 cumulative IPC: 1.29773 (Simulation time: 2 hr 15 min 45 sec) 
Heartbeat CPU 1 instructions: 720000000 cycles: 589681222 heartbeat IPC: 0.856974 cumulative IPC: 0.930285 (Simulation time: 2 hr 16 min 0 sec) 
Heartbeat CPU 3 instructions: 510000003 cycles: 594474363 heartbeat IPC: 0.711441 cumulative IPC: 0.71556 (Simulation time: 2 hr 16 min 49 sec) 
Heartbeat CPU 2 instructions: 950000000 cycles: 596384046 heartbeat IPC: 1.27142 cumulative IPC: 1.29726 (Simulation time: 2 hr 17 min 12 sec) 
Heartbeat CPU 1 instructions: 730000003 cycles: 601381923 heartbeat IPC: 0.85465 cumulative IPC: 0.928274 (Simulation time: 2 hr 18 min 4 sec) 
Heartbeat CPU 2 instructions: 960000000 cycles: 604365409 heartbeat IPC: 1.25292 cumulative IPC: 1.29646 (Simulation time: 2 hr 18 min 39 sec) 
Heartbeat CPU 3 instructions: 520000000 cycles: 608585554 heartbeat IPC: 0.708657 cumulative IPC: 0.715342 (Simulation time: 2 hr 19 min 21 sec) 
Heartbeat CPU 2 instructions: 970000000 cycles: 611955542 heartbeat IPC: 1.3175 cumulative IPC: 1.29681 (Simulation time: 2 hr 20 min 2 sec) 
Heartbeat CPU 1 instructions: 740000000 cycles: 612179218 heartbeat IPC: 0.926158 cumulative IPC: 0.928224 (Simulation time: 2 hr 20 min 4 sec) 
Heartbeat CPU 0 instructions: 480000000 cycles: 612925518 heartbeat IPC: 0.326634 cumulative IPC: 0.448868 (Simulation time: 2 hr 20 min 11 sec) 
Heartbeat CPU 2 instructions: 980000000 cycles: 619908150 heartbeat IPC: 1.25745 cumulative IPC: 1.29613 (Simulation time: 2 hr 21 min 26 sec) 
Heartbeat CPU 3 instructions: 530000000 cycles: 622678434 heartbeat IPC: 0.709578 cumulative IPC: 0.715166 (Simulation time: 2 hr 21 min 56 sec) 
Heartbeat CPU 1 instructions: 750000000 cycles: 623742962 heartbeat IPC: 0.864772 cumulative IPC: 0.926637 (Simulation time: 2 hr 22 min 10 sec) 
Heartbeat CPU 2 instructions: 990000002 cycles: 627989622 heartbeat IPC: 1.2374 cumulative IPC: 1.29511 (Simulation time: 2 hr 22 min 58 sec) 
Heartbeat CPU 0 instructions: 490000002 cycles: 632796864 heartbeat IPC: 0.503237 cumulative IPC: 0.451159 (Simulation time: 2 hr 23 min 57 sec) 
Heartbeat CPU 1 instructions: 760000000 cycles: 635650394 heartbeat IPC: 0.839812 cumulative IPC: 0.924458 (Simulation time: 2 hr 24 min 28 sec) 
Heartbeat CPU 2 instructions: 1000000000 cycles: 635944287 heartbeat IPC: 1.25712 cumulative IPC: 1.29448 (Simulation time: 2 hr 24 min 31 sec) 
Heartbeat CPU 3 instructions: 540000000 cycles: 636305246 heartbeat IPC: 0.733847 cumulative IPC: 0.715702 (Simulation time: 2 hr 24 min 35 sec) 
Heartbeat CPU 2 instructions: 1010000001 cycles: 643809368 heartbeat IPC: 1.27144 cumulative IPC: 1.2941 (Simulation time: 2 hr 25 min 59 sec) 
Heartbeat CPU 1 instructions: 770000001 cycles: 646277345 heartbeat IPC: 0.941004 cumulative IPC: 0.92482 (Simulation time: 2 hr 26 min 26 sec) 
Heartbeat CPU 3 instructions: 550000000 cycles: 649693195 heartbeat IPC: 0.74694 cumulative IPC: 0.716558 (Simulation time: 2 hr 27 min 2 sec) 
Heartbeat CPU 2 instructions: 1020000000 cycles: 651841145 heartbeat IPC: 1.24505 cumulative IPC: 1.2933 (Simulation time: 2 hr 27 min 29 sec) 
Heartbeat CPU 0 instructions: 500000000 cycles: 655298155 heartbeat IPC: 0.444419 cumulative IPC: 0.450852 (Simulation time: 2 hr 28 min 6 sec) 
Heartbeat CPU 1 instructions: 780000000 cycles: 657389517 heartbeat IPC: 0.899914 cumulative IPC: 0.924263 (Simulation time: 2 hr 28 min 31 sec) 
Heartbeat CPU 2 instructions: 1030000000 cycles: 659704759 heartbeat IPC: 1.27168 cumulative IPC: 1.29296 (Simulation time: 2 hr 28 min 58 sec) 
Heartbeat CPU 3 instructions: 560000000 cycles: 663639068 heartbeat IPC: 0.717058 cumulative IPC: 0.716572 (Simulation time: 2 hr 29 min 41 sec) 
Heartbeat CPU 2 instructions: 1040000000 cycles: 667458293 heartbeat IPC: 1.28973 cumulative IPC: 1.29291 (Simulation time: 2 hr 30 min 23 sec) 
Heartbeat CPU 1 instructions: 790000003 cycles: 669410309 heartbeat IPC: 0.831892 cumulative IPC: 0.922077 (Simulation time: 2 hr 30 min 42 sec) 
Heartbeat CPU 2 instructions: 1050000000 cycles: 675188304 heartbeat IPC: 1.29366 cumulative IPC: 1.29292 (Simulation time: 2 hr 31 min 48 sec) 
Heartbeat CPU 3 instructions: 570000000 cycles: 677529053 heartbeat IPC: 0.719943 cumulative IPC: 0.716663 (Simulation time: 2 hr 32 min 12 sec) 
Heartbeat CPU 0 instructions: 510000003 cycles: 679971545 heartbeat IPC: 0.405295 cumulative IPC: 0.448685 (Simulation time: 2 hr 32 min 41 sec) 
Heartbeat CPU 1 instructions: 800000000 cycles: 680010754 heartbeat IPC: 0.943356 cumulative IPC: 0.922512 (Simulation time: 2 hr 32 min 41 sec) 
Heartbeat CPU 2 instructions: 1060000000 cycles: 682788239 heartbeat IPC: 1.3158 cumulative IPC: 1.29325 (Simulation time: 2 hr 33 min 12 sec) 
Heartbeat CPU 2 instructions: 1070000000 cycles: 690915695 heartbeat IPC: 1.2304 cumulative IPC: 1.29229 (Simulation time: 2 hr 34 min 42 sec) 
Heartbeat CPU 3 instructions: 580000000 cycles: 691458990 heartbeat IPC: 0.717878 cumulative IPC: 0.716695 (Simulation time: 2 hr 34 min 49 sec) 
Heartbeat CPU 1 instructions: 810000003 cycles: 691638121 heartbeat IPC: 0.86004 cumulative IPC: 0.921143 (Simulation time: 2 hr 34 min 51 sec) 
Heartbeat CPU 2 instructions: 1080000000 cycles: 698529680 heartbeat IPC: 1.31337 cumulative IPC: 1.29259 (Simulation time: 2 hr 36 min 8 sec) 
Heartbeat CPU 0 instructions: 520000000 cycles: 701396002 heartbeat IPC: 0.466756 cumulative IPC: 0.449402 (Simulation time: 2 hr 36 min 41 sec) 
Heartbeat CPU 1 instructions: 820000000 cycles: 703158641 heartbeat IPC: 0.868016 cumulative IPC: 0.920013 (Simulation time: 2 hr 37 min 1 sec) 
Heartbeat CPU 3 instructions: 590000003 cycles: 705363081 heartbeat IPC: 0.719213 cumulative IPC: 0.716759 (Simulation time: 2 hr 37 min 29 sec) 
Heartbeat CPU 2 instructions: 1090000000 cycles: 706305078 heartbeat IPC: 1.28611 cumulative IPC: 1.29249 (Simulation time: 2 hr 37 min 38 sec) 
Heartbeat CPU 1 instructions: 830000000 cycles: 713235696 heartbeat IPC: 0.992353 cumulative IPC: 0.921334 (Simulation time: 2 hr 38 min 54 sec) 
Heartbeat CPU 2 instructions: 1100000000 cycles: 714185399 heartbeat IPC: 1.26898 cumulative IPC: 1.29216 (Simulation time: 2 hr 39 min 4 sec) 
Heartbeat CPU 3 instructions: 600000000 cycles: 719234306 heartbeat IPC: 0.720917 cumulative IPC: 0.716862 (Simulation time: 2 hr 40 min 2 sec) 
Heartbeat CPU 2 instructions: 1110000002 cycles: 721949523 heartbeat IPC: 1.28798 cumulative IPC: 1.2921 (Simulation time: 2 hr 40 min 30 sec) 
Heartbeat CPU 0 instructions: 530000001 cycles: 724249777 heartbeat IPC: 0.437565 cumulative IPC: 0.448921 (Simulation time: 2 hr 40 min 58 sec) 
Heartbeat CPU 1 instructions: 840000000 cycles: 724504263 heartbeat IPC: 0.887424 cumulative IPC: 0.920656 (Simulation time: 2 hr 41 min 1 sec) 
Heartbeat CPU 2 instructions: 1120000000 cycles: 729851967 heartbeat IPC: 1.26543 cumulative IPC: 1.29173 (Simulation time: 2 hr 41 min 59 sec) 
Heartbeat CPU 3 instructions: 610000003 cycles: 733171425 heartbeat IPC: 0.717509 cumulative IPC: 0.716878 (Simulation time: 2 hr 42 min 37 sec) 
Heartbeat CPU 1 instructions: 850000001 cycles: 736155154 heartbeat IPC: 0.858304 cumulative IPC: 0.919392 (Simulation time: 2 hr 43 min 9 sec) 
Heartbeat CPU 2 instructions: 1130000000 cycles: 737835693 heartbeat IPC: 1.25255 cumulative IPC: 1.29119 (Simulation time: 2 hr 43 min 32 sec) 
Heartbeat CPU 2 instructions: 1140000000 cycles: 746011549 heartbeat IPC: 1.22311 cumulative IPC: 1.29024 (Simulation time: 2 hr 45 min 4 sec) 
Heartbeat CPU 1 instructions: 860000000 cycles: 746190810 heartbeat IPC: 0.996447 cumulative IPC: 0.920714 (Simulation time: 2 hr 45 min 6 sec) 
Heartbeat CPU 3 instructions: 620000000 cycles: 747027220 heartbeat IPC: 0.721719 cumulative IPC: 0.716993 (Simulation time: 2 hr 45 min 13 sec) 
Heartbeat CPU 0 instructions: 540000000 cycles: 747251664 heartbeat IPC: 0.434747 cumulative IPC: 0.448365 (Simulation time: 2 hr 45 min 16 sec) 
Heartbeat CPU 2 instructions: 1150000002 cycles: 753962323 heartbeat IPC: 1.25774 cumulative IPC: 1.2898 (Simulation time: 2 hr 46 min 28 sec) 
Heartbeat CPU 1 instructions: 870000001 cycles: 756887719 heartbeat IPC: 0.93485 cumulative IPC: 0.920968 (Simulation time: 2 hr 47 min 3 sec) 
Heartbeat CPU 3 instructions: 630000003 cycles: 760882776 heartbeat IPC: 0.721732 cumulative IPC: 0.717102 (Simulation time: 2 hr 47 min 46 sec) 
Heartbeat CPU 2 instructions: 1160000000 cycles: 761815412 heartbeat IPC: 1.27338 cumulative IPC: 1.28959 (Simulation time: 2 hr 47 min 57 sec) 
Heartbeat CPU 1 instructions: 880000000 cycles: 768274064 heartbeat IPC: 0.878245 cumulative IPC: 0.920166 (Simulation time: 2 hr 49 min 8 sec) 
Heartbeat CPU 2 instructions: 1170000002 cycles: 769573354 heartbeat IPC: 1.289 cumulative IPC: 1.28958 (Simulation time: 2 hr 49 min 24 sec) 
Heartbeat CPU 3 instructions: 640000000 cycles: 774850430 heartbeat IPC: 0.71594 cumulative IPC: 0.717076 (Simulation time: 2 hr 50 min 20 sec) 
Heartbeat CPU 0 instructions: 550000001 cycles: 776935738 heartbeat IPC: 0.336881 cumulative IPC: 0.44299 (Simulation time: 2 hr 50 min 45 sec) 
Heartbeat CPU 2 instructions: 1180000000 cycles: 777338852 heartbeat IPC: 1.28775 cumulative IPC: 1.28955 (Simulation time: 2 hr 50 min 50 sec) 
Heartbeat CPU 1 instructions: 890000003 cycles: 777738218 heartbeat IPC: 1.05662 cumulative IPC: 0.922261 (Simulation time: 2 hr 50 min 54 sec) 
Heartbeat CPU 2 instructions: 1190000001 cycles: 785302373 heartbeat IPC: 1.25573 cumulative IPC: 1.28912 (Simulation time: 2 hr 52 min 22 sec) 
Heartbeat CPU 1 instructions: 900000000 cycles: 786195399 heartbeat IPC: 1.18243 cumulative IPC: 0.925782 (Simulation time: 2 hr 52 min 33 sec) 
Heartbeat CPU 3 instructions: 650000000 cycles: 788707795 heartbeat IPC: 0.721638 cumulative IPC: 0.717177 (Simulation time: 2 hr 53 min 6 sec) 
Heartbeat CPU 1 instructions: 910000003 cycles: 793008314 heartbeat IPC: 1.4678 cumulative IPC: 0.931627 (Simulation time: 2 hr 53 min 56 sec) 
Heartbeat CPU 2 instructions: 1200000000 cycles: 793034430 heartbeat IPC: 1.29332 cumulative IPC: 1.28917 (Simulation time: 2 hr 53 min 56 sec) 
Heartbeat CPU 1 instructions: 920000000 cycles: 799490802 heartbeat IPC: 1.54262 cumulative IPC: 0.937833 (Simulation time: 2 hr 55 min 11 sec) 
Heartbeat CPU 2 instructions: 1210000003 cycles: 800791551 heartbeat IPC: 1.28914 cumulative IPC: 1.28917 (Simulation time: 2 hr 55 min 27 sec) 
Heartbeat CPU 0 instructions: 560000000 cycles: 803546423 heartbeat IPC: 0.375789 cumulative IPC: 0.440206 (Simulation time: 2 hr 56 min 0 sec) 
Heartbeat CPU 3 instructions: 660000000 cycles: 805161588 heartbeat IPC: 0.607763 cumulative IPC: 0.714381 (Simulation time: 2 hr 56 min 21 sec) 
Heartbeat CPU 1 instructions: 930000001 cycles: 805987576 heartbeat IPC: 1.53923 cumulative IPC: 0.943893 (Simulation time: 2 hr 56 min 31 sec) 
Heartbeat CPU 2 instructions: 1220000000 cycles: 808573697 heartbeat IPC: 1.28499 cumulative IPC: 1.28912 (Simulation time: 2 hr 57 min 4 sec) 
Heartbeat CPU 1 instructions: 940000000 cycles: 812469875 heartbeat IPC: 1.54266 cumulative IPC: 0.949853 (Simulation time: 2 hr 57 min 51 sec) 
Heartbeat CPU 2 instructions: 1230000002 cycles: 816598149 heartbeat IPC: 1.24619 cumulative IPC: 1.2886 (Simulation time: 2 hr 58 min 38 sec) 
Heartbeat CPU 1 instructions: 950000002 cycles: 819002922 heartbeat IPC: 1.53068 cumulative IPC: 0.955622 (Simulation time: 2 hr 59 min 6 sec) 
Heartbeat CPU 3 instructions: 670000001 cycles: 821841377 heartbeat IPC: 0.599528 cumulative IPC: 0.711481 (Simulation time: 2 hr 59 min 41 sec) 
Heartbeat CPU 2 instructions: 1240000000 cycles: 824389675 heartbeat IPC: 1.28345 cumulative IPC: 1.28854 (Simulation time: 3 hr 0 min 13 sec) 
Heartbeat CPU 0 instructions: 570000003 cycles: 825204422 heartbeat IPC: 0.461723 cumulative IPC: 0.440908 (Simulation time: 3 hr 0 min 21 sec) 
Heartbeat CPU 1 instructions: 960000000 cycles: 825527071 heartbeat IPC: 1.53277 cumulative IPC: 0.96129 (Simulation time: 3 hr 0 min 24 sec) 
Heartbeat CPU 1 instructions: 970000001 cycles: 832053759 heartbeat IPC: 1.53217 cumulative IPC: 0.966845 (Simulation time: 3 hr 1 min 38 sec) 
Heartbeat CPU 2 instructions: 1250000000 cycles: 832218085 heartbeat IPC: 1.2774 cumulative IPC: 1.28841 (Simulation time: 3 hr 1 min 40 sec) 
Heartbeat CPU 3 instructions: 680000000 cycles: 838016106 heartbeat IPC: 0.618248 cumulative IPC: 0.709252 (Simulation time: 3 hr 2 min 54 sec) 
Heartbeat CPU 1 instructions: 980000000 cycles: 838565829 heartbeat IPC: 1.53561 cumulative IPC: 0.972313 (Simulation time: 3 hr 3 min 0 sec) 
Heartbeat CPU 2 instructions: 1260000000 cycles: 839820559 heartbeat IPC: 1.31536 cumulative IPC: 1.28871 (Simulation time: 3 hr 3 min 17 sec) 
Heartbeat CPU 0 instructions: 580000000 cycles: 842849196 heartbeat IPC: 0.56674 cumulative IPC: 0.444165 (Simulation time: 3 hr 3 min 57 sec) 
Heartbeat CPU 1 instructions: 990000000 cycles: 845026785 heartbeat IPC: 1.54776 cumulative IPC: 0.97775 (Simulation time: 3 hr 4 min 21 sec) 
Heartbeat CPU 2 instructions: 1270000002 cycles: 847729491 heartbeat IPC: 1.26439 cumulative IPC: 1.28843 (Simulation time: 3 hr 4 min 50 sec) 
Heartbeat CPU 1 instructions: 1000000000 cycles: 851462307 heartbeat IPC: 1.55388 cumulative IPC: 0.983122 (Simulation time: 3 hr 5 min 37 sec) 
Heartbeat CPU 3 instructions: 690000003 cycles: 854701017 heartbeat IPC: 0.599344 cumulative IPC: 0.706608 (Simulation time: 3 hr 6 min 19 sec) 
Heartbeat CPU 2 instructions: 1280000000 cycles: 855988559 heartbeat IPC: 1.21079 cumulative IPC: 1.28751 (Simulation time: 3 hr 6 min 35 sec) 
Heartbeat CPU 1 instructions: 1010000000 cycles: 857913642 heartbeat IPC: 1.55007 cumulative IPC: 0.988372 (Simulation time: 3 hr 6 min 58 sec) 
Heartbeat CPU 2 instructions: 1290000001 cycles: 863841940 heartbeat IPC: 1.27334 cumulative IPC: 1.28735 (Simulation time: 3 hr 8 min 7 sec) 
Heartbeat CPU 1 instructions: 1020000000 cycles: 864344015 heartbeat IPC: 1.55512 cumulative IPC: 0.993556 (Simulation time: 3 hr 8 min 13 sec) 
Heartbeat CPU 0 instructions: 590000001 cycles: 865427016 heartbeat IPC: 0.442913 cumulative IPC: 0.444125 (Simulation time: 3 hr 8 min 26 sec) 
Heartbeat CPU 3 instructions: 700000000 cycles: 868673199 heartbeat IPC: 0.715708 cumulative IPC: 0.706788 (Simulation time: 3 hr 9 min 7 sec) 
Heartbeat CPU 1 instructions: 1030000001 cycles: 870789338 heartbeat IPC: 1.55151 cumulative IPC: 0.998624 (Simulation time: 3 hr 9 min 34 sec) 
Heartbeat CPU 2 instructions: 1300000000 cycles: 871954264 heartbeat IPC: 1.23269 cumulative IPC: 1.28672 (Simulation time: 3 hr 9 min 50 sec) 
Heartbeat CPU 1 instructions: 1040000000 cycles: 877203147 heartbeat IPC: 1.55914 cumulative IPC: 1.00365 (Simulation time: 3 hr 10 min 59 sec) 
Heartbeat CPU 2 instructions: 1310000000 cycles: 879906533 heartbeat IPC: 1.2575 cumulative IPC: 1.2864 (Simulation time: 3 hr 11 min 32 sec) 
Heartbeat CPU 3 instructions: 710000001 cycles: 882389817 heartbeat IPC: 0.729043 cumulative IPC: 0.707211 (Simulation time: 3 hr 12 min 3 sec) 
Heartbeat CPU 0 instructions: 600000000 cycles: 883310290 heartbeat IPC: 0.559182 cumulative IPC: 0.446975 (Simulation time: 3 hr 12 min 15 sec) 
Heartbeat CPU 1 instructions: 1050000003 cycles: 883624338 heartbeat IPC: 1.55734 cumulative IPC: 1.00857 (Simulation time: 3 hr 12 min 18 sec) 
Heartbeat CPU 2 instructions: 1320000000 cycles: 887808288 heartbeat IPC: 1.26554 cumulative IPC: 1.28617 (Simulation time: 3 hr 13 min 8 sec) 
Heartbeat CPU 1 instructions: 1060000000 cycles: 890048187 heartbeat IPC: 1.5567 cumulative IPC: 1.0134 (Simulation time: 3 hr 13 min 36 sec) 
Heartbeat CPU 2 instructions: 1330000003 cycles: 895685135 heartbeat IPC: 1.26954 cumulative IPC: 1.286 (Simulation time: 3 hr 14 min 43 sec) 
Heartbeat CPU 3 instructions: 720000000 cycles: 896350840 heartbeat IPC: 0.71628 cumulative IPC: 0.707383 (Simulation time: 3 hr 14 min 50 sec) 
Heartbeat CPU 1 instructions: 1070000000 cycles: 899022370 heartbeat IPC: 1.11431 cumulative IPC: 1.01463 (Simulation time: 3 hr 15 min 21 sec) 
Heartbeat CPU 0 instructions: 610000003 cycles: 902100515 heartbeat IPC: 0.532192 cumulative IPC: 0.449136 (Simulation time: 3 hr 16 min 0 sec) 
Heartbeat CPU 2 instructions: 1340000000 cycles: 903438842 heartbeat IPC: 1.28971 cumulative IPC: 1.28603 (Simulation time: 3 hr 16 min 15 sec) 
Heartbeat CPU 1 instructions: 1080000000 cycles: 906722389 heartbeat IPC: 1.2987 cumulative IPC: 1.01756 (Simulation time: 3 hr 16 min 55 sec) 
Heartbeat CPU 2 instructions: 1350000003 cycles: 911345172 heartbeat IPC: 1.26481 cumulative IPC: 1.28581 (Simulation time: 3 hr 17 min 52 sec) 
Heartbeat CPU 3 instructions: 730000000 cycles: 911612014 heartbeat IPC: 0.655258 cumulative IPC: 0.706323 (Simulation time: 3 hr 17 min 54 sec) 
Heartbeat CPU 1 instructions: 1090000000 cycles: 914948619 heartbeat IPC: 1.21562 cumulative IPC: 1.01972 (Simulation time: 3 hr 18 min 34 sec) 
Heartbeat CPU 2 instructions: 1360000000 cycles: 919178276 heartbeat IPC: 1.27663 cumulative IPC: 1.28572 (Simulation time: 3 hr 19 min 25 sec) 
Heartbeat CPU 0 instructions: 620000000 cycles: 921116890 heartbeat IPC: 0.525862 cumulative IPC: 0.451056 (Simulation time: 3 hr 19 min 48 sec) 
Heartbeat CPU 1 instructions: 1100000000 cycles: 922859466 heartbeat IPC: 1.26409 cumulative IPC: 1.02226 (Simulation time: 3 hr 20 min 8 sec) 
Heartbeat CPU 2 instructions: 1370000000 cycles: 927024191 heartbeat IPC: 1.27455 cumulative IPC: 1.2856 (Simulation time: 3 hr 20 min 45 sec) 
Heartbeat CPU 1 instructions: 1110000001 cycles: 930081157 heartbeat IPC: 1.38472 cumulative IPC: 1.02566 (Simulation time: 3 hr 21 min 12 sec) 
Heartbeat CPU 3 instructions: 740000000 cycles: 933370187 heartbeat IPC: 0.459597 cumulative IPC: 0.699371 (Simulation time: 3 hr 21 min 48 sec) 
Heartbeat CPU 2 instructions: 1380000000 cycles: 935011460 heartbeat IPC: 1.25199 cumulative IPC: 1.28525 (Simulation time: 3 hr 22 min 10 sec) 
Heartbeat CPU 1 instructions: 1120000000 cycles: 936693607 heartbeat IPC: 1.5123 cumulative IPC: 1.02981 (Simulation time: 3 hr 22 min 33 sec) 
Finished CPU 2 instructions: 1000000000 cycles: 778243969 cumulative IPC: 1.28494 (Simulation time: 3 hr 23 min 11 sec) 
Heartbeat CPU 3 instructions: 750000000 cycles: 941632436 heartbeat IPC: 1.21032 cumulative IPC: 0.70478 (Simulation time: 3 hr 23 min 40 sec) 
Heartbeat CPU 2 instructions: 1390000003 cycles: 942864751 heartbeat IPC: 1.27335 cumulative IPC: 1.28513 (Simulation time: 3 hr 23 min 56 sec) 
Heartbeat CPU 1 instructions: 1130000001 cycles: 943363530 heartbeat IPC: 1.49927 cumulative IPC: 1.03382 (Simulation time: 3 hr 24 min 3 sec) 
Heartbeat CPU 3 instructions: 760000000 cycles: 949966720 heartbeat IPC: 1.19986 cumulative IPC: 0.710012 (Simulation time: 3 hr 25 min 32 sec) 
Heartbeat CPU 1 instructions: 1140000000 cycles: 949989623 heartbeat IPC: 1.50918 cumulative IPC: 1.03781 (Simulation time: 3 hr 25 min 32 sec) 
Heartbeat CPU 2 instructions: 1400000000 cycles: 950822302 heartbeat IPC: 1.25667 cumulative IPC: 1.28485 (Simulation time: 3 hr 25 min 43 sec) 
Heartbeat CPU 1 instructions: 1150000003 cycles: 956636181 heartbeat IPC: 1.50454 cumulative IPC: 1.04171 (Simulation time: 3 hr 27 min 2 sec) 
Heartbeat CPU 0 instructions: 630000000 cycles: 957034208 heartbeat IPC: 0.278417 cumulative IPC: 0.443264 (Simulation time: 3 hr 27 min 8 sec) 
Heartbeat CPU 3 instructions: 770000003 cycles: 958309521 heartbeat IPC: 1.19864 cumulative IPC: 0.715126 (Simulation time: 3 hr 27 min 26 sec) 
Heartbeat CPU 2 instructions: 1410000000 cycles: 958842867 heartbeat IPC: 1.24679 cumulative IPC: 1.28447 (Simulation time: 3 hr 27 min 33 sec) 
Heartbeat CPU 1 instructions: 1160000000 cycles: 963262272 heartbeat IPC: 1.50918 cumulative IPC: 1.04557 (Simulation time: 3 hr 28 min 33 sec) 
Heartbeat CPU 3 instructions: 780000000 cycles: 966584348 heartbeat IPC: 1.20848 cumulative IPC: 0.720195 (Simulation time: 3 hr 29 min 18 sec) 
Heartbeat CPU 2 instructions: 1420000000 cycles: 967021482 heartbeat IPC: 1.2227 cumulative IPC: 1.28384 (Simulation time: 3 hr 29 min 24 sec) 
Heartbeat CPU 1 instructions: 1170000002 cycles: 969879311 heartbeat IPC: 1.51125 cumulative IPC: 1.04938 (Simulation time: 3 hr 30 min 3 sec) 
Heartbeat CPU 3 instructions: 790000003 cycles: 974876989 heartbeat IPC: 1.20589 cumulative IPC: 0.725146 (Simulation time: 3 hr 31 min 12 sec) 
Heartbeat CPU 2 instructions: 1430000001 cycles: 975202887 heartbeat IPC: 1.22228 cumulative IPC: 1.28322 (Simulation time: 3 hr 31 min 16 sec) 
Heartbeat CPU 1 instructions: 1180000000 cycles: 976557185 heartbeat IPC: 1.49748 cumulative IPC: 1.05305 (Simulation time: 3 hr 31 min 35 sec) 
Heartbeat CPU 3 instructions: 800000000 cycles: 983139003 heartbeat IPC: 1.21036 cumulative IPC: 0.730023 (Simulation time: 3 hr 33 min 7 sec) 
Heartbeat CPU 1 instructions: 1190000001 cycles: 983165756 heartbeat IPC: 1.51319 cumulative IPC: 1.05675 (Simulation time: 3 hr 33 min 7 sec) 
Heartbeat CPU 2 instructions: 1440000000 cycles: 983229727 heartbeat IPC: 1.24582 cumulative IPC: 1.28285 (Simulation time: 3 hr 33 min 8 sec) 
Heartbeat CPU 0 instructions: 640000000 cycles: 985280109 heartbeat IPC: 0.354034 cumulative IPC: 0.440206 (Simulation time: 3 hr 33 min 38 sec) 
Heartbeat CPU 1 instructions: 1200000000 cycles: 989655036 heartbeat IPC: 1.541 cumulative IPC: 1.06055 (Simulation time: 3 hr 34 min 39 sec) 
Heartbeat CPU 3 instructions: 810000000 cycles: 991404163 heartbeat IPC: 1.2099 cumulative IPC: 0.734801 (Simulation time: 3 hr 35 min 3 sec) 
Heartbeat CPU 2 instructions: 1450000001 cycles: 991458990 heartbeat IPC: 1.21518 cumulative IPC: 1.28218 (Simulation time: 3 hr 35 min 4 sec) 
Heartbeat CPU 1 instructions: 1210000001 cycles: 996286204 heartbeat IPC: 1.50803 cumulative IPC: 1.0641 (Simulation time: 3 hr 36 min 5 sec) 
Heartbeat CPU 3 instructions: 820000000 cycles: 1000153169 heartbeat IPC: 1.14299 cumulative IPC: 0.739058 (Simulation time: 3 hr 36 min 49 sec) 
Heartbeat CPU 1 instructions: 1220000000 cycles: 1003005673 heartbeat IPC: 1.48821 cumulative IPC: 1.06749 (Simulation time: 3 hr 37 min 27 sec) 
Heartbeat CPU 2 instructions: 1460000000 cycles: 1003371263 heartbeat IPC: 0.83947 cumulative IPC: 1.27592 (Simulation time: 3 hr 37 min 32 sec) 
Heartbeat CPU 3 instructions: 830000001 cycles: 1008590486 heartbeat IPC: 1.18521 cumulative IPC: 0.7435 (Simulation time: 3 hr 38 min 45 sec) 
Heartbeat CPU 1 instructions: 1230000003 cycles: 1009662255 heartbeat IPC: 1.50227 cumulative IPC: 1.0709 (Simulation time: 3 hr 39 min 0 sec) 
Heartbeat CPU 2 instructions: 1470000000 cycles: 1014133843 heartbeat IPC: 0.929145 cumulative IPC: 1.27155 (Simulation time: 3 hr 39 min 59 sec) 
Heartbeat CPU 1 instructions: 1240000000 cycles: 1016208873 heartbeat IPC: 1.52751 cumulative IPC: 1.07439 (Simulation time: 3 hr 40 min 27 sec) 
Heartbeat CPU 3 instructions: 840000000 cycles: 1016903855 heartbeat IPC: 1.20288 cumulative IPC: 0.747964 (Simulation time: 3 hr 40 min 37 sec) 
Heartbeat CPU 0 instructions: 650000000 cycles: 1017911466 heartbeat IPC: 0.306454 cumulative IPC: 0.435111 (Simulation time: 3 hr 40 min 51 sec) 
Heartbeat CPU 1 instructions: 1250000001 cycles: 1022697992 heartbeat IPC: 1.54104 cumulative IPC: 1.07791 (Simulation time: 3 hr 41 min 58 sec) 
Heartbeat CPU 2 instructions: 1480000000 cycles: 1023668763 heartbeat IPC: 1.04878 cumulative IPC: 1.26908 (Simulation time: 3 hr 42 min 11 sec) 
Heartbeat CPU 3 instructions: 850000000 cycles: 1025138448 heartbeat IPC: 1.21439 cumulative IPC: 0.75241 (Simulation time: 3 hr 42 min 33 sec) 
Heartbeat CPU 1 instructions: 1260000000 cycles: 1029193609 heartbeat IPC: 1.5395 cumulative IPC: 1.08136 (Simulation time: 3 hr 43 min 30 sec) 
Heartbeat CPU 2 instructions: 1490000003 cycles: 1033284427 heartbeat IPC: 1.03997 cumulative IPC: 1.26656 (Simulation time: 3 hr 44 min 21 sec) 
Heartbeat CPU 3 instructions: 860000000 cycles: 1033453645 heartbeat IPC: 1.20262 cumulative IPC: 0.756702 (Simulation time: 3 hr 44 min 23 sec) 
Heartbeat CPU 1 instructions: 1270000001 cycles: 1038550234 heartbeat IPC: 1.06876 cumulative IPC: 1.08123 (Simulation time: 3 hr 45 min 28 sec) 
Heartbeat CPU 0 instructions: 660000000 cycles: 1041625597 heartbeat IPC: 0.42169 cumulative IPC: 0.434749 (Simulation time: 3 hr 46 min 6 sec) 
Heartbeat CPU 3 instructions: 870000002 cycles: 1041728164 heartbeat IPC: 1.20853 cumulative IPC: 0.760948 (Simulation time: 3 hr 46 min 7 sec) 
Heartbeat CPU 2 instructions: 1500000000 cycles: 1042750982 heartbeat IPC: 1.05635 cumulative IPC: 1.2643 (Simulation time: 3 hr 46 min 22 sec) 
Heartbeat CPU 1 instructions: 1280000000 cycles: 1046349232 heartbeat IPC: 1.28222 cumulative IPC: 1.083 (Simulation time: 3 hr 47 min 11 sec) 
Heartbeat CPU 3 instructions: 880000000 cycles: 1049972036 heartbeat IPC: 1.21302 cumulative IPC: 0.765141 (Simulation time: 3 hr 47 min 58 sec) 
Heartbeat CPU 2 instructions: 1510000001 cycles: 1052340135 heartbeat IPC: 1.04285 cumulative IPC: 1.26192 (Simulation time: 3 hr 48 min 26 sec) 
Heartbeat CPU 1 instructions: 1290000000 cycles: 1055211673 heartbeat IPC: 1.12836 cumulative IPC: 1.08345 (Simulation time: 3 hr 49 min 3 sec) 
Heartbeat CPU 3 instructions: 890000003 cycles: 1058151440 heartbeat IPC: 1.22258 cumulative IPC: 0.769313 (Simulation time: 3 hr 49 min 40 sec) 
Heartbeat CPU 2 instructions: 1520000000 cycles: 1061886987 heartbeat IPC: 1.04747 cumulative IPC: 1.25964 (Simulation time: 3 hr 50 min 29 sec) 
Heartbeat CPU 1 instructions: 1300000000 cycles: 1063368972 heartbeat IPC: 1.2259 cumulative IPC: 1.08474 (Simulation time: 3 hr 50 min 49 sec) 
Heartbeat CPU 0 instructions: 670000000 cycles: 1064578188 heartbeat IPC: 0.435681 cumulative IPC: 0.434773 (Simulation time: 3 hr 51 min 5 sec) 
Heartbeat CPU 3 instructions: 900000000 cycles: 1066479985 heartbeat IPC: 1.20069 cumulative IPC: 0.773282 (Simulation time: 3 hr 51 min 31 sec) 
Heartbeat CPU 1 instructions: 1310000003 cycles: 1070544086 heartbeat IPC: 1.39371 cumulative IPC: 1.08718 (Simulation time: 3 hr 52 min 26 sec) 
Heartbeat CPU 2 instructions: 1530000003 cycles: 1071383948 heartbeat IPC: 1.05297 cumulative IPC: 1.25749 (Simulation time: 3 hr 52 min 38 sec) 
Heartbeat CPU 3 instructions: 910000000 cycles: 1074782429 heartbeat IPC: 1.20446 cumulative IPC: 0.7772 (Simulation time: 3 hr 53 min 22 sec) 
Heartbeat CPU 1 instructions: 1320000000 cycles: 1077253188 heartbeat IPC: 1.49051 cumulative IPC: 1.09013 (Simulation time: 3 hr 53 min 55 sec) 
Finished CPU 1 instructions: 1000000000 cycles: 916964058 cumulative IPC: 1.09056 (Simulation time: 3 hr 54 min 8 sec) 
Heartbeat CPU 2 instructions: 1540000000 cycles: 1081006501 heartbeat IPC: 1.03922 cumulative IPC: 1.2552 (Simulation time: 3 hr 54 min 46 sec) 
Heartbeat CPU 3 instructions: 920000000 cycles: 1083033381 heartbeat IPC: 1.21198 cumulative IPC: 0.781092 (Simulation time: 3 hr 55 min 14 sec) 
Heartbeat CPU 1 instructions: 1330000001 cycles: 1083907938 heartbeat IPC: 1.50269 cumulative IPC: 1.09311 (Simulation time: 3 hr 55 min 26 sec) 
Heartbeat CPU 2 instructions: 1550000000 cycles: 1090531035 heartbeat IPC: 1.04992 cumulative IPC: 1.2531 (Simulation time: 3 hr 56 min 57 sec) 
Heartbeat CPU 1 instructions: 1340000000 cycles: 1090541000 heartbeat IPC: 1.5076 cumulative IPC: 1.09606 (Simulation time: 3 hr 56 min 57 sec) 
Heartbeat CPU 3 instructions: 930000001 cycles: 1091303648 heartbeat IPC: 1.20915 cumulative IPC: 0.784899 (Simulation time: 3 hr 57 min 8 sec) 
Heartbeat CPU 0 instructions: 680000000 cycles: 1091423627 heartbeat IPC: 0.372503 cumulative IPC: 0.432976 (Simulation time: 3 hr 57 min 9 sec) 
Heartbeat CPU 1 instructions: 1350000003 cycles: 1097199670 heartbeat IPC: 1.5018 cumulative IPC: 1.09895 (Simulation time: 3 hr 58 min 26 sec) 
Heartbeat CPU 3 instructions: 940000000 cycles: 1099493031 heartbeat IPC: 1.22109 cumulative IPC: 0.788706 (Simulation time: 3 hr 58 min 58 sec) 
Heartbeat CPU 2 instructions: 1560000000 cycles: 1100159864 heartbeat IPC: 1.03855 cumulative IPC: 1.2509 (Simulation time: 3 hr 59 min 7 sec) 
Heartbeat CPU 1 instructions: 1360000000 cycles: 1103803400 heartbeat IPC: 1.5143 cumulative IPC: 1.10186 (Simulation time: 3 hr 59 min 57 sec) 
Heartbeat CPU 3 instructions: 950000003 cycles: 1107751286 heartbeat IPC: 1.21091 cumulative IPC: 0.79239 (Simulation time: 4 hr 0 min 51 sec) 
Heartbeat CPU 2 instructions: 1570000001 cycles: 1109699935 heartbeat IPC: 1.04821 cumulative IPC: 1.24886 (Simulation time: 4 hr 1 min 17 sec) 
Heartbeat CPU 1 instructions: 1370000001 cycles: 1110428910 heartbeat IPC: 1.50932 cumulative IPC: 1.1047 (Simulation time: 4 hr 1 min 27 sec) 
Heartbeat CPU 3 instructions: 960000000 cycles: 1116060652 heartbeat IPC: 1.20346 cumulative IPC: 0.795967 (Simulation time: 4 hr 2 min 46 sec) 
Heartbeat CPU 0 instructions: 690000000 cycles: 1116961893 heartbeat IPC: 0.391569 cumulative IPC: 0.431869 (Simulation time: 4 hr 2 min 58 sec) 
Heartbeat CPU 1 instructions: 1380000000 cycles: 1117065670 heartbeat IPC: 1.50676 cumulative IPC: 1.1075 (Simulation time: 4 hr 3 min 0 sec) 
Heartbeat CPU 2 instructions: 1580000000 cycles: 1119262057 heartbeat IPC: 1.04579 cumulative IPC: 1.24683 (Simulation time: 4 hr 3 min 30 sec) 
Heartbeat CPU 1 instructions: 1390000001 cycles: 1123619185 heartbeat IPC: 1.5259 cumulative IPC: 1.11035 (Simulation time: 4 hr 4 min 31 sec) 
Heartbeat CPU 3 instructions: 970000000 cycles: 1124305540 heartbeat IPC: 1.21287 cumulative IPC: 0.799536 (Simulation time: 4 hr 4 min 41 sec) 
Heartbeat CPU 2 instructions: 1590000001 cycles: 1128808605 heartbeat IPC: 1.0475 cumulative IPC: 1.24487 (Simulation time: 4 hr 5 min 44 sec) 
Heartbeat CPU 1 instructions: 1400000000 cycles: 1130081292 heartbeat IPC: 1.54748 cumulative IPC: 1.11326 (Simulation time: 4 hr 6 min 2 sec) 
Heartbeat CPU 3 instructions: 980000000 cycles: 1132589884 heartbeat IPC: 1.2071 cumulative IPC: 0.803012 (Simulation time: 4 hr 6 min 36 sec) 
Heartbeat CPU 1 instructions: 1410000002 cycles: 1136604895 heartbeat IPC: 1.5329 cumulative IPC: 1.11607 (Simulation time: 4 hr 7 min 34 sec) 
Heartbeat CPU 2 instructions: 1600000000 cycles: 1138351445 heartbeat IPC: 1.04791 cumulative IPC: 1.24294 (Simulation time: 4 hr 7 min 56 sec) 
Heartbeat CPU 3 instructions: 990000001 cycles: 1140887007 heartbeat IPC: 1.20524 cumulative IPC: 0.806419 (Simulation time: 4 hr 8 min 29 sec) 
Heartbeat CPU 0 instructions: 700000000 cycles: 1140959837 heartbeat IPC: 0.416702 cumulative IPC: 0.431498 (Simulation time: 4 hr 8 min 30 sec) 
Heartbeat CPU 1 instructions: 1420000000 cycles: 1143166511 heartbeat IPC: 1.52401 cumulative IPC: 1.11879 (Simulation time: 4 hr 9 min 0 sec) 
Heartbeat CPU 2 instructions: 1610000000 cycles: 1147799042 heartbeat IPC: 1.05847 cumulative IPC: 1.24118 (Simulation time: 4 hr 10 min 3 sec) 
Heartbeat CPU 3 instructions: 1000000000 cycles: 1149074260 heartbeat IPC: 1.22141 cumulative IPC: 0.809858 (Simulation time: 4 hr 10 min 21 sec) 
Heartbeat CPU 1 instructions: 1430000000 cycles: 1149720254 heartbeat IPC: 1.52585 cumulative IPC: 1.12149 (Simulation time: 4 hr 10 min 29 sec) 
Heartbeat CPU 1 instructions: 1440000000 cycles: 1156236234 heartbeat IPC: 1.53469 cumulative IPC: 1.1242 (Simulation time: 4 hr 11 min 57 sec) 
Heartbeat CPU 2 instructions: 1620000000 cycles: 1157282101 heartbeat IPC: 1.05451 cumulative IPC: 1.2394 (Simulation time: 4 hr 12 min 11 sec) 
Heartbeat CPU 3 instructions: 1010000002 cycles: 1157384843 heartbeat IPC: 1.20329 cumulative IPC: 0.813141 (Simulation time: 4 hr 12 min 12 sec) 
Heartbeat CPU 1 instructions: 1450000000 cycles: 1162716556 heartbeat IPC: 1.54313 cumulative IPC: 1.12691 (Simulation time: 4 hr 13 min 30 sec) 
Heartbeat CPU 3 instructions: 1020000000 cycles: 1165666402 heartbeat IPC: 1.2075 cumulative IPC: 0.816392 (Simulation time: 4 hr 14 min 10 sec) 
Heartbeat CPU 2 instructions: 1630000002 cycles: 1166811614 heartbeat IPC: 1.04937 cumulative IPC: 1.2376 (Simulation time: 4 hr 14 min 25 sec) 
Heartbeat CPU 0 instructions: 710000000 cycles: 1168880082 heartbeat IPC: 0.358163 cumulative IPC: 0.429466 (Simulation time: 4 hr 14 min 52 sec) 
Heartbeat CPU 1 instructions: 1460000000 cycles: 1169235988 heartbeat IPC: 1.53388 cumulative IPC: 1.12954 (Simulation time: 4 hr 14 min 57 sec) 
Heartbeat CPU 3 instructions: 1030000002 cycles: 1173929846 heartbeat IPC: 1.21015 cumulative IPC: 0.819605 (Simulation time: 4 hr 15 min 53 sec) 
Heartbeat CPU 2 instructions: 1640000000 cycles: 1176342243 heartbeat IPC: 1.04925 cumulative IPC: 1.23583 (Simulation time: 4 hr 16 min 22 sec) 
Heartbeat CPU 1 instructions: 1470000002 cycles: 1178776864 heartbeat IPC: 1.04812 cumulative IPC: 1.12878 (Simulation time: 4 hr 16 min 53 sec) 
Heartbeat CPU 3 instructions: 1040000000 cycles: 1182224998 heartbeat IPC: 1.20552 cumulative IPC: 0.822741 (Simulation time: 4 hr 17 min 36 sec) 
Heartbeat CPU 2 instructions: 1650000003 cycles: 1185893962 heartbeat IPC: 1.04693 cumulative IPC: 1.23407 (Simulation time: 4 hr 18 min 24 sec) 
Heartbeat CPU 1 instructions: 1480000000 cycles: 1186459964 heartbeat IPC: 1.30156 cumulative IPC: 1.13007 (Simulation time: 4 hr 18 min 32 sec) 
Heartbeat CPU 3 instructions: 1050000003 cycles: 1190560780 heartbeat IPC: 1.19965 cumulative IPC: 0.825793 (Simulation time: 4 hr 19 min 24 sec) 
Heartbeat CPU 2 instructions: 1660000000 cycles: 1195450641 heartbeat IPC: 1.04639 cumulative IPC: 1.23233 (Simulation time: 4 hr 20 min 23 sec) 
Heartbeat CPU 1 instructions: 1490000002 cycles: 1195702296 heartbeat IPC: 1.08198 cumulative IPC: 1.12964 (Simulation time: 4 hr 20 min 26 sec) 
Heartbeat CPU 3 instructions: 1060000000 cycles: 1198831479 heartbeat IPC: 1.20909 cumulative IPC: 0.828848 (Simulation time: 4 hr 21 min 4 sec) 
Heartbeat CPU 1 instructions: 1500000000 cycles: 1203519528 heartbeat IPC: 1.27922 cumulative IPC: 1.13077 (Simulation time: 4 hr 22 min 6 sec) 
Heartbeat CPU 2 instructions: 1670000002 cycles: 1204991764 heartbeat IPC: 1.04809 cumulative IPC: 1.23065 (Simulation time: 4 hr 22 min 26 sec) 
Heartbeat CPU 0 instructions: 720000000 cycles: 1205128417 heartbeat IPC: 0.275875 cumulative IPC: 0.424132 (Simulation time: 4 hr 22 min 28 sec) 
Heartbeat CPU 3 instructions: 1070000000 cycles: 1207123164 heartbeat IPC: 1.20603 cumulative IPC: 0.831839 (Simulation time: 4 hr 22 min 54 sec) 
Heartbeat CPU 1 instructions: 1510000002 cycles: 1210551523 heartbeat IPC: 1.42207 cumulative IPC: 1.13272 (Simulation time: 4 hr 23 min 42 sec) 
Heartbeat CPU 2 instructions: 1680000000 cycles: 1214563045 heartbeat IPC: 1.04479 cumulative IPC: 1.22896 (Simulation time: 4 hr 24 min 37 sec) 
Heartbeat CPU 3 instructions: 1080000000 cycles: 1215449933 heartbeat IPC: 1.20095 cumulative IPC: 0.834754 (Simulation time: 4 hr 24 min 50 sec) 
Heartbeat CPU 1 instructions: 1520000000 cycles: 1217187980 heartbeat IPC: 1.50683 cumulative IPC: 1.13507 (Simulation time: 4 hr 25 min 14 sec) 
Heartbeat CPU 3 instructions: 1090000001 cycles: 1223688356 heartbeat IPC: 1.21382 cumulative IPC: 0.837693 (Simulation time: 4 hr 26 min 43 sec) 
Heartbeat CPU 1 instructions: 1530000001 cycles: 1223840406 heartbeat IPC: 1.50321 cumulative IPC: 1.13737 (Simulation time: 4 hr 26 min 45 sec) 
Heartbeat CPU 2 instructions: 1690000001 cycles: 1224049948 heartbeat IPC: 1.05408 cumulative IPC: 1.2274 (Simulation time: 4 hr 26 min 48 sec) 
Heartbeat CPU 0 instructions: 730000001 cycles: 1229941756 heartbeat IPC: 0.403009 cumulative IPC: 0.423642 (Simulation time: 4 hr 28 min 10 sec) 
Heartbeat CPU 1 instructions: 1540000000 cycles: 1230490503 heartbeat IPC: 1.50374 cumulative IPC: 1.13965 (Simulation time: 4 hr 28 min 18 sec) 
Heartbeat CPU 3 instructions: 1100000000 cycles: 1231924974 heartbeat IPC: 1.21409 cumulative IPC: 0.840589 (Simulation time: 4 hr 28 min 38 sec) 
Heartbeat CPU 2 instructions: 1700000000 cycles: 1233531231 heartbeat IPC: 1.05471 cumulative IPC: 1.22587 (Simulation time: 4 hr 29 min 0 sec) 
Heartbeat CPU 1 instructions: 1550000001 cycles: 1237117765 heartbeat IPC: 1.50892 cumulative IPC: 1.14193 (Simulation time: 4 hr 29 min 49 sec) 
Heartbeat CPU 3 instructions: 1110000001 cycles: 1240161252 heartbeat IPC: 1.21414 cumulative IPC: 0.843441 (Simulation time: 4 hr 30 min 31 sec) 
Heartbeat CPU 2 instructions: 1710000002 cycles: 1243004527 heartbeat IPC: 1.0556 cumulative IPC: 1.22438 (Simulation time: 4 hr 31 min 11 sec) 
Heartbeat CPU 1 instructions: 1560000000 cycles: 1243730672 heartbeat IPC: 1.51219 cumulative IPC: 1.14419 (Simulation time: 4 hr 31 min 21 sec) 
Heartbeat CPU 3 instructions: 1120000000 cycles: 1248449329 heartbeat IPC: 1.20655 cumulative IPC: 0.846209 (Simulation time: 4 hr 32 min 29 sec) 
Heartbeat CPU 1 instructions: 1570000002 cycles: 1250340802 heartbeat IPC: 1.51283 cumulative IPC: 1.14643 (Simulation time: 4 hr 32 min 55 sec) 
Heartbeat CPU 2 instructions: 1720000000 cycles: 1252357873 heartbeat IPC: 1.06914 cumulative IPC: 1.22305 (Simulation time: 4 hr 33 min 25 sec) 
Heartbeat CPU 0 instructions: 740000000 cycles: 1253263380 heartbeat IPC: 0.428787 cumulative IPC: 0.423752 (Simulation time: 4 hr 33 min 37 sec) 
Heartbeat CPU 1 instructions: 1580000000 cycles: 1256924988 heartbeat IPC: 1.51879 cumulative IPC: 1.14866 (Simulation time: 4 hr 34 min 24 sec) 
Heartbeat CPU 3 instructions: 1130000003 cycles: 1260303294 heartbeat IPC: 0.8436 cumulative IPC: 0.846181 (Simulation time: 4 hr 35 min 7 sec) 
Heartbeat CPU 2 instructions: 1730000002 cycles: 1261756706 heartbeat IPC: 1.06396 cumulative IPC: 1.22169 (Simulation time: 4 hr 35 min 26 sec) 
Heartbeat CPU 1 instructions: 1590000000 cycles: 1263361689 heartbeat IPC: 1.55359 cumulative IPC: 1.15103 (Simulation time: 4 hr 35 min 49 sec) 
Heartbeat CPU 1 instructions: 1600000000 cycles: 1269775064 heartbeat IPC: 1.55924 cumulative IPC: 1.15339 (Simulation time: 4 hr 37 min 12 sec) 
Heartbeat CPU 2 instructions: 1740000000 cycles: 1271167278 heartbeat IPC: 1.06263 cumulative IPC: 1.22034 (Simulation time: 4 hr 37 min 31 sec) 
Heartbeat CPU 0 instructions: 750000001 cycles: 1271469736 heartbeat IPC: 0.549259 cumulative IPC: 0.42581 (Simulation time: 4 hr 37 min 35 sec) 
Heartbeat CPU 1 instructions: 1610000000 cycles: 1276210376 heartbeat IPC: 1.55393 cumulative IPC: 1.1557 (Simulation time: 4 hr 38 min 37 sec) 
Heartbeat CPU 3 instructions: 1140000000 cycles: 1276405686 heartbeat IPC: 0.621026 cumulative IPC: 0.84293 (Simulation time: 4 hr 38 min 40 sec) 
Heartbeat CPU 2 instructions: 1750000002 cycles: 1280647015 heartbeat IPC: 1.05488 cumulative IPC: 1.21894 (Simulation time: 4 hr 39 min 33 sec) 
Heartbeat CPU 1 instructions: 1620000000 cycles: 1282668582 heartbeat IPC: 1.54842 cumulative IPC: 1.15796 (Simulation time: 4 hr 40 min 0 sec) 
Heartbeat CPU 1 instructions: 1630000000 cycles: 1289101874 heartbeat IPC: 1.55441 cumulative IPC: 1.16023 (Simulation time: 4 hr 41 min 20 sec) 
Heartbeat CPU 2 instructions: 1760000000 cycles: 1290091353 heartbeat IPC: 1.05884 cumulative IPC: 1.2176 (Simulation time: 4 hr 41 min 33 sec) 
Heartbeat CPU 0 instructions: 760000000 cycles: 1291873471 heartbeat IPC: 0.490106 cumulative IPC: 0.42697 (Simulation time: 4 hr 41 min 56 sec) 
Heartbeat CPU 3 instructions: 1150000002 cycles: 1292505072 heartbeat IPC: 0.621142 cumulative IPC: 0.839773 (Simulation time: 4 hr 42 min 4 sec) 
Heartbeat CPU 1 instructions: 1640000000 cycles: 1295521667 heartbeat IPC: 1.55768 cumulative IPC: 1.16248 (Simulation time: 4 hr 42 min 44 sec) 
Heartbeat CPU 2 instructions: 1770000002 cycles: 1299648553 heartbeat IPC: 1.04633 cumulative IPC: 1.21617 (Simulation time: 4 hr 43 min 37 sec) 
Heartbeat CPU 1 instructions: 1650000000 cycles: 1301929861 heartbeat IPC: 1.5605 cumulative IPC: 1.16471 (Simulation time: 4 hr 44 min 7 sec) 
Heartbeat CPU 1 instructions: 1660000000 cycles: 1308472445 heartbeat IPC: 1.52845 cumulative IPC: 1.16679 (Simulation time: 4 hr 45 min 26 sec) 
Heartbeat CPU 3 instructions: 1160000000 cycles: 1308571138 heartbeat IPC: 0.62243 cumulative IPC: 0.83673 (Simulation time: 4 hr 45 min 27 sec) 
Heartbeat CPU 2 instructions: 1780000000 cycles: 1309121802 heartbeat IPC: 1.0556 cumulative IPC: 1.21484 (Simulation time: 4 hr 45 min 33 sec) 
Heartbeat CPU 0 instructions: 770000000 cycles: 1315304577 heartbeat IPC: 0.426783 cumulative IPC: 0.426966 (Simulation time: 4 hr 46 min 40 sec) 
Heartbeat CPU 1 instructions: 1670000000 cycles: 1317960326 heartbeat IPC: 1.05398 cumulative IPC: 1.16586 (Simulation time: 4 hr 47 min 12 sec) 
Heartbeat CPU 2 instructions: 1790000002 cycles: 1318707019 heartbeat IPC: 1.04327 cumulative IPC: 1.21342 (Simulation time: 4 hr 47 min 21 sec) 
Heartbeat CPU 3 instructions: 1170000002 cycles: 1324708624 heartbeat IPC: 0.619675 cumulative IPC: 0.833719 (Simulation time: 4 hr 48 min 35 sec) 
Heartbeat CPU 1 instructions: 1680000000 cycles: 1325522300 heartbeat IPC: 1.32241 cumulative IPC: 1.16688 (Simulation time: 4 hr 48 min 44 sec) 
Heartbeat CPU 2 instructions: 1800000000 cycles: 1328199094 heartbeat IPC: 1.05351 cumulative IPC: 1.21212 (Simulation time: 4 hr 49 min 15 sec) 
[...]
Heartbeat CPU 1 instructions: 2740000000 cycles: 2345844889 heartbeat IPC: 0.915009 cumulative IPC: 1.1071 (Simulation time: 8 hr 2 min 35 sec) 
Heartbeat CPU 2 instructions: 3090000000 cycles: 2351814369 heartbeat IPC: 1.28563 cumulative IPC: 1.2346 (Simulation time: 8 hr 3 min 41 sec) 
Heartbeat CPU 3 instructions: 1850000001 cycles: 2354832029 heartbeat IPC: 0.715341 cumulative IPC: 0.752193 (Simulation time: 8 hr 4 min 12 sec) 
Heartbeat CPU 1 instructions: 2750000000 cycles: 2357448291 heartbeat IPC: 0.861816 cumulative IPC: 1.1058 (Simulation time: 8 hr 4 min 43 sec) 
Heartbeat CPU 2 instructions: 3100000000 cycles: 2359689640 heartbeat IPC: 1.2698 cumulative IPC: 1.23473 (Simulation time: 8 hr 5 min 6 sec) 
Heartbeat CPU 0 instructions: 1240000000 cycles: 2365810194 heartbeat IPC: 0.498555 cumulative IPC: 0.436705 (Simulation time: 8 hr 6 min 19 sec) 
Heartbeat CPU 2 instructions: 3110000002 cycles: 2367445247 heartbeat IPC: 1.28939 cumulative IPC: 1.23492 (Simulation time: 8 hr 6 min 36 sec) 
Heartbeat CPU 3 instructions: 1860000000 cycles: 2368759200 heartbeat IPC: 0.718021 cumulative IPC: 0.751978 (Simulation time: 8 hr 6 min 49 sec) 
Heartbeat CPU 1 instructions: 2760000000 cycles: 2369388534 heartbeat IPC: 0.837504 cumulative IPC: 1.10435 (Simulation time: 8 hr 6 min 56 sec) 
Heartbeat CPU 2 instructions: 3120000000 cycles: 2375349613 heartbeat IPC: 1.26512 cumulative IPC: 1.23503 (Simulation time: 8 hr 8 min 3 sec) 
Heartbeat CPU 1 instructions: 2770000001 cycles: 2380016766 heartbeat IPC: 0.94089 cumulative IPC: 1.10357 (Simulation time: 8 hr 8 min 52 sec) 
Heartbeat CPU 3 instructions: 1870000003 cycles: 2383031081 heartbeat IPC: 0.700679 cumulative IPC: 0.751648 (Simulation time: 8 hr 9 min 22 sec) 
Heartbeat CPU 2 instructions: 3130000000 cycles: 2383344779 heartbeat IPC: 1.25076 cumulative IPC: 1.23509 (Simulation time: 8 hr 9 min 26 sec) 
Heartbeat CPU 0 instructions: 1250000000 cycles: 2386434899 heartbeat IPC: 0.484855 cumulative IPC: 0.437151 (Simulation time: 8 hr 9 min 57 sec) 
Heartbeat CPU 1 instructions: 2780000000 cycles: 2391172762 heartbeat IPC: 0.896379 cumulative IPC: 1.10253 (Simulation time: 8 hr 10 min 46 sec) 
Heartbeat CPU 2 instructions: 3140000000 cycles: 2391524001 heartbeat IPC: 1.22261 cumulative IPC: 1.23504 (Simulation time: 8 hr 10 min 50 sec) 
Heartbeat CPU 2 instructions: 3150000002 cycles: 2399486655 heartbeat IPC: 1.25586 cumulative IPC: 1.23512 (Simulation time: 8 hr 12 min 7 sec) 
Heartbeat CPU 3 instructions: 1880000000 cycles: 2402343791 heartbeat IPC: 0.517794 cumulative IPC: 0.749633 (Simulation time: 8 hr 12 min 35 sec) 
Heartbeat CPU 1 instructions: 2790000003 cycles: 2403234960 heartbeat IPC: 0.829037 cumulative IPC: 1.10106 (Simulation time: 8 hr 12 min 44 sec) 
Heartbeat CPU 0 instructions: 1260000000 cycles: 2406970479 heartbeat IPC: 0.48696 cumulative IPC: 0.437607 (Simulation time: 8 hr 13 min 22 sec) 
Heartbeat CPU 2 instructions: 3160000000 cycles: 2407362587 heartbeat IPC: 1.26969 cumulative IPC: 1.23524 (Simulation time: 8 hr 13 min 25 sec) 
Heartbeat CPU 1 instructions: 2800000000 cycles: 2413730243 heartbeat IPC: 0.952809 cumulative IPC: 1.10037 (Simulation time: 8 hr 14 min 32 sec) 
Heartbeat CPU 2 instructions: 3170000002 cycles: 2415136574 heartbeat IPC: 1.28634 cumulative IPC: 1.23541 (Simulation time: 8 hr 14 min 45 sec) 
Heartbeat CPU 3 instructions: 1890000002 cycles: 2422198218 heartbeat IPC: 0.503666 cumulative IPC: 0.747473 (Simulation time: 8 hr 15 min 52 sec) 
Heartbeat CPU 2 instructions: 3180000000 cycles: 2422902387 heartbeat IPC: 1.28769 cumulative IPC: 1.23559 (Simulation time: 8 hr 16 min 0 sec) 
Heartbeat CPU 1 instructions: 2810000003 cycles: 2425476613 heartbeat IPC: 0.851327 cumulative IPC: 1.09908 (Simulation time: 8 hr 16 min 26 sec) 
Heartbeat CPU 0 instructions: 1270000002 cycles: 2427606305 heartbeat IPC: 0.484594 cumulative IPC: 0.438035 (Simulation time: 8 hr 16 min 53 sec) 
Heartbeat CPU 2 instructions: 3190000001 cycles: 2430866319 heartbeat IPC: 1.25566 cumulative IPC: 1.23566 (Simulation time: 8 hr 17 min 23 sec) 
Heartbeat CPU 3 instructions: 1900000000 cycles: 2436231565 heartbeat IPC: 0.712588 cumulative IPC: 0.747258 (Simulation time: 8 hr 18 min 21 sec) 
Heartbeat CPU 1 instructions: 2820000000 cycles: 2436820774 heartbeat IPC: 0.88151 cumulative IPC: 1.09799 (Simulation time: 8 hr 18 min 28 sec) 
Heartbeat CPU 2 instructions: 3200000000 cycles: 2438592384 heartbeat IPC: 1.29432 cumulative IPC: 1.23586 (Simulation time: 8 hr 18 min 51 sec) 
Finished CPU 0 instructions: 1000000002 cycles: 2279821115 cumulative IPC: 0.438631 (Simulation time: 8 hr 19 min 16 sec) 

CPU 0 Branch Prediction Accuracy: 97.3372% MPKI: 2.19174

CPU 1 Branch Prediction Accuracy: 93.6001% MPKI: 2.60265

CPU 2 Branch Prediction Accuracy: 95.9928% MPKI: 1.85466

CPU 3 Branch Prediction Accuracy: 99.0784% MPKI: 0.15833

ChampSim completed all CPUs

Total Simulation Statistics (not including warmup)

CPU 0 cumulative IPC: 0.438631 instructions: 1000000002 cycles: 2279821115
L1D TOTAL     ACCESS:  372910528  HIT:  342315812  MISS:   30594716
L1D LOAD      ACCESS:  132498070  HIT:  101909740  MISS:   30588330
L1D RFO       ACCESS:  240412458  HIT:  240406072  MISS:       6386
L1D PREFETCH  ACCESS:          0  HIT:          0  MISS:          0
L1D WRITEBACK ACCESS:          0  HIT:          0  MISS:          0
L1I TOTAL     ACCESS:  250554756  HIT:  250554756  MISS:          0
L1I LOAD      ACCESS:  250554756  HIT:  250554756  MISS:          0
L1I RFO       ACCESS:          0  HIT:          0  MISS:          0
L1I PREFETCH  ACCESS:          0  HIT:          0  MISS:          0
L1I WRITEBACK ACCESS:          0  HIT:          0  MISS:          0
L2C TOTAL     ACCESS:   64708613  HIT:   31720368  MISS:   32988245
L2C LOAD      ACCESS:   30585097  HIT:   14713493  MISS:   15871604
L2C RFO       ACCESS:       6386  HIT:       5613  MISS:        773
L2C PREFETCH  ACCESS:   20826437  HIT:    3736831  MISS:   17089606
L2C WRITEBACK ACCESS:   13290693  HIT:   13264431  MISS:      26262

Avg Lookahead Depth:	2.56798
TOTAL: 1.40294e+08	L2C: 1.05158e+08	LLC: 3.51361e+07	GOOD_L2C: 6.082e+07
Printing all the perceptron weights to: perc_weights_0.csv
LLC TOTAL     ACCESS:   50436907  HIT:   20930509  MISS:   29506398
LLC LOAD      ACCESS:   13977143  HIT:    1437886  MISS:   12539257
LLC RFO       ACCESS:        755  HIT:        523  MISS:        232
LLC PREFETCH  ACCESS:   23772951  HIT:    6808120  MISS:   16964831
LLC WRITEBACK ACCESS:   12686058  HIT:   12683980  MISS:       2078

CPU 1 cumulative IPC: 1.09781 instructions: 2502805320 cycles: 2279821115
L1D TOTAL     ACCESS:  682032943  HIT:  655174235  MISS:   26858708
L1D LOAD      ACCESS:  362472912  HIT:  336608814  MISS:   25864098
L1D RFO       ACCESS:  319560031  HIT:  318565421  MISS:     994610
L1D PREFETCH  ACCESS:          0  HIT:          0  MISS:          0
L1D WRITEBACK ACCESS:          0  HIT:          0  MISS:          0
L1I TOTAL     ACCESS:  594432463  HIT:  594426749  MISS:       5714
L1I LOAD      ACCESS:  594432463  HIT:  594426749  MISS:       5714
L1I RFO       ACCESS:          0  HIT:          0  MISS:          0
L1I PREFETCH  ACCESS:          0  HIT:          0  MISS:          0
L1I WRITEBACK ACCESS:          0  HIT:          0  MISS:          0
L2C TOTAL     ACCESS:   61912252  HIT:   56910482  MISS:    5001770
L2C LOAD      ACCESS:   25864526  HIT:   23618197  MISS:    2246329
L2C RFO       ACCESS:     994522  HIT:     543219  MISS:     451303
L2C PREFETCH  ACCESS:   28059756  HIT:   25760231  MISS:    2299525
L2C WRITEBACK ACCESS:    6993448  HIT:    6988835  MISS:       4613

Avg Lookahead Depth:	2.56798
TOTAL: 1.40294e+08	L2C: 1.05158e+08	LLC: 3.51361e+07	GOOD_L2C: 6.082e+07
Printing all the perceptron weights to: perc_weights_0.csv
LLC TOTAL     ACCESS:    8174248  HIT:    6188414  MISS:    1985834
LLC LOAD      ACCESS:    2205180  HIT:    1776207  MISS:     428973
LLC RFO       ACCESS:     451222  HIT:     156418  MISS:     294804
LLC PREFETCH  ACCESS:    3725971  HIT:    2571979  MISS:    1153992
LLC WRITEBACK ACCESS:    1791875  HIT:    1683810  MISS:     108065

CPU 2 cumulative IPC: 1.23588 instructions: 2817589010 cycles: 2279821115
L1D TOTAL     ACCESS:  596517867  HIT:  576444290  MISS:   20073577
L1D LOAD      ACCESS:  451339663  HIT:  432199036  MISS:   19140627
L1D RFO       ACCESS:  145178204  HIT:  144245254  MISS:     932950
L1D PREFETCH  ACCESS:          0  HIT:          0  MISS:          0
L1D WRITEBACK ACCESS:          0  HIT:          0  MISS:          0
L1I TOTAL     ACCESS:  685290111  HIT:  685289775  MISS:        336
L1I LOAD      ACCESS:  685290111  HIT:  685289775  MISS:        336
L1I RFO       ACCESS:          0  HIT:          0  MISS:          0
L1I PREFETCH  ACCESS:          0  HIT:          0  MISS:          0
L1I WRITEBACK ACCESS:          0  HIT:          0  MISS:          0
L2C TOTAL     ACCESS:   49963266  HIT:   49162144  MISS:     801122
L2C LOAD      ACCESS:   19139432  HIT:   18917968  MISS:     221464
L2C RFO       ACCESS:     932695  HIT:     773721  MISS:     158974
L2C PREFETCH  ACCESS:   25942110  HIT:   25521523  MISS:     420587
L2C WRITEBACK ACCESS:    3949029  HIT:    3948932  MISS:         97

Avg Lookahead Depth:	2.56798
TOTAL: 1.40294e+08	L2C: 1.05158e+08	LLC: 3.51361e+07	GOOD_L2C: 6.082e+07
Printing all the perceptron weights to: perc_weights_0.csv
LLC TOTAL     ACCESS:    1226844  HIT:     355371  MISS:     871473
LLC LOAD      ACCESS:     135043  HIT:      30102  MISS:     104941
LLC RFO       ACCESS:     158973  HIT:      15497  MISS:     143476
LLC PREFETCH  ACCESS:     692233  HIT:     139602  MISS:     552631
LLC WRITEBACK ACCESS:     240595  HIT:     170170  MISS:      70425

CPU 3 cumulative IPC: 0.747264 instructions: 1703628135 cycles: 2279821115
L1D TOTAL     ACCESS:  852734030  HIT:  831141040  MISS:   21592990
L1D LOAD      ACCESS:  738992101  HIT:  717671803  MISS:   21320298
L1D RFO       ACCESS:  113741929  HIT:  113469237  MISS:     272692
L1D PREFETCH  ACCESS:          0  HIT:          0  MISS:          0
L1D WRITEBACK ACCESS:          0  HIT:          0  MISS:          0
L1I TOTAL     ACCESS:  455486835  HIT:  455485509  MISS:       1326
L1I LOAD      ACCESS:  455486835  HIT:  455485509  MISS:       1326
L1I RFO       ACCESS:          0  HIT:          0  MISS:          0
L1I PREFETCH  ACCESS:          0  HIT:          0  MISS:          0
L1I WRITEBACK ACCESS:          0  HIT:          0  MISS:          0
L2C TOTAL     ACCESS:   58127015  HIT:   36507420  MISS:   21619595
L2C LOAD      ACCESS:   21320049  HIT:   19397646  MISS:    1922403
L2C RFO       ACCESS:     272495  HIT:       9740  MISS:     262755
L2C PREFETCH  ACCESS:   27320176  HIT:    7886778  MISS:   19433398
L2C WRITEBACK ACCESS:    9214295  HIT:    9213256  MISS:       1039

Avg Lookahead Depth:	2.56798
TOTAL: 1.40294e+08	L2C: 1.05158e+08	LLC: 3.51361e+07	GOOD_L2C: 6.082e+07
Printing all the perceptron weights to: perc_weights_0.csv
LLC TOTAL     ACCESS:   32672792  HIT:   14339301  MISS:   18333491
LLC LOAD      ACCESS:    1766704  HIT:     287058  MISS:    1479646
LLC RFO       ACCESS:     262750  HIT:     199234  MISS:      63516
LLC PREFETCH  ACCESS:   21491669  HIT:    4715265  MISS:   16776404
LLC WRITEBACK ACCESS:    9151669  HIT:    9137744  MISS:      13925

Region of Interest Statistics

CPU 0 cumulative IPC: 0.438631 instructions: 1000000002 cycles: 2279821115
L1D TOTAL     ACCESS:  372910528  HIT:  342315812  MISS:   30594716
L1D LOAD      ACCESS:  132498070  HIT:  101909740  MISS:   30588330
L1D RFO       ACCESS:  240412458  HIT:  240406072  MISS:       6386
L1D PREFETCH  ACCESS:          0  HIT:          0  MISS:          0
L1D WRITEBACK ACCESS:          0  HIT:          0  MISS:          0
L1D PREFETCH  REQUESTED:          0  ISSUED:          0  USEFUL:          0  USELESS:          0
L1I TOTAL     ACCESS:  250554756  HIT:  250554756  MISS:          0
L1I LOAD      ACCESS:  250554756  HIT:  250554756  MISS:          0
L1I RFO       ACCESS:          0  HIT:          0  MISS:          0
L1I PREFETCH  ACCESS:          0  HIT:          0  MISS:          0
L1I WRITEBACK ACCESS:          0  HIT:          0  MISS:          0
L1I PREFETCH  REQUESTED:          0  ISSUED:          0  USEFUL:          0  USELESS:          0
L2C TOTAL     ACCESS:   64708613  HIT:   31720368  MISS:   32988245
L2C LOAD      ACCESS:   30585097  HIT:   14713493  MISS:   15871604
L2C RFO       ACCESS:       6386  HIT:       5613  MISS:        773
L2C PREFETCH  ACCESS:   20826437  HIT:    3736831  MISS:   17089606
L2C WRITEBACK ACCESS:   13290693  HIT:   13264431  MISS:      26262
L2C PREFETCH  REQUESTED:   43239153  ISSUED:   43239153  USEFUL:   19202583  USELESS:    4148228
LLC TOTAL     ACCESS:   50436907  HIT:   20930509  MISS:   29506398
LLC LOAD      ACCESS:   13977143  HIT:    1437886  MISS:   12539257
LLC RFO       ACCESS:        755  HIT:        523  MISS:        232
LLC PREFETCH  ACCESS:   23772951  HIT:    6808120  MISS:   16964831
LLC WRITEBACK ACCESS:   12686058  HIT:   12683980  MISS:       2078
LLC PREFETCH  REQUESTED:          0  ISSUED:          0  USEFUL:    1479903  USELESS:   41630316
Major fault: 0 Minor fault: 394526

CPU 1 cumulative IPC: 1.09056 instructions: 1000000000 cycles: 916964058
L1D TOTAL     ACCESS:  273445788  HIT:  262483009  MISS:   10962779
L1D LOAD      ACCESS:  144434832  HIT:  133861867  MISS:   10572965
L1D RFO       ACCESS:  129010956  HIT:  128621142  MISS:     389814
L1D PREFETCH  ACCESS:          0  HIT:          0  MISS:          0
L1D WRITEBACK ACCESS:          0  HIT:          0  MISS:          0
L1D PREFETCH  REQUESTED:          0  ISSUED:          0  USEFUL:          0  USELESS:          0
L1I TOTAL     ACCESS:  236315957  HIT:  236314108  MISS:       1849
L1I LOAD      ACCESS:  236315957  HIT:  236314108  MISS:       1849
L1I RFO       ACCESS:          0  HIT:          0  MISS:          0
L1I PREFETCH  ACCESS:          0  HIT:          0  MISS:          0
L1I WRITEBACK ACCESS:          0  HIT:          0  MISS:          0
L1I PREFETCH  REQUESTED:          0  ISSUED:          0  USEFUL:          0  USELESS:          0
L2C TOTAL     ACCESS:   25458540  HIT:   23503057  MISS:    1955483
L2C LOAD      ACCESS:   10573430  HIT:    9652937  MISS:     920493
L2C RFO       ACCESS:     389777  HIT:     232641  MISS:     157136
L2C PREFETCH  ACCESS:   11706905  HIT:   10830963  MISS:     875942
L2C WRITEBACK ACCESS:    2788428  HIT:    2786516  MISS:       1912
L2C PREFETCH  REQUESTED:   34521371  ISSUED:   34521291  USEFUL:    2223077  USELESS:     459468
LLC TOTAL     ACCESS:    3178608  HIT:    2420498  MISS:     758110
LLC LOAD      ACCESS:     904030  HIT:     724579  MISS:     179451
LLC RFO       ACCESS:     157104  HIT:      59804  MISS:      97300
LLC PREFETCH  ACCESS:    1421182  HIT:     983601  MISS:     437581
LLC WRITEBACK ACCESS:     696292  HIT:     652514  MISS:      43778
LLC PREFETCH  REQUESTED:          0  ISSUED:          0  USEFUL:    1479903  USELESS:   41630316
Major fault: 0 Minor fault: 2405

CPU 2 cumulative IPC: 1.28494 instructions: 1000000000 cycles: 778243969
L1D TOTAL     ACCESS:  209238510  HIT:  202773651  MISS:    6464859
L1D LOAD      ACCESS:  159837647  HIT:  153621939  MISS:    6215708
L1D RFO       ACCESS:   49400863  HIT:   49151712  MISS:     249151
L1D PREFETCH  ACCESS:          0  HIT:          0  MISS:          0
L1D WRITEBACK ACCESS:          0  HIT:          0  MISS:          0
L1D PREFETCH  REQUESTED:          0  ISSUED:          0  USEFUL:          0  USELESS:          0
L1I TOTAL     ACCESS:  237798155  HIT:  237798155  MISS:          0
L1I LOAD      ACCESS:  237798155  HIT:  237798155  MISS:          0
L1I RFO       ACCESS:          0  HIT:          0  MISS:          0
L1I PREFETCH  ACCESS:          0  HIT:          0  MISS:          0
L1I WRITEBACK ACCESS:          0  HIT:          0  MISS:          0
L1I PREFETCH  REQUESTED:          0  ISSUED:          0  USEFUL:          0  USELESS:          0
L2C TOTAL     ACCESS:   15862618  HIT:   15684830  MISS:     177788
L2C LOAD      ACCESS:    6215076  HIT:    6136093  MISS:      78983
L2C RFO       ACCESS:     249071  HIT:     248510  MISS:        561
L2C PREFETCH  ACCESS:    8203539  HIT:    8105330  MISS:      98209
L2C WRITEBACK ACCESS:    1194932  HIT:    1194897  MISS:         35
L2C PREFETCH  REQUESTED:   29597806  ISSUED:   29597806  USEFUL:     373033  USELESS:     108458
LLC TOTAL     ACCESS:     280690  HIT:      73976  MISS:     206714
LLC LOAD      ACCESS:      49357  HIT:      12140  MISS:      37217
LLC RFO       ACCESS:        561  HIT:        416  MISS:        145
LLC PREFETCH  ACCESS:     197714  HIT:      54927  MISS:     142787
LLC WRITEBACK ACCESS:      33058  HIT:       6493  MISS:      26565
LLC PREFETCH  REQUESTED:          0  ISSUED:          0  USEFUL:    1479903  USELESS:   41630316
Major fault: 0 Minor fault: 3883

CPU 3 cumulative IPC: 0.82508 instructions: 1000000001 cycles: 1212004414
L1D TOTAL     ACCESS:  455953134  HIT:  441179980  MISS:   14773154
L1D LOAD      ACCESS:  387453082  HIT:  372846049  MISS:   14607033
L1D RFO       ACCESS:   68500052  HIT:   68333931  MISS:     166121
L1D PREFETCH  ACCESS:          0  HIT:          0  MISS:          0
L1D WRITEBACK ACCESS:          0  HIT:          0  MISS:          0
L1D PREFETCH  REQUESTED:          0  ISSUED:          0  USEFUL:          0  USELESS:          0
L1I TOTAL     ACCESS:  256772050  HIT:  256771356  MISS:        694
L1I LOAD      ACCESS:  256772050  HIT:  256771356  MISS:        694
L1I RFO       ACCESS:          0  HIT:          0  MISS:          0
L1I PREFETCH  ACCESS:          0  HIT:          0  MISS:          0
L1I WRITEBACK ACCESS:          0  HIT:          0  MISS:          0
L1I PREFETCH  REQUESTED:          0  ISSUED:          0  USEFUL:          0  USELESS:          0
L2C TOTAL     ACCESS:   39660991  HIT:   24652751  MISS:   15008240
L2C LOAD      ACCESS:   14606955  HIT:   13703734  MISS:     903221
L2C RFO       ACCESS:     166016  HIT:       6013  MISS:     160003
L2C PREFETCH  ACCESS:   18876058  HIT:    4931810  MISS:   13944248
L2C WRITEBACK ACCESS:    6011962  HIT:    6011194  MISS:        768
L2C PREFETCH  REQUESTED:   32935665  ISSUED:   32934593  USEFUL:   18839716  USELESS:    2419024
LLC TOTAL     ACCESS:   21779202  HIT:    9653750  MISS:   12125452
LLC LOAD      ACCESS:     789406  HIT:     129780  MISS:     659626
LLC RFO       ACCESS:     160002  HIT:     121433  MISS:      38569
LLC PREFETCH  ACCESS:   14855409  HIT:    3441158  MISS:   11414251
LLC WRITEBACK ACCESS:    5974385  HIT:    5961379  MISS:      13006
LLC PREFETCH  REQUESTED:          0  ISSUED:          0  USEFUL:    1479903  USELESS:   41630316
Major fault: 0 Minor fault: 194140

Avg Lookahead Depth:	2.56798
TOTAL: 1.40294e+08	L2C: 1.05158e+08	LLC: 3.51361e+07	GOOD_L2C: 6.082e+07
Printing all the perceptron weights to: perc_weights_0.csv

Avg Lookahead Depth:	2.56798
TOTAL: 1.40294e+08	L2C: 1.05158e+08	LLC: 3.51361e+07	GOOD_L2C: 6.082e+07
Printing all the perceptron weights to: perc_weights_0.csv

Avg Lookahead Depth:	2.56798
TOTAL: 1.40294e+08	L2C: 1.05158e+08	LLC: 3.51361e+07	GOOD_L2C: 6.082e+07
Printing all the perceptron weights to: perc_weights_0.csv

Avg Lookahead Depth:	2.56798
TOTAL: 1.40294e+08	L2C: 1.05158e+08	LLC: 3.51361e+07	GOOD_L2C: 6.082e+07
Printing all the perceptron weights to: perc_weights_0.csv

DRAM Statistics
 CHANNEL 0
 RQ ROW_BUFFER_HIT:    7604581  ROW_BUFFER_MISS:   18839531
 DBUS_CONGESTED:   42838342
 WQ ROW_BUFFER_HIT:    1115329  ROW_BUFFER_MISS:    9965427  FULL:          0

 CHANNEL 1
 RQ ROW_BUFFER_HIT:    6886234  ROW_BUFFER_MISS:   17170878
 DBUS_CONGESTED:   42838342
 WQ ROW_BUFFER_HIT:    1153833  ROW_BUFFER_MISS:    9837351  FULL:          0

 AVG_CONGESTED_CYCLE: 13
