Initialize SIGNATURE TABLE
ST_SET: 1
ST_WAY: 256
ST_TAG_BIT: 16
ST_TAG_MASK: ffff

Initialize PATTERN TABLE
PT_SET: 512
PT_WAY: 4
SIG_DELTA_BIT: 7
C_SIG_BIT: 4
C_DELTA_BIT: 4

Initialize PREFETCH FILTER
FILTER_SET: 1024

Initialize PERCEPTRON
PERC_ENTRIES: 4096
PERC_FEATURES: 9

*** ChampSim Multicore Out-of-Order Simulator ***

Warmup Instructions: 200000000
Simulation Instructions: 1000000000
Number of CPUs: 4
LLC sets: 8192
LLC ways: 16
Off-chip DRAM Size: 8192 MB Channels: 2 Width: 64-bit Data Rate: 1600 MT/s

CPU 0 runs /scratch/user/djimenez/champsim-traces/speccpu2006/xz//435.gromacs-226B.champsimtrace.xz
CPU 1 runs /scratch/user/djimenez/champsim-traces/speccpu2006/xz//445.gobmk-30B.champsimtrace.xz
CPU 2 runs /scratch/user/djimenez/champsim-traces/speccpu2006/xz//410.bwaves-2097B.champsimtrace.xz
CPU 3 runs /scratch/user/djimenez/champsim-traces/speccpu2006/xz//453.povray-887B.champsimtrace.xz
Heartbeat CPU 0 instructions: 10000000 cycles: 4753936 heartbeat IPC: 2.10352 cumulative IPC: 2.10352 (Simulation time: 0 hr 1 min 25 sec) 
Heartbeat CPU 1 instructions: 10000003 cycles: 6364774 heartbeat IPC: 1.57115 cumulative IPC: 1.57115 (Simulation time: 0 hr 1 min 53 sec) 
Heartbeat CPU 2 instructions: 10000000 cycles: 6590490 heartbeat IPC: 1.51734 cumulative IPC: 1.51734 (Simulation time: 0 hr 1 min 57 sec) 
Heartbeat CPU 3 instructions: 10000002 cycles: 6626402 heartbeat IPC: 1.50911 cumulative IPC: 1.50911 (Simulation time: 0 hr 1 min 58 sec) 
Heartbeat CPU 0 instructions: 20000000 cycles: 9511109 heartbeat IPC: 2.10209 cumulative IPC: 2.1028 (Simulation time: 0 hr 2 min 50 sec) 
Heartbeat CPU 1 instructions: 20000000 cycles: 12697550 heartbeat IPC: 1.57909 cumulative IPC: 1.57511 (Simulation time: 0 hr 3 min 46 sec) 
Heartbeat CPU 2 instructions: 20000000 cycles: 13181405 heartbeat IPC: 1.51724 cumulative IPC: 1.51729 (Simulation time: 0 hr 3 min 55 sec) 
Heartbeat CPU 3 instructions: 20000000 cycles: 13241896 heartbeat IPC: 1.5116 cumulative IPC: 1.51036 (Simulation time: 0 hr 3 min 56 sec) 
Heartbeat CPU 0 instructions: 30000000 cycles: 14268713 heartbeat IPC: 2.1019 cumulative IPC: 2.1025 (Simulation time: 0 hr 4 min 14 sec) 
Heartbeat CPU 1 instructions: 30000002 cycles: 19013235 heartbeat IPC: 1.58336 cumulative IPC: 1.57785 (Simulation time: 0 hr 5 min 38 sec) 
Heartbeat CPU 0 instructions: 40000000 cycles: 19202139 heartbeat IPC: 2.02699 cumulative IPC: 2.0831 (Simulation time: 0 hr 5 min 41 sec) 
Heartbeat CPU 2 instructions: 30000002 cycles: 19771280 heartbeat IPC: 1.51748 cumulative IPC: 1.51735 (Simulation time: 0 hr 5 min 51 sec) 
Heartbeat CPU 3 instructions: 30000000 cycles: 19866560 heartbeat IPC: 1.50951 cumulative IPC: 1.51008 (Simulation time: 0 hr 5 min 53 sec) 
Heartbeat CPU 0 instructions: 50000000 cycles: 23505311 heartbeat IPC: 2.32387 cumulative IPC: 2.12718 (Simulation time: 0 hr 6 min 58 sec) 
Heartbeat CPU 1 instructions: 40000000 cycles: 25319487 heartbeat IPC: 1.58573 cumulative IPC: 1.57981 (Simulation time: 0 hr 7 min 31 sec) 
Heartbeat CPU 2 instructions: 40000000 cycles: 26361660 heartbeat IPC: 1.51736 cumulative IPC: 1.51736 (Simulation time: 0 hr 7 min 50 sec) 
Heartbeat CPU 3 instructions: 40000000 cycles: 26495213 heartbeat IPC: 1.5086 cumulative IPC: 1.50971 (Simulation time: 0 hr 7 min 52 sec) 
Heartbeat CPU 0 instructions: 60000000 cycles: 27866855 heartbeat IPC: 2.29277 cumulative IPC: 2.1531 (Simulation time: 0 hr 8 min 17 sec) 
Heartbeat CPU 1 instructions: 50000001 cycles: 31844988 heartbeat IPC: 1.53245 cumulative IPC: 1.57011 (Simulation time: 0 hr 9 min 27 sec) 
Heartbeat CPU 0 instructions: 70000001 cycles: 32649159 heartbeat IPC: 2.09104 cumulative IPC: 2.14401 (Simulation time: 0 hr 9 min 40 sec) 
Heartbeat CPU 2 instructions: 50000002 cycles: 32952800 heartbeat IPC: 1.51719 cumulative IPC: 1.51732 (Simulation time: 0 hr 9 min 45 sec) 
Heartbeat CPU 3 instructions: 50000003 cycles: 33118115 heartbeat IPC: 1.50991 cumulative IPC: 1.50975 (Simulation time: 0 hr 9 min 47 sec) 
Heartbeat CPU 0 instructions: 80000000 cycles: 38101346 heartbeat IPC: 1.83413 cumulative IPC: 2.09966 (Simulation time: 0 hr 11 min 6 sec) 
Heartbeat CPU 1 instructions: 60000000 cycles: 38224391 heartbeat IPC: 1.56754 cumulative IPC: 1.56968 (Simulation time: 0 hr 11 min 8 sec) 
Heartbeat CPU 2 instructions: 60000000 cycles: 39542589 heartbeat IPC: 1.5175 cumulative IPC: 1.51735 (Simulation time: 0 hr 11 min 28 sec) 
Heartbeat CPU 3 instructions: 60000000 cycles: 39741069 heartbeat IPC: 1.5099 cumulative IPC: 1.50977 (Simulation time: 0 hr 11 min 32 sec) 
Heartbeat CPU 0 instructions: 90000002 cycles: 43171952 heartbeat IPC: 1.97215 cumulative IPC: 2.08469 (Simulation time: 0 hr 12 min 29 sec) 
Heartbeat CPU 1 instructions: 70000001 cycles: 44729989 heartbeat IPC: 1.53714 cumulative IPC: 1.56495 (Simulation time: 0 hr 12 min 53 sec) 
Heartbeat CPU 2 instructions: 70000003 cycles: 46133222 heartbeat IPC: 1.51731 cumulative IPC: 1.51734 (Simulation time: 0 hr 13 min 17 sec) 
Heartbeat CPU 3 instructions: 70000000 cycles: 46361277 heartbeat IPC: 1.51053 cumulative IPC: 1.50988 (Simulation time: 0 hr 13 min 20 sec) 
Heartbeat CPU 0 instructions: 100000000 cycles: 48225417 heartbeat IPC: 1.97884 cumulative IPC: 2.0736 (Simulation time: 0 hr 13 min 53 sec) 
Heartbeat CPU 1 instructions: 80000000 cycles: 51132891 heartbeat IPC: 1.56179 cumulative IPC: 1.56455 (Simulation time: 0 hr 14 min 42 sec) 
Heartbeat CPU 2 instructions: 80000000 cycles: 52723894 heartbeat IPC: 1.5173 cumulative IPC: 1.51734 (Simulation time: 0 hr 15 min 8 sec) 
Heartbeat CPU 3 instructions: 80000000 cycles: 52980498 heartbeat IPC: 1.51075 cumulative IPC: 1.50999 (Simulation time: 0 hr 15 min 12 sec) 
Heartbeat CPU 0 instructions: 110000000 cycles: 53277682 heartbeat IPC: 1.97931 cumulative IPC: 2.06465 (Simulation time: 0 hr 15 min 17 sec) 
Heartbeat CPU 1 instructions: 90000003 cycles: 57630799 heartbeat IPC: 1.53896 cumulative IPC: 1.56167 (Simulation time: 0 hr 16 min 27 sec) 
Heartbeat CPU 0 instructions: 120000000 cycles: 58634947 heartbeat IPC: 1.86662 cumulative IPC: 2.04656 (Simulation time: 0 hr 16 min 43 sec) 
Heartbeat CPU 2 instructions: 90000000 cycles: 59313730 heartbeat IPC: 1.51749 cumulative IPC: 1.51736 (Simulation time: 0 hr 16 min 53 sec) 
Heartbeat CPU 3 instructions: 90000000 cycles: 59633084 heartbeat IPC: 1.50317 cumulative IPC: 1.50923 (Simulation time: 0 hr 16 min 58 sec) 
Heartbeat CPU 0 instructions: 130000002 cycles: 63710368 heartbeat IPC: 1.97028 cumulative IPC: 2.04048 (Simulation time: 0 hr 18 min 4 sec) 
Heartbeat CPU 1 instructions: 100000000 cycles: 64122839 heartbeat IPC: 1.54035 cumulative IPC: 1.55951 (Simulation time: 0 hr 18 min 11 sec) 
Heartbeat CPU 2 instructions: 100000000 cycles: 65904913 heartbeat IPC: 1.51718 cumulative IPC: 1.51734 (Simulation time: 0 hr 18 min 38 sec) 
Heartbeat CPU 3 instructions: 100000000 cycles: 66316945 heartbeat IPC: 1.49614 cumulative IPC: 1.50791 (Simulation time: 0 hr 18 min 46 sec) 
Heartbeat CPU 0 instructions: 140000000 cycles: 68617905 heartbeat IPC: 2.03768 cumulative IPC: 2.04028 (Simulation time: 0 hr 19 min 25 sec) 
Heartbeat CPU 1 instructions: 110000002 cycles: 70655386 heartbeat IPC: 1.5308 cumulative IPC: 1.55685 (Simulation time: 0 hr 19 min 57 sec) 
Heartbeat CPU 3 instructions: 110000000 cycles: 71750793 heartbeat IPC: 1.84032 cumulative IPC: 1.53308 (Simulation time: 0 hr 20 min 15 sec) 
Heartbeat CPU 2 instructions: 110000001 cycles: 72495083 heartbeat IPC: 1.51741 cumulative IPC: 1.51734 (Simulation time: 0 hr 20 min 26 sec) 
Heartbeat CPU 0 instructions: 150000003 cycles: 74041440 heartbeat IPC: 1.84382 cumulative IPC: 2.02589 (Simulation time: 0 hr 20 min 50 sec) 
Heartbeat CPU 1 instructions: 120000000 cycles: 77292244 heartbeat IPC: 1.50674 cumulative IPC: 1.55255 (Simulation time: 0 hr 21 min 44 sec) 
Heartbeat CPU 3 instructions: 120000000 cycles: 77833836 heartbeat IPC: 1.64391 cumulative IPC: 1.54175 (Simulation time: 0 hr 21 min 52 sec) 
Heartbeat CPU 0 instructions: 160000000 cycles: 79038720 heartbeat IPC: 2.00109 cumulative IPC: 2.02432 (Simulation time: 0 hr 22 min 11 sec) 
Heartbeat CPU 2 instructions: 120000000 cycles: 79085531 heartbeat IPC: 1.51735 cumulative IPC: 1.51734 (Simulation time: 0 hr 22 min 12 sec) 
Heartbeat CPU 1 instructions: 130000001 cycles: 83869609 heartbeat IPC: 1.52037 cumulative IPC: 1.55003 (Simulation time: 0 hr 23 min 32 sec) 
Heartbeat CPU 0 instructions: 170000001 cycles: 84052663 heartbeat IPC: 1.99444 cumulative IPC: 2.02254 (Simulation time: 0 hr 23 min 35 sec) 
Heartbeat CPU 3 instructions: 130000003 cycles: 84525114 heartbeat IPC: 1.49448 cumulative IPC: 1.538 (Simulation time: 0 hr 23 min 42 sec) 
Heartbeat CPU 2 instructions: 130000000 cycles: 85676202 heartbeat IPC: 1.5173 cumulative IPC: 1.51734 (Simulation time: 0 hr 24 min 0 sec) 
Heartbeat CPU 0 instructions: 180000000 cycles: 89228479 heartbeat IPC: 1.93206 cumulative IPC: 2.01729 (Simulation time: 0 hr 25 min 0 sec) 
Heartbeat CPU 1 instructions: 140000000 cycles: 90444381 heartbeat IPC: 1.52097 cumulative IPC: 1.54791 (Simulation time: 0 hr 25 min 22 sec) 
Heartbeat CPU 3 instructions: 140000000 cycles: 91214053 heartbeat IPC: 1.49501 cumulative IPC: 1.53485 (Simulation time: 0 hr 25 min 34 sec) 
Heartbeat CPU 2 instructions: 140000000 cycles: 92266512 heartbeat IPC: 1.51738 cumulative IPC: 1.51734 (Simulation time: 0 hr 25 min 51 sec) 
Heartbeat CPU 0 instructions: 190000002 cycles: 94244587 heartbeat IPC: 1.99358 cumulative IPC: 2.01603 (Simulation time: 0 hr 26 min 27 sec) 
Heartbeat CPU 1 instructions: 150000003 cycles: 96580146 heartbeat IPC: 1.62979 cumulative IPC: 1.55311 (Simulation time: 0 hr 27 min 14 sec) 
Heartbeat CPU 3 instructions: 150000001 cycles: 97907360 heartbeat IPC: 1.49403 cumulative IPC: 1.53206 (Simulation time: 0 hr 27 min 42 sec) 
Heartbeat CPU 2 instructions: 150000001 cycles: 98856736 heartbeat IPC: 1.5174 cumulative IPC: 1.51735 (Simulation time: 0 hr 28 min 0 sec) 
Heartbeat CPU 0 instructions: 200000000 cycles: 99390601 heartbeat IPC: 1.94325 cumulative IPC: 2.01226 (Simulation time: 0 hr 28 min 11 sec) 
Heartbeat CPU 1 instructions: 160000000 cycles: 100966888 heartbeat IPC: 2.2796 cumulative IPC: 1.58468 (Simulation time: 0 hr 28 min 45 sec) 
Heartbeat CPU 3 instructions: 160000000 cycles: 103733567 heartbeat IPC: 1.71638 cumulative IPC: 1.54241 (Simulation time: 0 hr 29 min 39 sec) 
Heartbeat CPU 0 instructions: 210000000 cycles: 104421812 heartbeat IPC: 1.98759 cumulative IPC: 0.0957654 (Simulation time: 0 hr 29 min 50 sec) 
Heartbeat CPU 2 instructions: 160000000 cycles: 105447735 heartbeat IPC: 1.51722 cumulative IPC: 1.51734 (Simulation time: 0 hr 30 min 5 sec) 
Heartbeat CPU 1 instructions: 170000003 cycles: 106713792 heartbeat IPC: 1.74007 cumulative IPC: 1.59305 (Simulation time: 0 hr 30 min 28 sec) 
Heartbeat CPU 0 instructions: 220000000 cycles: 109550182 heartbeat IPC: 1.94994 cumulative IPC: 0.182565 (Simulation time: 0 hr 31 min 15 sec) 
Heartbeat CPU 3 instructions: 170000001 cycles: 110157974 heartbeat IPC: 1.55656 cumulative IPC: 1.54324 (Simulation time: 0 hr 31 min 26 sec) 
Heartbeat CPU 2 instructions: 170000000 cycles: 112037458 heartbeat IPC: 1.51751 cumulative IPC: 1.51735 (Simulation time: 0 hr 31 min 55 sec) 
Heartbeat CPU 1 instructions: 180000000 cycles: 113310880 heartbeat IPC: 1.51582 cumulative IPC: 1.58855 (Simulation time: 0 hr 32 min 18 sec) 
Heartbeat CPU 0 instructions: 230000002 cycles: 114671330 heartbeat IPC: 1.95269 cumulative IPC: 0.261617 (Simulation time: 0 hr 32 min 40 sec) 
Heartbeat CPU 3 instructions: 180000000 cycles: 116850787 heartbeat IPC: 1.49414 cumulative IPC: 1.54043 (Simulation time: 0 hr 33 min 17 sec) 
Heartbeat CPU 2 instructions: 180000000 cycles: 118627990 heartbeat IPC: 1.51733 cumulative IPC: 1.51735 (Simulation time: 0 hr 33 min 46 sec) 
Heartbeat CPU 1 instructions: 190000000 cycles: 119689153 heartbeat IPC: 1.56782 cumulative IPC: 1.58745 (Simulation time: 0 hr 34 min 5 sec) 
Heartbeat CPU 0 instructions: 240000000 cycles: 119716711 heartbeat IPC: 1.98201 cumulative IPC: 0.334122 (Simulation time: 0 hr 34 min 5 sec) 
Heartbeat CPU 3 instructions: 190000001 cycles: 123562134 heartbeat IPC: 1.49001 cumulative IPC: 1.53769 (Simulation time: 0 hr 35 min 10 sec) 
Heartbeat CPU 0 instructions: 250000001 cycles: 124891364 heartbeat IPC: 1.9325 cumulative IPC: 0.400348 (Simulation time: 0 hr 35 min 31 sec) 
Heartbeat CPU 2 instructions: 190000002 cycles: 125218493 heartbeat IPC: 1.51734 cumulative IPC: 1.51735 (Simulation time: 0 hr 35 min 37 sec) 
Heartbeat CPU 1 instructions: 200000000 cycles: 126007783 heartbeat IPC: 1.58262 cumulative IPC: 1.5872 (Simulation time: 0 hr 35 min 51 sec) 
Heartbeat CPU 0 instructions: 260000000 cycles: 129920368 heartbeat IPC: 1.98847 cumulative IPC: 0.461821 (Simulation time: 0 hr 36 min 56 sec) 
Heartbeat CPU 3 instructions: 200000000 cycles: 130259124 heartbeat IPC: 1.49321 cumulative IPC: 1.5354 (Simulation time: 0 hr 37 min 1 sec) 
Heartbeat CPU 2 instructions: 200000000 cycles: 131808421 heartbeat IPC: 1.51747 cumulative IPC: 1.51735 (Simulation time: 0 hr 37 min 26 sec) 

Warmup complete CPU 0 instructions: 263583535 cycles: 131808439 (Simulation time: 0 hr 37 min 26 sec) 
Warmup complete CPU 1 instructions: 208932899 cycles: 131808439 (Simulation time: 0 hr 37 min 26 sec) 
Warmup complete CPU 2 instructions: 200000002 cycles: 131808439 (Simulation time: 0 hr 37 min 26 sec) 
Warmup complete CPU 3 instructions: 202317672 cycles: 131808438 (Simulation time: 0 hr 37 min 26 sec) 

Heartbeat CPU 1 instructions: 210000000 cycles: 134202938 heartbeat IPC: 1.22023 cumulative IPC: 0.445647 (Simulation time: 0 hr 37 min 54 sec) 
Heartbeat CPU 0 instructions: 270000000 cycles: 138633120 heartbeat IPC: 1.14774 cumulative IPC: 0.940185 (Simulation time: 0 hr 38 min 36 sec) 
Heartbeat CPU 2 instructions: 210000000 cycles: 140149956 heartbeat IPC: 1.19882 cumulative IPC: 1.19882 (Simulation time: 0 hr 38 min 54 sec) 
Heartbeat CPU 0 instructions: 280000000 cycles: 148346462 heartbeat IPC: 1.02951 cumulative IPC: 0.99265 (Simulation time: 0 hr 40 min 18 sec) 
Heartbeat CPU 2 instructions: 220000000 cycles: 148478950 heartbeat IPC: 1.20063 cumulative IPC: 1.19972 (Simulation time: 0 hr 40 min 19 sec) 
Heartbeat CPU 3 instructions: 210000000 cycles: 150130081 heartbeat IPC: 0.503247 cumulative IPC: 0.419303 (Simulation time: 0 hr 40 min 35 sec) 
Heartbeat CPU 2 instructions: 230000001 cycles: 156811067 heartbeat IPC: 1.20018 cumulative IPC: 1.19987 (Simulation time: 0 hr 41 min 44 sec) 
Heartbeat CPU 1 instructions: 220000000 cycles: 157335379 heartbeat IPC: 0.432293 cumulative IPC: 0.433546 (Simulation time: 0 hr 41 min 48 sec) 
Heartbeat CPU 0 instructions: 290000000 cycles: 159941470 heartbeat IPC: 0.86244 cumulative IPC: 0.938984 (Simulation time: 0 hr 42 min 14 sec) 
Heartbeat CPU 2 instructions: 240000000 cycles: 165141313 heartbeat IPC: 1.20044 cumulative IPC: 1.20002 (Simulation time: 0 hr 43 min 8 sec) 
Heartbeat CPU 0 instructions: 300000000 cycles: 169445140 heartbeat IPC: 1.05223 cumulative IPC: 0.967579 (Simulation time: 0 hr 43 min 55 sec) 
Heartbeat CPU 2 instructions: 250000003 cycles: 173484020 heartbeat IPC: 1.19865 cumulative IPC: 1.19974 (Simulation time: 0 hr 44 min 33 sec) 
Heartbeat CPU 3 instructions: 220000000 cycles: 173968402 heartbeat IPC: 0.419493 cumulative IPC: 0.41941 (Simulation time: 0 hr 44 min 37 sec) 
Heartbeat CPU 1 instructions: 230000000 cycles: 180296039 heartbeat IPC: 0.435528 cumulative IPC: 0.434484 (Simulation time: 0 hr 45 min 42 sec) 
Heartbeat CPU 0 instructions: 310000000 cycles: 181521516 heartbeat IPC: 0.828063 cumulative IPC: 0.933687 (Simulation time: 0 hr 45 min 54 sec) 
Heartbeat CPU 2 instructions: 260000000 cycles: 181817661 heartbeat IPC: 1.19996 cumulative IPC: 1.19978 (Simulation time: 0 hr 45 min 58 sec) 
Heartbeat CPU 2 instructions: 270000003 cycles: 190160612 heartbeat IPC: 1.19862 cumulative IPC: 1.19961 (Simulation time: 0 hr 47 min 26 sec) 
Heartbeat CPU 0 instructions: 320000000 cycles: 190760775 heartbeat IPC: 1.08234 cumulative IPC: 0.956984 (Simulation time: 0 hr 47 min 33 sec) 
Heartbeat CPU 3 instructions: 230000000 cycles: 197741003 heartbeat IPC: 0.420652 cumulative IPC: 0.419858 (Simulation time: 0 hr 48 min 46 sec) 
Heartbeat CPU 2 instructions: 280000000 cycles: 198507344 heartbeat IPC: 1.19807 cumulative IPC: 1.19942 (Simulation time: 0 hr 48 min 53 sec) 
Heartbeat CPU 1 instructions: 240000000 cycles: 202516136 heartbeat IPC: 0.450043 cumulative IPC: 0.439374 (Simulation time: 0 hr 49 min 30 sec) 
Heartbeat CPU 0 instructions: 330000000 cycles: 202754312 heartbeat IPC: 0.833782 cumulative IPC: 0.936157 (Simulation time: 0 hr 49 min 32 sec) 
Heartbeat CPU 2 instructions: 290000003 cycles: 206832969 heartbeat IPC: 1.20111 cumulative IPC: 1.19961 (Simulation time: 0 hr 50 min 18 sec) 
Heartbeat CPU 0 instructions: 340000000 cycles: 212360227 heartbeat IPC: 1.04103 cumulative IPC: 0.948663 (Simulation time: 0 hr 51 min 14 sec) 
Heartbeat CPU 2 instructions: 300000000 cycles: 215172977 heartbeat IPC: 1.19904 cumulative IPC: 1.19955 (Simulation time: 0 hr 51 min 42 sec) 
Heartbeat CPU 3 instructions: 240000000 cycles: 221537464 heartbeat IPC: 0.420231 cumulative IPC: 0.419957 (Simulation time: 0 hr 52 min 48 sec) 
Heartbeat CPU 2 instructions: 310000000 cycles: 223515826 heartbeat IPC: 1.19863 cumulative IPC: 1.19947 (Simulation time: 0 hr 53 min 6 sec) 
Heartbeat CPU 0 instructions: 350000001 cycles: 223519223 heartbeat IPC: 0.896138 cumulative IPC: 0.942272 (Simulation time: 0 hr 53 min 7 sec) 
Heartbeat CPU 1 instructions: 250000000 cycles: 224698914 heartbeat IPC: 0.4508 cumulative IPC: 0.442102 (Simulation time: 0 hr 53 min 18 sec) 
Heartbeat CPU 2 instructions: 320000000 cycles: 231636163 heartbeat IPC: 1.23148 cumulative IPC: 1.20207 (Simulation time: 0 hr 54 min 27 sec) 
Heartbeat CPU 0 instructions: 360000000 cycles: 233749865 heartbeat IPC: 0.977456 cumulative IPC: 0.945803 (Simulation time: 0 hr 54 min 50 sec) 
Heartbeat CPU 2 instructions: 330000000 cycles: 238898532 heartbeat IPC: 1.37696 cumulative IPC: 1.21393 (Simulation time: 0 hr 55 min 37 sec) 
Heartbeat CPU 0 instructions: 370000000 cycles: 244671623 heartbeat IPC: 0.915604 cumulative IPC: 0.94288 (Simulation time: 0 hr 56 min 35 sec) 
Heartbeat CPU 3 instructions: 250000003 cycles: 245348488 heartbeat IPC: 0.419974 cumulative IPC: 0.41996 (Simulation time: 0 hr 56 min 41 sec) 
Heartbeat CPU 2 instructions: 340000000 cycles: 245836416 heartbeat IPC: 1.44136 cumulative IPC: 1.22777 (Simulation time: 0 hr 56 min 45 sec) 
Heartbeat CPU 1 instructions: 260000000 cycles: 247440022 heartbeat IPC: 0.439732 cumulative IPC: 0.441636 (Simulation time: 0 hr 57 min 1 sec) 
Heartbeat CPU 2 instructions: 350000000 cycles: 253672425 heartbeat IPC: 1.27616 cumulative IPC: 1.23088 (Simulation time: 0 hr 57 min 58 sec) 
Heartbeat CPU 0 instructions: 380000000 cycles: 255275883 heartbeat IPC: 0.943017 cumulative IPC: 0.942892 (Simulation time: 0 hr 58 min 17 sec) 
Heartbeat CPU 2 instructions: 360000000 cycles: 262184874 heartbeat IPC: 1.17475 cumulative IPC: 1.22722 (Simulation time: 0 hr 59 min 27 sec) 
Heartbeat CPU 0 instructions: 390000003 cycles: 266803993 heartbeat IPC: 0.867445 cumulative IPC: 0.936449 (Simulation time: 1 hr 0 min 12 sec) 
Heartbeat CPU 3 instructions: 260000000 cycles: 269127568 heartbeat IPC: 0.420538 cumulative IPC: 0.42006 (Simulation time: 1 hr 0 min 38 sec) 
Heartbeat CPU 1 instructions: 270000003 cycles: 269987620 heartbeat IPC: 0.443506 cumulative IPC: 0.441941 (Simulation time: 1 hr 0 min 48 sec) 
Heartbeat CPU 2 instructions: 370000000 cycles: 270526333 heartbeat IPC: 1.19883 cumulative IPC: 1.22551 (Simulation time: 1 hr 0 min 54 sec) 
Heartbeat CPU 0 instructions: 400000000 cycles: 276408058 heartbeat IPC: 1.04123 cumulative IPC: 0.943408 (Simulation time: 1 hr 1 min 53 sec) 
Heartbeat CPU 2 instructions: 380000000 cycles: 278847688 heartbeat IPC: 1.20173 cumulative IPC: 1.22416 (Simulation time: 1 hr 2 min 17 sec) 
Heartbeat CPU 2 instructions: 390000001 cycles: 287176276 heartbeat IPC: 1.20068 cumulative IPC: 1.2229 (Simulation time: 1 hr 3 min 41 sec) 
Heartbeat CPU 0 instructions: 410000001 cycles: 287970825 heartbeat IPC: 0.864845 cumulative IPC: 0.937591 (Simulation time: 1 hr 3 min 49 sec) 
Heartbeat CPU 1 instructions: 280000000 cycles: 292304146 heartbeat IPC: 0.448098 cumulative IPC: 0.442798 (Simulation time: 1 hr 4 min 36 sec) 
Heartbeat CPU 3 instructions: 270000000 cycles: 292882328 heartbeat IPC: 0.420968 cumulative IPC: 0.420194 (Simulation time: 1 hr 4 min 42 sec) 
Heartbeat CPU 2 instructions: 400000000 cycles: 295526835 heartbeat IPC: 1.19752 cumulative IPC: 1.22161 (Simulation time: 1 hr 5 min 8 sec) 
Heartbeat CPU 0 instructions: 420000000 cycles: 297124952 heartbeat IPC: 1.0924 cumulative IPC: 0.946164 (Simulation time: 1 hr 5 min 27 sec) 
Heartbeat CPU 2 instructions: 410000003 cycles: 303874420 heartbeat IPC: 1.19795 cumulative IPC: 1.22046 (Simulation time: 1 hr 6 min 37 sec) 
Heartbeat CPU 0 instructions: 430000003 cycles: 308719358 heartbeat IPC: 0.862485 cumulative IPC: 0.940679 (Simulation time: 1 hr 7 min 24 sec) 
Heartbeat CPU 2 instructions: 420000000 cycles: 312217171 heartbeat IPC: 1.19864 cumulative IPC: 1.21945 (Simulation time: 1 hr 8 min 2 sec) 
Heartbeat CPU 1 instructions: 290000003 cycles: 314325377 heartbeat IPC: 0.454107 cumulative IPC: 0.444162 (Simulation time: 1 hr 8 min 22 sec) 
Heartbeat CPU 3 instructions: 280000000 cycles: 316689896 heartbeat IPC: 0.420034 cumulative IPC: 0.420174 (Simulation time: 1 hr 8 min 48 sec) 
Heartbeat CPU 0 instructions: 440000000 cycles: 318022929 heartbeat IPC: 1.07486 cumulative IPC: 0.947383 (Simulation time: 1 hr 9 min 3 sec) 
Heartbeat CPU 2 instructions: 430000001 cycles: 320560596 heartbeat IPC: 1.19855 cumulative IPC: 1.21853 (Simulation time: 1 hr 9 min 26 sec) 
Heartbeat CPU 2 instructions: 440000000 cycles: 328919227 heartbeat IPC: 1.19637 cumulative IPC: 1.21759 (Simulation time: 1 hr 10 min 52 sec) 
Heartbeat CPU 0 instructions: 450000002 cycles: 329128187 heartbeat IPC: 0.900475 cumulative IPC: 0.944743 (Simulation time: 1 hr 10 min 55 sec) 
Heartbeat CPU 2 instructions: 450000001 cycles: 337255952 heartbeat IPC: 1.19951 cumulative IPC: 1.21686 (Simulation time: 1 hr 12 min 20 sec) 
Heartbeat CPU 1 instructions: 300000000 cycles: 337341032 heartbeat IPC: 0.434487 cumulative IPC: 0.443079 (Simulation time: 1 hr 12 min 21 sec) 
Heartbeat CPU 0 instructions: 460000000 cycles: 339594987 heartbeat IPC: 0.955402 cumulative IPC: 0.94528 (Simulation time: 1 hr 12 min 42 sec) 
Heartbeat CPU 3 instructions: 290000000 cycles: 340488082 heartbeat IPC: 0.4202 cumulative IPC: 0.420177 (Simulation time: 1 hr 12 min 50 sec) 
Heartbeat CPU 2 instructions: 460000000 cycles: 345587624 heartbeat IPC: 1.20024 cumulative IPC: 1.21621 (Simulation time: 1 hr 13 min 44 sec) 
Heartbeat CPU 0 instructions: 470000000 cycles: 349472829 heartbeat IPC: 1.01237 cumulative IPC: 0.948324 (Simulation time: 1 hr 14 min 25 sec) 
Heartbeat CPU 2 instructions: 470000002 cycles: 353929146 heartbeat IPC: 1.19882 cumulative IPC: 1.21556 (Simulation time: 1 hr 15 min 8 sec) 
Heartbeat CPU 1 instructions: 310000000 cycles: 359996981 heartbeat IPC: 0.441385 cumulative IPC: 0.44291 (Simulation time: 1 hr 16 min 11 sec) 
Heartbeat CPU 0 instructions: 480000000 cycles: 360969421 heartbeat IPC: 0.869823 cumulative IPC: 0.944386 (Simulation time: 1 hr 16 min 21 sec) 
Heartbeat CPU 2 instructions: 480000000 cycles: 362274058 heartbeat IPC: 1.19833 cumulative IPC: 1.21493 (Simulation time: 1 hr 16 min 36 sec) 
Heartbeat CPU 3 instructions: 300000000 cycles: 364315681 heartbeat IPC: 0.419681 cumulative IPC: 0.420126 (Simulation time: 1 hr 16 min 59 sec) 
Heartbeat CPU 0 instructions: 490000002 cycles: 370051059 heartbeat IPC: 1.10112 cumulative IPC: 0.950361 (Simulation time: 1 hr 17 min 58 sec) 
Heartbeat CPU 2 instructions: 490000002 cycles: 370606623 heartbeat IPC: 1.20011 cumulative IPC: 1.21441 (Simulation time: 1 hr 18 min 3 sec) 
Heartbeat CPU 2 instructions: 500000000 cycles: 378940198 heartbeat IPC: 1.19997 cumulative IPC: 1.21393 (Simulation time: 1 hr 19 min 27 sec) 
Heartbeat CPU 0 instructions: 500000000 cycles: 381617504 heartbeat IPC: 0.86457 cumulative IPC: 0.946389 (Simulation time: 1 hr 19 min 53 sec) 
Heartbeat CPU 1 instructions: 320000000 cycles: 382076163 heartbeat IPC: 0.452915 cumulative IPC: 0.443793 (Simulation time: 1 hr 19 min 59 sec) 
Heartbeat CPU 2 instructions: 510000001 cycles: 387272748 heartbeat IPC: 1.20011 cumulative IPC: 1.21348 (Simulation time: 1 hr 20 min 51 sec) 
Heartbeat CPU 3 instructions: 310000003 cycles: 388265848 heartbeat IPC: 0.417534 cumulative IPC: 0.419884 (Simulation time: 1 hr 21 min 1 sec) 
Heartbeat CPU 0 instructions: 510000000 cycles: 391118666 heartbeat IPC: 1.0525 cumulative IPC: 0.950277 (Simulation time: 1 hr 21 min 34 sec) 
Heartbeat CPU 2 instructions: 520000000 cycles: 395614876 heartbeat IPC: 1.19873 cumulative IPC: 1.21301 (Simulation time: 1 hr 22 min 19 sec) 
Heartbeat CPU 0 instructions: 520000000 cycles: 402216269 heartbeat IPC: 0.901096 cumulative IPC: 0.948258 (Simulation time: 1 hr 23 min 27 sec) 
Heartbeat CPU 1 instructions: 330000001 cycles: 402783296 heartbeat IPC: 0.482925 cumulative IPC: 0.446784 (Simulation time: 1 hr 23 min 34 sec) 
Heartbeat CPU 2 instructions: 530000002 cycles: 403952593 heartbeat IPC: 1.19937 cumulative IPC: 1.21259 (Simulation time: 1 hr 23 min 47 sec) 
Heartbeat CPU 2 instructions: 540000000 cycles: 412289552 heartbeat IPC: 1.19948 cumulative IPC: 1.2122 (Simulation time: 1 hr 25 min 10 sec) 
Heartbeat CPU 3 instructions: 320000000 cycles: 412430154 heartbeat IPC: 0.413833 cumulative IPC: 0.419363 (Simulation time: 1 hr 25 min 11 sec) 
Heartbeat CPU 0 instructions: 530000001 cycles: 413435136 heartbeat IPC: 0.891356 cumulative IPC: 0.945992 (Simulation time: 1 hr 25 min 20 sec) 
Heartbeat CPU 2 instructions: 550000002 cycles: 420631467 heartbeat IPC: 1.19877 cumulative IPC: 1.21181 (Simulation time: 1 hr 26 min 35 sec) 
Heartbeat CPU 0 instructions: 540000000 cycles: 422735996 heartbeat IPC: 1.07517 cumulative IPC: 0.950121 (Simulation time: 1 hr 27 min 0 sec) 
Heartbeat CPU 1 instructions: 340000000 cycles: 423860445 heartbeat IPC: 0.474447 cumulative IPC: 0.44878 (Simulation time: 1 hr 27 min 11 sec) 
Heartbeat CPU 2 instructions: 560000000 cycles: 428978607 heartbeat IPC: 1.19801 cumulative IPC: 1.21143 (Simulation time: 1 hr 28 min 2 sec) 
Heartbeat CPU 0 instructions: 550000001 cycles: 434682275 heartbeat IPC: 0.837081 cumulative IPC: 0.945663 (Simulation time: 1 hr 28 min 58 sec) 
Heartbeat CPU 3 instructions: 330000000 cycles: 436844527 heartbeat IPC: 0.409595 cumulative IPC: 0.418581 (Simulation time: 1 hr 29 min 22 sec) 
Heartbeat CPU 2 instructions: 570000003 cycles: 437322624 heartbeat IPC: 1.19846 cumulative IPC: 1.21107 (Simulation time: 1 hr 29 min 26 sec) 
Heartbeat CPU 0 instructions: 560000000 cycles: 445063149 heartbeat IPC: 0.96331 cumulative IPC: 0.946247 (Simulation time: 1 hr 30 min 44 sec) 
Heartbeat CPU 2 instructions: 580000000 cycles: 445661164 heartbeat IPC: 1.19925 cumulative IPC: 1.21076 (Simulation time: 1 hr 30 min 50 sec) 
Heartbeat CPU 1 instructions: 350000000 cycles: 445676544 heartbeat IPC: 0.458377 cumulative IPC: 0.449447 (Simulation time: 1 hr 30 min 50 sec) 
Heartbeat CPU 2 instructions: 590000000 cycles: 453996038 heartbeat IPC: 1.19978 cumulative IPC: 1.21047 (Simulation time: 1 hr 32 min 13 sec) 
Heartbeat CPU 0 instructions: 570000001 cycles: 455705372 heartbeat IPC: 0.939653 cumulative IPC: 0.946031 (Simulation time: 1 hr 32 min 32 sec) 
Heartbeat CPU 3 instructions: 340000000 cycles: 461365293 heartbeat IPC: 0.407818 cumulative IPC: 0.41778 (Simulation time: 1 hr 33 min 28 sec) 
Heartbeat CPU 2 instructions: 600000000 cycles: 462348815 heartbeat IPC: 1.19721 cumulative IPC: 1.21014 (Simulation time: 1 hr 33 min 40 sec) 
Heartbeat CPU 0 instructions: 580000000 cycles: 467292036 heartbeat IPC: 0.863061 cumulative IPC: 0.943165 (Simulation time: 1 hr 34 min 26 sec) 
Heartbeat CPU 1 instructions: 360000000 cycles: 468201032 heartbeat IPC: 0.443961 cumulative IPC: 0.44908 (Simulation time: 1 hr 34 min 37 sec) 
Heartbeat CPU 2 instructions: 610000003 cycles: 470687795 heartbeat IPC: 1.19919 cumulative IPC: 1.20987 (Simulation time: 1 hr 35 min 2 sec) 
Heartbeat CPU 0 instructions: 590000001 cycles: 477456258 heartbeat IPC: 0.983843 cumulative IPC: 0.944361 (Simulation time: 1 hr 36 min 11 sec) 
Heartbeat CPU 2 instructions: 620000000 cycles: 479035898 heartbeat IPC: 1.19788 cumulative IPC: 1.20958 (Simulation time: 1 hr 36 min 26 sec) 
Heartbeat CPU 3 instructions: 350000000 cycles: 486028446 heartbeat IPC: 0.405463 cumulative IPC: 0.416923 (Simulation time: 1 hr 37 min 36 sec) 
Heartbeat CPU 2 instructions: 630000001 cycles: 487390324 heartbeat IPC: 1.19697 cumulative IPC: 1.20929 (Simulation time: 1 hr 37 min 49 sec) 
Heartbeat CPU 0 instructions: 600000000 cycles: 488408952 heartbeat IPC: 0.913017 cumulative IPC: 0.943399 (Simulation time: 1 hr 38 min 1 sec) 
Heartbeat CPU 1 instructions: 370000000 cycles: 488832822 heartbeat IPC: 0.484689 cumulative IPC: 0.451138 (Simulation time: 1 hr 38 min 6 sec) 
Heartbeat CPU 2 instructions: 640000000 cycles: 495735130 heartbeat IPC: 1.19835 cumulative IPC: 1.20903 (Simulation time: 1 hr 39 min 15 sec) 
Heartbeat CPU 0 instructions: 610000002 cycles: 500239983 heartbeat IPC: 0.845235 cumulative IPC: 0.940246 (Simulation time: 1 hr 39 min 57 sec) 
Heartbeat CPU 2 instructions: 650000000 cycles: 504078385 heartbeat IPC: 1.19857 cumulative IPC: 1.2088 (Simulation time: 1 hr 40 min 37 sec) 
Heartbeat CPU 3 instructions: 360000000 cycles: 510712612 heartbeat IPC: 0.405118 cumulative IPC: 0.416154 (Simulation time: 1 hr 41 min 42 sec) 
Heartbeat CPU 0 instructions: 620000000 cycles: 511064544 heartbeat IPC: 0.923825 cumulative IPC: 0.939778 (Simulation time: 1 hr 41 min 45 sec) 
Heartbeat CPU 1 instructions: 380000000 cycles: 511790377 heartbeat IPC: 0.435586 cumulative IPC: 0.450198 (Simulation time: 1 hr 41 min 52 sec) 
Heartbeat CPU 2 instructions: 660000000 cycles: 512419328 heartbeat IPC: 1.19891 cumulative IPC: 1.20858 (Simulation time: 1 hr 41 min 58 sec) 
Heartbeat CPU 2 instructions: 670000002 cycles: 520782769 heartbeat IPC: 1.19568 cumulative IPC: 1.20831 (Simulation time: 1 hr 43 min 20 sec) 
Heartbeat CPU 0 instructions: 630000003 cycles: 522001827 heartbeat IPC: 0.914304 cumulative IPC: 0.939064 (Simulation time: 1 hr 43 min 34 sec) 
Heartbeat CPU 2 instructions: 680000000 cycles: 529137005 heartbeat IPC: 1.197 cumulative IPC: 1.20807 (Simulation time: 1 hr 44 min 45 sec) 
Heartbeat CPU 0 instructions: 640000000 cycles: 534082327 heartbeat IPC: 0.82778 cumulative IPC: 0.935722 (Simulation time: 1 hr 45 min 31 sec) 
Heartbeat CPU 1 instructions: 390000001 cycles: 534649479 heartbeat IPC: 0.437463 cumulative IPC: 0.449475 (Simulation time: 1 hr 45 min 38 sec) 
Heartbeat CPU 3 instructions: 370000000 cycles: 535337939 heartbeat IPC: 0.406086 cumulative IPC: 0.415539 (Simulation time: 1 hr 45 min 46 sec) 
Heartbeat CPU 2 instructions: 690000002 cycles: 537470784 heartbeat IPC: 1.19994 cumulative IPC: 1.2079 (Simulation time: 1 hr 46 min 6 sec) 
Heartbeat CPU 0 instructions: 650000000 cycles: 544774613 heartbeat IPC: 0.935254 cumulative IPC: 0.93571 (Simulation time: 1 hr 47 min 18 sec) 
Heartbeat CPU 2 instructions: 700000000 cycles: 545805109 heartbeat IPC: 1.19986 cumulative IPC: 1.20774 (Simulation time: 1 hr 47 min 27 sec) 
Heartbeat CPU 2 instructions: 710000001 cycles: 554052043 heartbeat IPC: 1.21257 cumulative IPC: 1.20783 (Simulation time: 1 hr 48 min 49 sec) 
Heartbeat CPU 0 instructions: 660000000 cycles: 556037309 heartbeat IPC: 0.887887 cumulative IPC: 0.93444 (Simulation time: 1 hr 49 min 8 sec) 
Heartbeat CPU 1 instructions: 400000000 cycles: 557505774 heartbeat IPC: 0.437516 cumulative IPC: 0.448833 (Simulation time: 1 hr 49 min 24 sec) 
Heartbeat CPU 3 instructions: 380000000 cycles: 559871618 heartbeat IPC: 0.407603 cumulative IPC: 0.415084 (Simulation time: 1 hr 49 min 43 sec) 
Heartbeat CPU 2 instructions: 720000000 cycles: 560740406 heartbeat IPC: 1.49513 cumulative IPC: 1.21231 (Simulation time: 1 hr 49 min 50 sec) 
Heartbeat CPU 2 instructions: 730000000 cycles: 567574189 heartbeat IPC: 1.46332 cumulative IPC: 1.21625 (Simulation time: 1 hr 50 min 54 sec) 
Heartbeat CPU 0 instructions: 670000001 cycles: 568171710 heartbeat IPC: 0.824103 cumulative IPC: 0.931372 (Simulation time: 1 hr 50 min 59 sec) 
Heartbeat CPU 2 instructions: 740000000 cycles: 575907028 heartbeat IPC: 1.20007 cumulative IPC: 1.21595 (Simulation time: 1 hr 52 min 10 sec) 
Heartbeat CPU 0 instructions: 680000000 cycles: 579694286 heartbeat IPC: 0.867861 cumulative IPC: 0.929738 (Simulation time: 1 hr 52 min 44 sec) 
Heartbeat CPU 1 instructions: 410000002 cycles: 581165735 heartbeat IPC: 0.422655 cumulative IPC: 0.447455 (Simulation time: 1 hr 52 min 56 sec) 
Heartbeat CPU 3 instructions: 390000003 cycles: 584376333 heartbeat IPC: 0.408085 cumulative IPC: 0.414705 (Simulation time: 1 hr 53 min 28 sec) 
Heartbeat CPU 2 instructions: 750000002 cycles: 584506771 heartbeat IPC: 1.16283 cumulative IPC: 1.21494 (Simulation time: 1 hr 53 min 29 sec) 
Heartbeat CPU 0 instructions: 690000003 cycles: 591037506 heartbeat IPC: 0.881584 cumulative IPC: 0.928549 (Simulation time: 1 hr 54 min 27 sec) 
Heartbeat CPU 2 instructions: 760000000 cycles: 592870533 heartbeat IPC: 1.19563 cumulative IPC: 1.21459 (Simulation time: 1 hr 54 min 46 sec) 
Heartbeat CPU 2 instructions: 770000003 cycles: 599330822 heartbeat IPC: 1.54792 cumulative IPC: 1.21919 (Simulation time: 1 hr 55 min 44 sec) 
Heartbeat CPU 0 instructions: 700000000 cycles: 603115851 heartbeat IPC: 0.827928 cumulative IPC: 0.92597 (Simulation time: 1 hr 56 min 16 sec) 
Heartbeat CPU 1 instructions: 420000000 cycles: 605121185 heartbeat IPC: 0.417441 cumulative IPC: 0.445936 (Simulation time: 1 hr 56 min 37 sec) 
Heartbeat CPU 2 instructions: 780000000 cycles: 606284348 heartbeat IPC: 1.43812 cumulative IPC: 1.2224 (Simulation time: 1 hr 56 min 47 sec) 
Heartbeat CPU 3 instructions: 400000000 cycles: 608771150 heartbeat IPC: 0.409923 cumulative IPC: 0.414461 (Simulation time: 1 hr 57 min 7 sec) 
Heartbeat CPU 0 instructions: 710000001 cycles: 613577120 heartbeat IPC: 0.955907 cumulative IPC: 0.92662 (Simulation time: 1 hr 57 min 54 sec) 
Heartbeat CPU 2 instructions: 790000002 cycles: 613849455 heartbeat IPC: 1.32186 cumulative IPC: 1.22396 (Simulation time: 1 hr 57 min 56 sec) 
Heartbeat CPU 2 instructions: 800000000 cycles: 622478800 heartbeat IPC: 1.15884 cumulative IPC: 1.22282 (Simulation time: 1 hr 59 min 11 sec) 
Heartbeat CPU 0 instructions: 720000000 cycles: 625614883 heartbeat IPC: 0.830719 cumulative IPC: 0.924282 (Simulation time: 1 hr 59 min 40 sec) 
Heartbeat CPU 1 instructions: 430000002 cycles: 628211896 heartbeat IPC: 0.433075 cumulative IPC: 0.445338 (Simulation time: 2 hr 0 min 4 sec) 
Heartbeat CPU 2 instructions: 810000003 cycles: 631170206 heartbeat IPC: 1.15056 cumulative IPC: 1.22156 (Simulation time: 2 hr 0 min 29 sec) 
Heartbeat CPU 3 instructions: 410000002 cycles: 633120018 heartbeat IPC: 0.410697 cumulative IPC: 0.414278 (Simulation time: 2 hr 0 min 52 sec) 
Heartbeat CPU 0 instructions: 730000003 cycles: 637510923 heartbeat IPC: 0.840616 cumulative IPC: 0.922314 (Simulation time: 2 hr 1 min 32 sec) 
Heartbeat CPU 2 instructions: 820000000 cycles: 639626294 heartbeat IPC: 1.18258 cumulative IPC: 1.22091 (Simulation time: 2 hr 1 min 54 sec) 
Heartbeat CPU 2 instructions: 830000000 cycles: 647981922 heartbeat IPC: 1.1968 cumulative IPC: 1.22052 (Simulation time: 2 hr 3 min 18 sec) 
Heartbeat CPU 0 instructions: 740000000 cycles: 648347785 heartbeat IPC: 0.922776 cumulative IPC: 0.922324 (Simulation time: 2 hr 3 min 21 sec) 
Heartbeat CPU 1 instructions: 440000000 cycles: 651386735 heartbeat IPC: 0.431502 cumulative IPC: 0.44472 (Simulation time: 2 hr 3 min 48 sec) 
Heartbeat CPU 2 instructions: 840000000 cycles: 656311180 heartbeat IPC: 1.20059 cumulative IPC: 1.2202 (Simulation time: 2 hr 4 min 37 sec) 
Heartbeat CPU 3 instructions: 420000000 cycles: 657382584 heartbeat IPC: 0.412157 cumulative IPC: 0.41418 (Simulation time: 2 hr 4 min 47 sec) 
Heartbeat CPU 0 instructions: 750000000 cycles: 659924489 heartbeat IPC: 0.863804 cumulative IPC: 0.921041 (Simulation time: 2 hr 5 min 14 sec) 
Heartbeat CPU 2 instructions: 850000002 cycles: 664644401 heartbeat IPC: 1.20002 cumulative IPC: 1.21989 (Simulation time: 2 hr 6 min 0 sec) 
Heartbeat CPU 0 instructions: 760000000 cycles: 671855425 heartbeat IPC: 0.838157 cumulative IPC: 0.91921 (Simulation time: 2 hr 7 min 10 sec) 
Heartbeat CPU 2 instructions: 860000000 cycles: 672994238 heartbeat IPC: 1.19763 cumulative IPC: 1.21954 (Simulation time: 2 hr 7 min 21 sec) 
Heartbeat CPU 1 instructions: 450000002 cycles: 674610787 heartbeat IPC: 0.430588 cumulative IPC: 0.444116 (Simulation time: 2 hr 7 min 40 sec) 
Heartbeat CPU 2 instructions: 870000000 cycles: 681344510 heartbeat IPC: 1.19757 cumulative IPC: 1.21921 (Simulation time: 2 hr 8 min 47 sec) 
Heartbeat CPU 3 instructions: 430000000 cycles: 681585334 heartbeat IPC: 0.413176 cumulative IPC: 0.414136 (Simulation time: 2 hr 8 min 49 sec) 
Heartbeat CPU 0 instructions: 770000001 cycles: 682494324 heartbeat IPC: 0.939947 cumulative IPC: 0.91961 (Simulation time: 2 hr 8 min 57 sec) 
Heartbeat CPU 2 instructions: 880000000 cycles: 689667072 heartbeat IPC: 1.20155 cumulative IPC: 1.21895 (Simulation time: 2 hr 10 min 6 sec) 
Heartbeat CPU 0 instructions: 780000000 cycles: 693718468 heartbeat IPC: 0.890936 cumulative IPC: 0.919038 (Simulation time: 2 hr 10 min 48 sec) 
Heartbeat CPU 1 instructions: 460000000 cycles: 697512064 heartbeat IPC: 0.436657 cumulative IPC: 0.443814 (Simulation time: 2 hr 11 min 24 sec) 
Heartbeat CPU 2 instructions: 890000001 cycles: 698006526 heartbeat IPC: 1.19912 cumulative IPC: 1.21865 (Simulation time: 2 hr 11 min 29 sec) 
Heartbeat CPU 0 instructions: 790000003 cycles: 705670928 heartbeat IPC: 0.836648 cumulative IPC: 0.917322 (Simulation time: 2 hr 12 min 43 sec) 
Heartbeat CPU 3 instructions: 440000000 cycles: 705767845 heartbeat IPC: 0.413522 cumulative IPC: 0.41411 (Simulation time: 2 hr 12 min 44 sec) 
Heartbeat CPU 2 instructions: 900000000 cycles: 706353320 heartbeat IPC: 1.19806 cumulative IPC: 1.21836 (Simulation time: 2 hr 12 min 50 sec) 
Heartbeat CPU 2 instructions: 910000000 cycles: 714685906 heartbeat IPC: 1.20011 cumulative IPC: 1.21809 (Simulation time: 2 hr 14 min 15 sec) 
Heartbeat CPU 0 instructions: 800000000 cycles: 716185448 heartbeat IPC: 0.951065 cumulative IPC: 0.917929 (Simulation time: 2 hr 14 min 30 sec) 
Heartbeat CPU 1 instructions: 470000000 cycles: 720378280 heartbeat IPC: 0.437326 cumulative IPC: 0.443562 (Simulation time: 2 hr 15 min 9 sec) 
Heartbeat CPU 2 instructions: 920000000 cycles: 723014147 heartbeat IPC: 1.20073 cumulative IPC: 1.21785 (Simulation time: 2 hr 15 min 38 sec) 
Heartbeat CPU 0 instructions: 810000003 cycles: 727756324 heartbeat IPC: 0.864239 cumulative IPC: 0.916886 (Simulation time: 2 hr 16 min 23 sec) 
Heartbeat CPU 3 instructions: 450000000 cycles: 730087386 heartbeat IPC: 0.411192 cumulative IPC: 0.413991 (Simulation time: 2 hr 16 min 47 sec) 
Heartbeat CPU 2 instructions: 930000002 cycles: 731340416 heartbeat IPC: 1.20102 cumulative IPC: 1.21762 (Simulation time: 2 hr 16 min 58 sec) 
Heartbeat CPU 0 instructions: 820000000 cycles: 739305377 heartbeat IPC: 0.865872 cumulative IPC: 0.915917 (Simulation time: 2 hr 18 min 15 sec) 
Heartbeat CPU 2 instructions: 940000000 cycles: 739681749 heartbeat IPC: 1.19885 cumulative IPC: 1.21736 (Simulation time: 2 hr 18 min 19 sec) 
Heartbeat CPU 1 instructions: 480000000 cycles: 743353287 heartbeat IPC: 0.435256 cumulative IPC: 0.44325 (Simulation time: 2 hr 18 min 56 sec) 
Heartbeat CPU 2 instructions: 950000001 cycles: 748010430 heartbeat IPC: 1.20067 cumulative IPC: 1.21713 (Simulation time: 2 hr 19 min 44 sec) 
Heartbeat CPU 0 instructions: 830000000 cycles: 749470836 heartbeat IPC: 0.983723 cumulative IPC: 0.917032 (Simulation time: 2 hr 19 min 58 sec) 
Heartbeat CPU 3 instructions: 460000000 cycles: 754608911 heartbeat IPC: 0.407805 cumulative IPC: 0.413748 (Simulation time: 2 hr 20 min 49 sec) 
Heartbeat CPU 2 instructions: 960000000 cycles: 756332594 heartbeat IPC: 1.20161 cumulative IPC: 1.21693 (Simulation time: 2 hr 21 min 5 sec) 
Heartbeat CPU 0 instructions: 840000000 cycles: 760743959 heartbeat IPC: 0.887066 cumulative IPC: 0.916495 (Simulation time: 2 hr 21 min 49 sec) 
Heartbeat CPU 2 instructions: 970000003 cycles: 764634340 heartbeat IPC: 1.20457 cumulative IPC: 1.21676 (Simulation time: 2 hr 22 min 26 sec) 
Heartbeat CPU 1 instructions: 490000001 cycles: 766046346 heartbeat IPC: 0.440663 cumulative IPC: 0.443157 (Simulation time: 2 hr 22 min 40 sec) 
Heartbeat CPU 0 instructions: 850000001 cycles: 772357058 heartbeat IPC: 0.861097 cumulative IPC: 0.915491 (Simulation time: 2 hr 23 min 42 sec) 
Heartbeat CPU 2 instructions: 980000000 cycles: 772963834 heartbeat IPC: 1.20055 cumulative IPC: 1.21655 (Simulation time: 2 hr 23 min 49 sec) 
Heartbeat CPU 3 instructions: 470000000 cycles: 779130081 heartbeat IPC: 0.407811 cumulative IPC: 0.413523 (Simulation time: 2 hr 24 min 50 sec) 
Heartbeat CPU 2 instructions: 990000003 cycles: 781292714 heartbeat IPC: 1.20064 cumulative IPC: 1.21635 (Simulation time: 2 hr 25 min 15 sec) 
Heartbeat CPU 0 instructions: 860000000 cycles: 782425945 heartbeat IPC: 0.993158 cumulative IPC: 0.916693 (Simulation time: 2 hr 25 min 25 sec) 
Heartbeat CPU 1 instructions: 500000000 cycles: 788888956 heartbeat IPC: 0.437778 cumulative IPC: 0.44297 (Simulation time: 2 hr 26 min 29 sec) 
Heartbeat CPU 2 instructions: 1000000000 cycles: 789631382 heartbeat IPC: 1.19923 cumulative IPC: 1.21613 (Simulation time: 2 hr 26 min 35 sec) 
Heartbeat CPU 0 instructions: 870000001 cycles: 793163404 heartbeat IPC: 0.931319 cumulative IPC: 0.91693 (Simulation time: 2 hr 27 min 12 sec) 
Heartbeat CPU 2 instructions: 1010000002 cycles: 797957686 heartbeat IPC: 1.20101 cumulative IPC: 1.21594 (Simulation time: 2 hr 27 min 56 sec) 
Heartbeat CPU 3 instructions: 480000000 cycles: 803632084 heartbeat IPC: 0.40813 cumulative IPC: 0.413326 (Simulation time: 2 hr 28 min 54 sec) 
Heartbeat CPU 0 instructions: 880000000 cycles: 804714339 heartbeat IPC: 0.865731 cumulative IPC: 0.916052 (Simulation time: 2 hr 29 min 4 sec) 
Heartbeat CPU 2 instructions: 1020000000 cycles: 806302174 heartbeat IPC: 1.1984 cumulative IPC: 1.21573 (Simulation time: 2 hr 29 min 23 sec) 
Heartbeat CPU 1 instructions: 510000003 cycles: 812474207 heartbeat IPC: 0.423994 cumulative IPC: 0.442313 (Simulation time: 2 hr 30 min 25 sec) 
Heartbeat CPU 0 instructions: 890000003 cycles: 814053414 heartbeat IPC: 1.07077 cumulative IPC: 0.918169 (Simulation time: 2 hr 30 min 42 sec) 
Heartbeat CPU 2 instructions: 1030000000 cycles: 814646395 heartbeat IPC: 1.19843 cumulative IPC: 1.21552 (Simulation time: 2 hr 30 min 49 sec) 
Heartbeat CPU 0 instructions: 900000000 cycles: 822359921 heartbeat IPC: 1.20388 cumulative IPC: 0.921606 (Simulation time: 2 hr 32 min 13 sec) 
Heartbeat CPU 2 instructions: 1040000000 cycles: 823042863 heartbeat IPC: 1.19098 cumulative IPC: 1.21522 (Simulation time: 2 hr 32 min 21 sec) 
Heartbeat CPU 3 instructions: 490000000 cycles: 828183772 heartbeat IPC: 0.407304 cumulative IPC: 0.413114 (Simulation time: 2 hr 33 min 20 sec) 
Heartbeat CPU 0 instructions: 910000003 cycles: 829078884 heartbeat IPC: 1.48833 cumulative IPC: 0.927067 (Simulation time: 2 hr 33 min 30 sec) 
Heartbeat CPU 2 instructions: 1050000000 cycles: 831390281 heartbeat IPC: 1.19798 cumulative IPC: 1.21501 (Simulation time: 2 hr 33 min 58 sec) 
Heartbeat CPU 1 instructions: 520000000 cycles: 835338469 heartbeat IPC: 0.437364 cumulative IPC: 0.442152 (Simulation time: 2 hr 34 min 44 sec) 
Heartbeat CPU 0 instructions: 920000000 cycles: 835536257 heartbeat IPC: 1.54862 cumulative IPC: 0.93277 (Simulation time: 2 hr 34 min 46 sec) 
Heartbeat CPU 2 instructions: 1060000000 cycles: 839746791 heartbeat IPC: 1.19667 cumulative IPC: 1.21479 (Simulation time: 2 hr 35 min 36 sec) 
Heartbeat CPU 0 instructions: 930000001 cycles: 842032479 heartbeat IPC: 1.53936 cumulative IPC: 0.938319 (Simulation time: 2 hr 36 min 3 sec) 
Heartbeat CPU 2 instructions: 1070000003 cycles: 848091324 heartbeat IPC: 1.19839 cumulative IPC: 1.2146 (Simulation time: 2 hr 37 min 15 sec) 
Heartbeat CPU 0 instructions: 940000000 cycles: 848532610 heartbeat IPC: 1.53843 cumulative IPC: 0.943761 (Simulation time: 2 hr 37 min 20 sec) 
Heartbeat CPU 3 instructions: 500000000 cycles: 852828489 heartbeat IPC: 0.405766 cumulative IPC: 0.412863 (Simulation time: 2 hr 38 min 11 sec) 
Heartbeat CPU 0 instructions: 950000002 cycles: 855033895 heartbeat IPC: 1.53816 cumulative IPC: 0.949104 (Simulation time: 2 hr 38 min 37 sec) 
Heartbeat CPU 2 instructions: 1080000000 cycles: 856437946 heartbeat IPC: 1.19809 cumulative IPC: 1.21441 (Simulation time: 2 hr 38 min 54 sec) 
Heartbeat CPU 1 instructions: 530000000 cycles: 856879233 heartbeat IPC: 0.464236 cumulative IPC: 0.442808 (Simulation time: 2 hr 39 min 0 sec) 
Heartbeat CPU 0 instructions: 960000000 cycles: 861513721 heartbeat IPC: 1.54325 cumulative IPC: 0.95438 (Simulation time: 2 hr 39 min 55 sec) 
Heartbeat CPU 2 instructions: 1090000000 cycles: 864792194 heartbeat IPC: 1.197 cumulative IPC: 1.21422 (Simulation time: 2 hr 40 min 34 sec) 
Heartbeat CPU 0 instructions: 970000001 cycles: 867982479 heartbeat IPC: 1.54589 cumulative IPC: 0.959578 (Simulation time: 2 hr 41 min 11 sec) 
Heartbeat CPU 2 instructions: 1100000000 cycles: 873141250 heartbeat IPC: 1.19774 cumulative IPC: 1.21403 (Simulation time: 2 hr 42 min 12 sec) 
Heartbeat CPU 0 instructions: 980000000 cycles: 874470110 heartbeat IPC: 1.54139 cumulative IPC: 0.964661 (Simulation time: 2 hr 42 min 28 sec) 
Heartbeat CPU 3 instructions: 510000000 cycles: 877651459 heartbeat IPC: 0.402853 cumulative IPC: 0.41253 (Simulation time: 2 hr 43 min 6 sec) 
Heartbeat CPU 1 instructions: 540000000 cycles: 878098232 heartbeat IPC: 0.471276 cumulative IPC: 0.443617 (Simulation time: 2 hr 43 min 11 sec) 
Heartbeat CPU 0 instructions: 990000000 cycles: 880937973 heartbeat IPC: 1.54611 cumulative IPC: 0.969681 (Simulation time: 2 hr 43 min 44 sec) 
Heartbeat CPU 2 instructions: 1110000000 cycles: 881493883 heartbeat IPC: 1.19723 cumulative IPC: 1.21384 (Simulation time: 2 hr 43 min 51 sec) 
Heartbeat CPU 0 instructions: 1000000000 cycles: 887325030 heartbeat IPC: 1.56567 cumulative IPC: 0.974719 (Simulation time: 2 hr 45 min 0 sec) 
Heartbeat CPU 2 instructions: 1120000000 cycles: 889857263 heartbeat IPC: 1.19569 cumulative IPC: 1.21364 (Simulation time: 2 hr 45 min 30 sec) 
Heartbeat CPU 0 instructions: 1010000000 cycles: 893742930 heartbeat IPC: 1.55814 cumulative IPC: 0.979633 (Simulation time: 2 hr 46 min 16 sec) 
Heartbeat CPU 2 instructions: 1130000001 cycles: 898220312 heartbeat IPC: 1.19574 cumulative IPC: 1.21345 (Simulation time: 2 hr 47 min 9 sec) 
Heartbeat CPU 0 instructions: 1020000000 cycles: 900167993 heartbeat IPC: 1.5564 cumulative IPC: 0.984456 (Simulation time: 2 hr 47 min 32 sec) 
Heartbeat CPU 1 instructions: 550000001 cycles: 900502050 heartbeat IPC: 0.446353 cumulative IPC: 0.443697 (Simulation time: 2 hr 47 min 36 sec) 
Heartbeat CPU 3 instructions: 520000000 cycles: 902577448 heartbeat IPC: 0.401188 cumulative IPC: 0.412163 (Simulation time: 2 hr 48 min 0 sec) 
Heartbeat CPU 2 instructions: 1140000000 cycles: 906578770 heartbeat IPC: 1.19639 cumulative IPC: 1.21326 (Simulation time: 2 hr 48 min 47 sec) 
Heartbeat CPU 0 instructions: 1030000001 cycles: 906598106 heartbeat IPC: 1.55518 cumulative IPC: 0.989193 (Simulation time: 2 hr 48 min 48 sec) 
Heartbeat CPU 0 instructions: 1040000000 cycles: 912995909 heartbeat IPC: 1.56304 cumulative IPC: 0.993893 (Simulation time: 2 hr 50 min 3 sec) 
Heartbeat CPU 2 instructions: 1150000001 cycles: 914954630 heartbeat IPC: 1.19391 cumulative IPC: 1.21306 (Simulation time: 2 hr 50 min 26 sec) 
Heartbeat CPU 0 instructions: 1050000003 cycles: 919419138 heartbeat IPC: 1.55685 cumulative IPC: 0.998484 (Simulation time: 2 hr 51 min 19 sec) 
Heartbeat CPU 1 instructions: 560000000 cycles: 922898655 heartbeat IPC: 0.446496 cumulative IPC: 0.443776 (Simulation time: 2 hr 52 min 0 sec) 
Heartbeat CPU 2 instructions: 1160000000 cycles: 923312205 heartbeat IPC: 1.19652 cumulative IPC: 1.21288 (Simulation time: 2 hr 52 min 5 sec) 
Heartbeat CPU 0 instructions: 1060000000 cycles: 925850784 heartbeat IPC: 1.55481 cumulative IPC: 1.00299 (Simulation time: 2 hr 52 min 35 sec) 
Heartbeat CPU 3 instructions: 530000000 cycles: 927646894 heartbeat IPC: 0.398892 cumulative IPC: 0.411745 (Simulation time: 2 hr 52 min 56 sec) 
Heartbeat CPU 2 instructions: 1170000001 cycles: 931408218 heartbeat IPC: 1.23518 cumulative IPC: 1.21311 (Simulation time: 2 hr 53 min 34 sec) 
Heartbeat CPU 0 instructions: 1070000000 cycles: 934767126 heartbeat IPC: 1.12154 cumulative IPC: 1.00431 (Simulation time: 2 hr 54 min 7 sec) 
Heartbeat CPU 2 instructions: 1180000000 cycles: 938734108 heartbeat IPC: 1.36502 cumulative IPC: 1.21449 (Simulation time: 2 hr 54 min 48 sec) 
Heartbeat CPU 0 instructions: 1080000000 cycles: 942461484 heartbeat IPC: 1.29965 cumulative IPC: 1.00711 (Simulation time: 2 hr 55 min 28 sec) 
Heartbeat CPU 2 instructions: 1190000001 cycles: 946003320 heartbeat IPC: 1.37567 cumulative IPC: 1.21593 (Simulation time: 2 hr 56 min 6 sec) 
Heartbeat CPU 1 instructions: 570000002 cycles: 946145057 heartbeat IPC: 0.430174 cumulative IPC: 0.443388 (Simulation time: 2 hr 56 min 7 sec) 
Heartbeat CPU 0 instructions: 1090000000 cycles: 950741470 heartbeat IPC: 1.20773 cumulative IPC: 1.00914 (Simulation time: 2 hr 56 min 53 sec) 
Heartbeat CPU 3 instructions: 540000000 cycles: 952906732 heartbeat IPC: 0.395885 cumulative IPC: 0.411257 (Simulation time: 2 hr 57 min 14 sec) 
Heartbeat CPU 2 instructions: 1200000000 cycles: 953869762 heartbeat IPC: 1.27122 cumulative IPC: 1.21645 (Simulation time: 2 hr 57 min 24 sec) 
Finished CPU 2 instructions: 1000000000 cycles: 822061341 cumulative IPC: 1.21645 (Simulation time: 2 hr 57 min 24 sec) 
Heartbeat CPU 0 instructions: 1100000000 cycles: 958803190 heartbeat IPC: 1.24043 cumulative IPC: 1.01139 (Simulation time: 2 hr 58 min 18 sec) 
Heartbeat CPU 2 instructions: 1210000001 cycles: 962406390 heartbeat IPC: 1.17142 cumulative IPC: 1.21599 (Simulation time: 2 hr 58 min 59 sec) 
Heartbeat CPU 0 instructions: 1110000001 cycles: 965573407 heartbeat IPC: 1.47706 cumulative IPC: 1.01517 (Simulation time: 2 hr 59 min 37 sec) 
Heartbeat CPU 1 instructions: 580000000 cycles: 968987538 heartbeat IPC: 0.437781 cumulative IPC: 0.443235 (Simulation time: 3 hr 0 min 17 sec) 
Heartbeat CPU 2 instructions: 1220000000 cycles: 970785927 heartbeat IPC: 1.19338 cumulative IPC: 1.21577 (Simulation time: 3 hr 0 min 38 sec) 
Heartbeat CPU 0 instructions: 1120000000 cycles: 972031359 heartbeat IPC: 1.54848 cumulative IPC: 1.01927 (Simulation time: 3 hr 0 min 53 sec) 
Heartbeat CPU 3 instructions: 550000002 cycles: 978187200 heartbeat IPC: 0.395562 cumulative IPC: 0.410788 (Simulation time: 3 hr 2 min 6 sec) 
Heartbeat CPU 0 instructions: 1130000001 cycles: 978536858 heartbeat IPC: 1.53716 cumulative IPC: 1.02325 (Simulation time: 3 hr 2 min 10 sec) 
Heartbeat CPU 2 instructions: 1230000001 cycles: 979152125 heartbeat IPC: 1.19529 cumulative IPC: 1.21556 (Simulation time: 3 hr 2 min 17 sec) 
Heartbeat CPU 0 instructions: 1140000000 cycles: 985037917 heartbeat IPC: 1.53821 cumulative IPC: 1.02718 (Simulation time: 3 hr 3 min 27 sec) 
Heartbeat CPU 2 instructions: 1240000000 cycles: 987509698 heartbeat IPC: 1.19652 cumulative IPC: 1.21538 (Simulation time: 3 hr 3 min 56 sec) 
Heartbeat CPU 0 instructions: 1150000002 cycles: 991537779 heartbeat IPC: 1.53849 cumulative IPC: 1.03104 (Simulation time: 3 hr 4 min 44 sec) 
Heartbeat CPU 1 instructions: 590000001 cycles: 991984215 heartbeat IPC: 0.434845 cumulative IPC: 0.443011 (Simulation time: 3 hr 4 min 49 sec) 
Heartbeat CPU 2 instructions: 1250000000 cycles: 995885939 heartbeat IPC: 1.19385 cumulative IPC: 1.21517 (Simulation time: 3 hr 5 min 35 sec) 
Heartbeat CPU 0 instructions: 1160000000 cycles: 998024027 heartbeat IPC: 1.54172 cumulative IPC: 1.03487 (Simulation time: 3 hr 6 min 1 sec) 
Heartbeat CPU 3 instructions: 560000000 cycles: 1003116456 heartbeat IPC: 0.401135 cumulative IPC: 0.410512 (Simulation time: 3 hr 7 min 2 sec) 
Heartbeat CPU 2 instructions: 1260000000 cycles: 1004249398 heartbeat IPC: 1.19568 cumulative IPC: 1.21498 (Simulation time: 3 hr 7 min 15 sec) 
Heartbeat CPU 0 instructions: 1170000002 cycles: 1004489757 heartbeat IPC: 1.54662 cumulative IPC: 1.03866 (Simulation time: 3 hr 7 min 18 sec) 
Heartbeat CPU 0 instructions: 1180000000 cycles: 1010984268 heartbeat IPC: 1.53976 cumulative IPC: 1.04236 (Simulation time: 3 hr 8 min 35 sec) 
Heartbeat CPU 2 instructions: 1270000003 cycles: 1012611734 heartbeat IPC: 1.19584 cumulative IPC: 1.2148 (Simulation time: 3 hr 8 min 55 sec) 
Heartbeat CPU 1 instructions: 600000000 cycles: 1014622274 heartbeat IPC: 0.441734 cumulative IPC: 0.442978 (Simulation time: 3 hr 9 min 19 sec) 
Heartbeat CPU 0 instructions: 1190000001 cycles: 1017438094 heartbeat IPC: 1.54947 cumulative IPC: 1.04605 (Simulation time: 3 hr 9 min 53 sec) 
Heartbeat CPU 2 instructions: 1280000000 cycles: 1020978717 heartbeat IPC: 1.19517 cumulative IPC: 1.21462 (Simulation time: 3 hr 10 min 35 sec) 
Heartbeat CPU 0 instructions: 1200000000 cycles: 1023823753 heartbeat IPC: 1.56601 cumulative IPC: 1.04978 (Simulation time: 3 hr 11 min 9 sec) 
Heartbeat CPU 3 instructions: 570000002 cycles: 1026986828 heartbeat IPC: 0.418929 cumulative IPC: 0.410736 (Simulation time: 3 hr 11 min 47 sec) 
Heartbeat CPU 2 instructions: 1290000000 cycles: 1029355381 heartbeat IPC: 1.19379 cumulative IPC: 1.21442 (Simulation time: 3 hr 12 min 16 sec) 
Heartbeat CPU 0 instructions: 1210000001 cycles: 1030256800 heartbeat IPC: 1.55447 cumulative IPC: 1.05339 (Simulation time: 3 hr 12 min 26 sec) 
Heartbeat CPU 1 instructions: 610000000 cycles: 1036639095 heartbeat IPC: 0.454198 cumulative IPC: 0.443251 (Simulation time: 3 hr 13 min 43 sec) 
Heartbeat CPU 0 instructions: 1220000000 cycles: 1036682496 heartbeat IPC: 1.55625 cumulative IPC: 1.05696 (Simulation time: 3 hr 13 min 44 sec) 
Heartbeat CPU 2 instructions: 1300000000 cycles: 1037715463 heartbeat IPC: 1.19616 cumulative IPC: 1.21425 (Simulation time: 3 hr 13 min 56 sec) 
Heartbeat CPU 0 instructions: 1230000003 cycles: 1043102643 heartbeat IPC: 1.5576 cumulative IPC: 1.06049 (Simulation time: 3 hr 15 min 1 sec) 
Heartbeat CPU 2 instructions: 1310000000 cycles: 1046069440 heartbeat IPC: 1.19703 cumulative IPC: 1.2141 (Simulation time: 3 hr 15 min 37 sec) 
Heartbeat CPU 0 instructions: 1240000000 cycles: 1049487072 heartbeat IPC: 1.56631 cumulative IPC: 1.06401 (Simulation time: 3 hr 16 min 18 sec) 
Heartbeat CPU 3 instructions: 580000000 cycles: 1050364452 heartbeat IPC: 0.427759 cumulative IPC: 0.41117 (Simulation time: 3 hr 16 min 28 sec) 
Heartbeat CPU 2 instructions: 1320000000 cycles: 1054432050 heartbeat IPC: 1.1958 cumulative IPC: 1.21393 (Simulation time: 3 hr 17 min 17 sec) 
Heartbeat CPU 0 instructions: 1250000001 cycles: 1055897913 heartbeat IPC: 1.55986 cumulative IPC: 1.06745 (Simulation time: 3 hr 17 min 35 sec) 
Heartbeat CPU 1 instructions: 620000000 cycles: 1059603088 heartbeat IPC: 0.435464 cumulative IPC: 0.443058 (Simulation time: 3 hr 18 min 19 sec) 
Heartbeat CPU 0 instructions: 1260000000 cycles: 1062323491 heartbeat IPC: 1.55628 cumulative IPC: 1.07082 (Simulation time: 3 hr 18 min 52 sec) 
Heartbeat CPU 2 instructions: 1330000002 cycles: 1062785799 heartbeat IPC: 1.19707 cumulative IPC: 1.21378 (Simulation time: 3 hr 18 min 58 sec) 
Finished CPU 0 instructions: 1000000001 cycles: 933141924 cumulative IPC: 1.07165 (Simulation time: 3 hr 19 min 23 sec) 
Heartbeat CPU 2 instructions: 1340000000 cycles: 1071223143 heartbeat IPC: 1.18521 cumulative IPC: 1.21352 (Simulation time: 3 hr 20 min 29 sec) 
Heartbeat CPU 0 instructions: 1270000001 cycles: 1071408275 heartbeat IPC: 1.10074 cumulative IPC: 1.07111 (Simulation time: 3 hr 20 min 31 sec) 
Heartbeat CPU 3 instructions: 590000000 cycles: 1073921169 heartbeat IPC: 0.424507 cumulative IPC: 0.411503 (Simulation time: 3 hr 21 min 0 sec) 
Heartbeat CPU 0 instructions: 1280000000 cycles: 1079004940 heartbeat IPC: 1.31637 cumulative IPC: 1.07308 (Simulation time: 3 hr 21 min 57 sec) 
Heartbeat CPU 2 instructions: 1350000002 cycles: 1079720279 heartbeat IPC: 1.17687 cumulative IPC: 1.21319 (Simulation time: 3 hr 22 min 6 sec) 
Heartbeat CPU 1 instructions: 630000000 cycles: 1082170876 heartbeat IPC: 0.443109 cumulative IPC: 0.44306 (Simulation time: 3 hr 22 min 34 sec) 
Heartbeat CPU 0 instructions: 1290000000 cycles: 1087448074 heartbeat IPC: 1.18439 cumulative IPC: 1.07406 (Simulation time: 3 hr 23 min 30 sec) 
Heartbeat CPU 2 instructions: 1360000000 cycles: 1088236053 heartbeat IPC: 1.17429 cumulative IPC: 1.21285 (Simulation time: 3 hr 23 min 39 sec) 
Heartbeat CPU 0 instructions: 1300000000 cycles: 1094951954 heartbeat IPC: 1.33264 cumulative IPC: 1.07608 (Simulation time: 3 hr 24 min 54 sec) 
Heartbeat CPU 2 instructions: 1370000003 cycles: 1096639191 heartbeat IPC: 1.19003 cumulative IPC: 1.21265 (Simulation time: 3 hr 25 min 13 sec) 
Heartbeat CPU 3 instructions: 600000000 cycles: 1097821073 heartbeat IPC: 0.418412 cumulative IPC: 0.411674 (Simulation time: 3 hr 25 min 27 sec) 
Heartbeat CPU 0 instructions: 1310000003 cycles: 1101614034 heartbeat IPC: 1.50103 cumulative IPC: 1.079 (Simulation time: 3 hr 26 min 12 sec) 
Heartbeat CPU 2 instructions: 1380000000 cycles: 1105003386 heartbeat IPC: 1.19557 cumulative IPC: 1.2125 (Simulation time: 3 hr 26 min 52 sec) 
Heartbeat CPU 1 instructions: 640000000 cycles: 1105048235 heartbeat IPC: 0.437113 cumulative IPC: 0.44292 (Simulation time: 3 hr 26 min 53 sec) 
Heartbeat CPU 0 instructions: 1320000000 cycles: 1108089384 heartbeat IPC: 1.54432 cumulative IPC: 1.08208 (Simulation time: 3 hr 27 min 29 sec) 
Heartbeat CPU 2 instructions: 1390000002 cycles: 1113378327 heartbeat IPC: 1.19404 cumulative IPC: 1.21234 (Simulation time: 3 hr 28 min 32 sec) 
Heartbeat CPU 0 instructions: 1330000001 cycles: 1114600473 heartbeat IPC: 1.53584 cumulative IPC: 1.08509 (Simulation time: 3 hr 28 min 46 sec) 
Heartbeat CPU 0 instructions: 1340000000 cycles: 1121100343 heartbeat IPC: 1.53849 cumulative IPC: 1.08807 (Simulation time: 3 hr 30 min 3 sec) 
Heartbeat CPU 2 instructions: 1400000000 cycles: 1121733410 heartbeat IPC: 1.19688 cumulative IPC: 1.21221 (Simulation time: 3 hr 30 min 11 sec) 
Heartbeat CPU 3 instructions: 610000000 cycles: 1121900170 heartbeat IPC: 0.415298 cumulative IPC: 0.411762 (Simulation time: 3 hr 30 min 13 sec) 
Heartbeat CPU 0 instructions: 1350000003 cycles: 1127594681 heartbeat IPC: 1.5398 cumulative IPC: 1.09101 (Simulation time: 3 hr 31 min 21 sec) 
Heartbeat CPU 1 instructions: 650000000 cycles: 1127755714 heartbeat IPC: 0.440384 cumulative IPC: 0.442862 (Simulation time: 3 hr 31 min 23 sec) 
Heartbeat CPU 2 instructions: 1410000003 cycles: 1130100115 heartbeat IPC: 1.19521 cumulative IPC: 1.21207 (Simulation time: 3 hr 31 min 51 sec) 
Heartbeat CPU 0 instructions: 1360000000 cycles: 1134074892 heartbeat IPC: 1.54316 cumulative IPC: 1.09394 (Simulation time: 3 hr 32 min 38 sec) 
Heartbeat CPU 2 instructions: 1420000000 cycles: 1138465648 heartbeat IPC: 1.19538 cumulative IPC: 1.21193 (Simulation time: 3 hr 33 min 31 sec) 
Heartbeat CPU 0 instructions: 1370000001 cycles: 1140541290 heartbeat IPC: 1.54646 cumulative IPC: 1.09684 (Simulation time: 3 hr 33 min 56 sec) 
Heartbeat CPU 3 instructions: 620000000 cycles: 1145951082 heartbeat IPC: 0.415785 cumulative IPC: 0.411858 (Simulation time: 3 hr 35 min 0 sec) 
Heartbeat CPU 2 instructions: 1430000000 cycles: 1146822132 heartbeat IPC: 1.19668 cumulative IPC: 1.21181 (Simulation time: 3 hr 35 min 10 sec) 
Heartbeat CPU 0 instructions: 1380000000 cycles: 1147033293 heartbeat IPC: 1.54036 cumulative IPC: 1.09967 (Simulation time: 3 hr 35 min 13 sec) 
Heartbeat CPU 1 instructions: 660000000 cycles: 1150603750 heartbeat IPC: 0.437674 cumulative IPC: 0.442746 (Simulation time: 3 hr 35 min 55 sec) 
Heartbeat CPU 0 instructions: 1390000001 cycles: 1153466928 heartbeat IPC: 1.55433 cumulative IPC: 1.10254 (Simulation time: 3 hr 36 min 29 sec) 
Heartbeat CPU 2 instructions: 1440000000 cycles: 1155171218 heartbeat IPC: 1.19774 cumulative IPC: 1.21169 (Simulation time: 3 hr 36 min 50 sec) 
Heartbeat CPU 0 instructions: 1400000000 cycles: 1159847792 heartbeat IPC: 1.56719 cumulative IPC: 1.10542 (Simulation time: 3 hr 37 min 46 sec) 
Heartbeat CPU 2 instructions: 1450000000 cycles: 1163544542 heartbeat IPC: 1.19427 cumulative IPC: 1.21155 (Simulation time: 3 hr 38 min 30 sec) 
Heartbeat CPU 0 instructions: 1410000002 cycles: 1166272330 heartbeat IPC: 1.55653 cumulative IPC: 1.10822 (Simulation time: 3 hr 39 min 3 sec) 
Heartbeat CPU 3 instructions: 630000000 cycles: 1169999182 heartbeat IPC: 0.415833 cumulative IPC: 0.41195 (Simulation time: 3 hr 39 min 47 sec) 
Heartbeat CPU 2 instructions: 1460000000 cycles: 1171906121 heartbeat IPC: 1.19595 cumulative IPC: 1.21142 (Simulation time: 3 hr 40 min 10 sec) 
Heartbeat CPU 0 instructions: 1420000000 cycles: 1172686783 heartbeat IPC: 1.55898 cumulative IPC: 1.111 (Simulation time: 3 hr 40 min 19 sec) 
Heartbeat CPU 1 instructions: 670000000 cycles: 1173655271 heartbeat IPC: 0.433811 cumulative IPC: 0.442548 (Simulation time: 3 hr 40 min 31 sec) 
Heartbeat CPU 0 instructions: 1430000000 cycles: 1179121166 heartbeat IPC: 1.55415 cumulative IPC: 1.11372 (Simulation time: 3 hr 41 min 36 sec) 
Heartbeat CPU 2 instructions: 1470000002 cycles: 1180285768 heartbeat IPC: 1.19337 cumulative IPC: 1.21128 (Simulation time: 3 hr 41 min 50 sec) 
Heartbeat CPU 0 instructions: 1440000000 cycles: 1185503135 heartbeat IPC: 1.56691 cumulative IPC: 1.11647 (Simulation time: 3 hr 42 min 52 sec) 
Heartbeat CPU 2 instructions: 1480000000 cycles: 1188640017 heartbeat IPC: 1.197 cumulative IPC: 1.21117 (Simulation time: 3 hr 43 min 29 sec) 
Heartbeat CPU 0 instructions: 1450000000 cycles: 1191915030 heartbeat IPC: 1.5596 cumulative IPC: 1.11915 (Simulation time: 3 hr 44 min 9 sec) 
Heartbeat CPU 3 instructions: 640000000 cycles: 1193780723 heartbeat IPC: 0.420494 cumulative IPC: 0.412141 (Simulation time: 3 hr 44 min 31 sec) 
Heartbeat CPU 2 instructions: 1490000000 cycles: 1196995196 heartbeat IPC: 1.19686 cumulative IPC: 1.21106 (Simulation time: 3 hr 45 min 9 sec) 
Heartbeat CPU 1 instructions: 680000000 cycles: 1197114957 heartbeat IPC: 0.426263 cumulative IPC: 0.442189 (Simulation time: 3 hr 45 min 11 sec) 
Heartbeat CPU 0 instructions: 1460000000 cycles: 1198326368 heartbeat IPC: 1.55974 cumulative IPC: 1.1218 (Simulation time: 3 hr 45 min 25 sec) 
Heartbeat CPU 2 instructions: 1500000000 cycles: 1205435433 heartbeat IPC: 1.1848 cumulative IPC: 1.21085 (Simulation time: 3 hr 46 min 42 sec) 
Heartbeat CPU 0 instructions: 1470000002 cycles: 1207614352 heartbeat IPC: 1.07666 cumulative IPC: 1.12141 (Simulation time: 3 hr 47 min 6 sec) 
Heartbeat CPU 2 instructions: 1510000001 cycles: 1213912845 heartbeat IPC: 1.17961 cumulative IPC: 1.2106 (Simulation time: 3 hr 48 min 18 sec) 
Heartbeat CPU 0 instructions: 1480000000 cycles: 1215079786 heartbeat IPC: 1.33951 cumulative IPC: 1.12291 (Simulation time: 3 hr 48 min 32 sec) 
Heartbeat CPU 3 instructions: 650000002 cycles: 1217312492 heartbeat IPC: 0.424958 cumulative IPC: 0.412419 (Simulation time: 3 hr 48 min 58 sec) 
Heartbeat CPU 1 instructions: 690000000 cycles: 1219982684 heartbeat IPC: 0.437297 cumulative IPC: 0.442086 (Simulation time: 3 hr 49 min 27 sec) 
Heartbeat CPU 2 instructions: 1520000000 cycles: 1222454123 heartbeat IPC: 1.17078 cumulative IPC: 1.21029 (Simulation time: 3 hr 49 min 54 sec) 
Heartbeat CPU 0 instructions: 1490000002 cycles: 1223808540 heartbeat IPC: 1.14564 cumulative IPC: 1.12309 (Simulation time: 3 hr 50 min 8 sec) 
Heartbeat CPU 2 instructions: 1530000003 cycles: 1230863066 heartbeat IPC: 1.18921 cumulative IPC: 1.21013 (Simulation time: 3 hr 51 min 28 sec) 
Heartbeat CPU 0 instructions: 1500000000 cycles: 1231091599 heartbeat IPC: 1.37305 cumulative IPC: 1.12475 (Simulation time: 3 hr 51 min 31 sec) 
Heartbeat CPU 0 instructions: 1510000002 cycles: 1237621070 heartbeat IPC: 1.53152 cumulative IPC: 1.12715 (Simulation time: 3 hr 52 min 49 sec) 
Heartbeat CPU 2 instructions: 1540000000 cycles: 1239228364 heartbeat IPC: 1.19541 cumulative IPC: 1.21002 (Simulation time: 3 hr 53 min 8 sec) 
Heartbeat CPU 3 instructions: 660000000 cycles: 1240613418 heartbeat IPC: 0.429167 cumulative IPC: 0.412771 (Simulation time: 3 hr 53 min 25 sec) 
Heartbeat CPU 1 instructions: 700000000 cycles: 1243564675 heartbeat IPC: 0.424052 cumulative IPC: 0.441704 (Simulation time: 3 hr 54 min 0 sec) 
Heartbeat CPU 0 instructions: 1520000000 cycles: 1244097298 heartbeat IPC: 1.54411 cumulative IPC: 1.12958 (Simulation time: 3 hr 54 min 6 sec) 
Heartbeat CPU 2 instructions: 1550000000 cycles: 1247597638 heartbeat IPC: 1.19485 cumulative IPC: 1.20991 (Simulation time: 3 hr 54 min 48 sec) 
Heartbeat CPU 0 instructions: 1530000001 cycles: 1250602279 heartbeat IPC: 1.53728 cumulative IPC: 1.13195 (Simulation time: 3 hr 55 min 24 sec) 
Heartbeat CPU 2 instructions: 1560000000 cycles: 1255766700 heartbeat IPC: 1.22413 cumulative IPC: 1.21001 (Simulation time: 3 hr 56 min 26 sec) 
Heartbeat CPU 0 instructions: 1540000000 cycles: 1257100598 heartbeat IPC: 1.53886 cumulative IPC: 1.1343 (Simulation time: 3 hr 56 min 41 sec) 
Heartbeat CPU 2 instructions: 1570000002 cycles: 1262394458 heartbeat IPC: 1.50881 cumulative IPC: 1.21176 (Simulation time: 3 hr 57 min 42 sec) 
Heartbeat CPU 0 instructions: 1550000001 cycles: 1263597149 heartbeat IPC: 1.53928 cumulative IPC: 1.13662 (Simulation time: 3 hr 57 min 56 sec) 
Heartbeat CPU 3 instructions: 670000000 cycles: 1263821240 heartbeat IPC: 0.430889 cumulative IPC: 0.413142 (Simulation time: 3 hr 57 min 58 sec) 
Heartbeat CPU 1 instructions: 710000003 cycles: 1266852531 heartbeat IPC: 0.429408 cumulative IPC: 0.441452 (Simulation time: 3 hr 58 min 33 sec) 
Heartbeat CPU 2 instructions: 1580000000 cycles: 1269246396 heartbeat IPC: 1.45944 cumulative IPC: 1.21325 (Simulation time: 3 hr 59 min 1 sec) 
Heartbeat CPU 0 instructions: 1560000000 cycles: 1270075553 heartbeat IPC: 1.54359 cumulative IPC: 1.13894 (Simulation time: 3 hr 59 min 10 sec) 
Heartbeat CPU 0 instructions: 1570000002 cycles: 1276573878 heartbeat IPC: 1.53886 cumulative IPC: 1.14121 (Simulation time: 4 hr 0 min 24 sec) 
Heartbeat CPU 2 instructions: 1590000002 cycles: 1277500382 heartbeat IPC: 1.21154 cumulative IPC: 1.21324 (Simulation time: 4 hr 0 min 34 sec) 
Heartbeat CPU 0 instructions: 1580000000 cycles: 1283106897 heartbeat IPC: 1.53069 cumulative IPC: 1.14342 (Simulation time: 4 hr 1 min 38 sec) 
Heartbeat CPU 2 instructions: 1600000000 cycles: 1285938214 heartbeat IPC: 1.18514 cumulative IPC: 1.21304 (Simulation time: 4 hr 2 min 10 sec) 
Heartbeat CPU 3 instructions: 680000000 cycles: 1287089890 heartbeat IPC: 0.429763 cumulative IPC: 0.413477 (Simulation time: 4 hr 2 min 23 sec) 
Heartbeat CPU 0 instructions: 1590000000 cycles: 1289547230 heartbeat IPC: 1.55271 cumulative IPC: 1.1457 (Simulation time: 4 hr 2 min 51 sec) 
Heartbeat CPU 1 instructions: 720000000 cycles: 1290037095 heartbeat IPC: 0.431321 cumulative IPC: 0.441249 (Simulation time: 4 hr 2 min 56 sec) 
Heartbeat CPU 2 instructions: 1610000003 cycles: 1294099630 heartbeat IPC: 1.22528 cumulative IPC: 1.21312 (Simulation time: 4 hr 3 min 42 sec) 
Heartbeat CPU 0 instructions: 1600000000 cycles: 1295954119 heartbeat IPC: 1.56082 cumulative IPC: 1.14798 (Simulation time: 4 hr 4 min 3 sec) 
Heartbeat CPU 2 instructions: 1620000000 cycles: 1300433207 heartbeat IPC: 1.57889 cumulative IPC: 1.2151 (Simulation time: 4 hr 4 min 54 sec) 
Heartbeat CPU 0 instructions: 1610000000 cycles: 1302396375 heartbeat IPC: 1.55225 cumulative IPC: 1.15021 (Simulation time: 4 hr 5 min 16 sec) 
Heartbeat CPU 2 instructions: 1630000002 cycles: 1307401758 heartbeat IPC: 1.43502 cumulative IPC: 1.21641 (Simulation time: 4 hr 6 min 12 sec) 
Heartbeat CPU 0 instructions: 1620000000 cycles: 1308817361 heartbeat IPC: 1.55739 cumulative IPC: 1.15243 (Simulation time: 4 hr 6 min 28 sec) 
Heartbeat CPU 3 instructions: 690000001 cycles: 1310918785 heartbeat IPC: 0.419659 cumulative IPC: 0.413602 (Simulation time: 4 hr 6 min 52 sec) 
Heartbeat CPU 1 instructions: 730000001 cycles: 1313126911 heartbeat IPC: 0.433091 cumulative IPC: 0.441089 (Simulation time: 4 hr 7 min 16 sec) 
Heartbeat CPU 2 instructions: 1640000000 cycles: 1314938277 heartbeat IPC: 1.32687 cumulative IPC: 1.21711 (Simulation time: 4 hr 7 min 36 sec) 
Heartbeat CPU 0 instructions: 1630000000 cycles: 1315252139 heartbeat IPC: 1.55406 cumulative IPC: 1.15461 (Simulation time: 4 hr 7 min 40 sec) 
Heartbeat CPU 0 instructions: 1640000000 cycles: 1321689733 heartbeat IPC: 1.55338 cumulative IPC: 1.15677 (Simulation time: 4 hr 8 min 51 sec) 
Heartbeat CPU 2 instructions: 1650000000 cycles: 1323437392 heartbeat IPC: 1.17659 cumulative IPC: 1.21682 (Simulation time: 4 hr 9 min 10 sec) 
Heartbeat CPU 0 instructions: 1650000003 cycles: 1328163131 heartbeat IPC: 1.54478 cumulative IPC: 1.15887 (Simulation time: 4 hr 10 min 1 sec) 
Heartbeat CPU 2 instructions: 1660000000 cycles: 1332027049 heartbeat IPC: 1.16419 cumulative IPC: 1.21645 (Simulation time: 4 hr 10 min 45 sec) 
Heartbeat CPU 0 instructions: 1660000000 cycles: 1334699996 heartbeat IPC: 1.52978 cumulative IPC: 1.16088 (Simulation time: 4 hr 11 min 17 sec) 
Heartbeat CPU 3 instructions: 700000000 cycles: 1335776252 heartbeat IPC: 0.402294 cumulative IPC: 0.413368 (Simulation time: 4 hr 11 min 28 sec) 
Heartbeat CPU 1 instructions: 740000000 cycles: 1336611994 heartbeat IPC: 0.425802 cumulative IPC: 0.440791 (Simulation time: 4 hr 11 min 36 sec) 
Heartbeat CPU 2 instructions: 1670000000 cycles: 1340556340 heartbeat IPC: 1.17243 cumulative IPC: 1.21613 (Simulation time: 4 hr 12 min 17 sec) 
Heartbeat CPU 0 instructions: 1670000000 cycles: 1344108204 heartbeat IPC: 1.0629 cumulative IPC: 1.16012 (Simulation time: 4 hr 12 min 57 sec) 
Heartbeat CPU 2 instructions: 1680000000 cycles: 1349033863 heartbeat IPC: 1.17959 cumulative IPC: 1.21588 (Simulation time: 4 hr 13 min 52 sec) 
Heartbeat CPU 0 instructions: 1680000000 cycles: 1351599231 heartbeat IPC: 1.33493 cumulative IPC: 1.1612 (Simulation time: 4 hr 14 min 22 sec) 
Heartbeat CPU 2 instructions: 1690000003 cycles: 1357549880 heartbeat IPC: 1.17426 cumulative IPC: 1.21559 (Simulation time: 4 hr 15 min 26 sec) 
Heartbeat CPU 1 instructions: 750000003 cycles: 1359591899 heartbeat IPC: 0.435163 cumulative IPC: 0.440686 (Simulation time: 4 hr 15 min 48 sec) 
Heartbeat CPU 0 instructions: 1690000003 cycles: 1360283137 heartbeat IPC: 1.15156 cumulative IPC: 1.16113 (Simulation time: 4 hr 15 min 56 sec) 
Heartbeat CPU 3 instructions: 710000000 cycles: 1360930101 heartbeat IPC: 0.397553 cumulative IPC: 0.413045 (Simulation time: 4 hr 16 min 3 sec) 
Heartbeat CPU 2 instructions: 1700000000 cycles: 1365970980 heartbeat IPC: 1.18749 cumulative IPC: 1.2154 (Simulation time: 4 hr 16 min 59 sec) 
Heartbeat CPU 0 instructions: 1700000000 cycles: 1367463362 heartbeat IPC: 1.39271 cumulative IPC: 1.16247 (Simulation time: 4 hr 17 min 16 sec) 
Heartbeat CPU 0 instructions: 1710000003 cycles: 1373876723 heartbeat IPC: 1.55925 cumulative IPC: 1.16452 (Simulation time: 4 hr 18 min 31 sec) 
Heartbeat CPU 2 instructions: 1710000000 cycles: 1374320240 heartbeat IPC: 1.19771 cumulative IPC: 1.21528 (Simulation time: 4 hr 18 min 37 sec) 
Heartbeat CPU 0 instructions: 1720000000 cycles: 1380356697 heartbeat IPC: 1.54322 cumulative IPC: 1.16649 (Simulation time: 4 hr 19 min 48 sec) 
Heartbeat CPU 2 instructions: 1720000000 cycles: 1382661093 heartbeat IPC: 1.19892 cumulative IPC: 1.21517 (Simulation time: 4 hr 20 min 15 sec) 
Heartbeat CPU 1 instructions: 760000000 cycles: 1382718829 heartbeat IPC: 0.432396 cumulative IPC: 0.440533 (Simulation time: 4 hr 20 min 16 sec) 
Heartbeat CPU 3 instructions: 720000000 cycles: 1385859859 heartbeat IPC: 0.401127 cumulative IPC: 0.412808 (Simulation time: 4 hr 20 min 52 sec) 
Heartbeat CPU 0 instructions: 1730000001 cycles: 1386866625 heartbeat IPC: 1.53612 cumulative IPC: 1.16841 (Simulation time: 4 hr 21 min 4 sec) 
Heartbeat CPU 2 instructions: 1730000000 cycles: 1391015839 heartbeat IPC: 1.19692 cumulative IPC: 1.21505 (Simulation time: 4 hr 21 min 53 sec) 
Heartbeat CPU 0 instructions: 1740000000 cycles: 1393365847 heartbeat IPC: 1.53865 cumulative IPC: 1.17031 (Simulation time: 4 hr 22 min 21 sec) 
Heartbeat CPU 2 instructions: 1740000000 cycles: 1399375261 heartbeat IPC: 1.19625 cumulative IPC: 1.21493 (Simulation time: 4 hr 23 min 32 sec) 
Heartbeat CPU 0 instructions: 1750000002 cycles: 1399848667 heartbeat IPC: 1.54254 cumulative IPC: 1.17222 (Simulation time: 4 hr 23 min 37 sec) 
Heartbeat CPU 1 instructions: 770000000 cycles: 1405873461 heartbeat IPC: 0.431879 cumulative IPC: 0.440376 (Simulation time: 4 hr 24 min 48 sec) 
Heartbeat CPU 0 instructions: 1760000000 cycles: 1406297536 heartbeat IPC: 1.55066 cumulative IPC: 1.17413 (Simulation time: 4 hr 24 min 53 sec) 
Heartbeat CPU 2 instructions: 1750000000 cycles: 1407734885 heartbeat IPC: 1.19623 cumulative IPC: 1.2148 (Simulation time: 4 hr 25 min 10 sec) 
Heartbeat CPU 3 instructions: 730000001 cycles: 1409992651 heartbeat IPC: 0.414374 cumulative IPC: 0.412837 (Simulation time: 4 hr 25 min 37 sec) 
Heartbeat CPU 0 instructions: 1770000001 cycles: 1412769074 heartbeat IPC: 1.54523 cumulative IPC: 1.17601 (Simulation time: 4 hr 26 min 10 sec) 
Heartbeat CPU 2 instructions: 1760000000 cycles: 1416075997 heartbeat IPC: 1.19888 cumulative IPC: 1.2147 (Simulation time: 4 hr 26 min 49 sec) 
Heartbeat CPU 0 instructions: 1780000000 cycles: 1419253378 heartbeat IPC: 1.54219 cumulative IPC: 1.17785 (Simulation time: 4 hr 27 min 27 sec) 
Heartbeat CPU 2 instructions: 1770000001 cycles: 1424420048 heartbeat IPC: 1.19846 cumulative IPC: 1.2146 (Simulation time: 4 hr 28 min 29 sec) 
Heartbeat CPU 0 instructions: 1790000000 cycles: 1425668044 heartbeat IPC: 1.55893 cumulative IPC: 1.17974 (Simulation time: 4 hr 28 min 44 sec) 
Heartbeat CPU 1 instructions: 780000000 cycles: 1428420310 heartbeat IPC: 0.443521 cumulative IPC: 0.44043 (Simulation time: 4 hr 29 min 17 sec) 
Heartbeat CPU 0 instructions: 1800000000 cycles: 1432059401 heartbeat IPC: 1.56461 cumulative IPC: 1.18163 (Simulation time: 4 hr 30 min 1 sec) 
Heartbeat CPU 3 instructions: 740000000 cycles: 1432736698 heartbeat IPC: 0.439675 cumulative IPC: 0.413307 (Simulation time: 4 hr 30 min 10 sec) 
Heartbeat CPU 2 instructions: 1780000000 cycles: 1432770344 heartbeat IPC: 1.19756 cumulative IPC: 1.21449 (Simulation time: 4 hr 30 min 10 sec) 
Heartbeat CPU 0 instructions: 1810000003 cycles: 1438483241 heartbeat IPC: 1.5567 cumulative IPC: 1.18347 (Simulation time: 4 hr 31 min 20 sec) 
Heartbeat CPU 2 instructions: 1790000000 cycles: 1441105841 heartbeat IPC: 1.19969 cumulative IPC: 1.21439 (Simulation time: 4 hr 31 min 52 sec) 
Heartbeat CPU 0 instructions: 1820000000 cycles: 1444897562 heartbeat IPC: 1.55901 cumulative IPC: 1.18531 (Simulation time: 4 hr 32 min 37 sec) 
Heartbeat CPU 1 instructions: 790000002 cycles: 1449327110 heartbeat IPC: 0.478313 cumulative IPC: 0.441031 (Simulation time: 4 hr 33 min 30 sec) 
Heartbeat CPU 2 instructions: 1800000000 cycles: 1449448537 heartbeat IPC: 1.19865 cumulative IPC: 1.21429 (Simulation time: 4 hr 33 min 31 sec) 
Heartbeat CPU 0 instructions: 1830000003 cycles: 1451304499 heartbeat IPC: 1.56081 cumulative IPC: 1.18713 (Simulation time: 4 hr 33 min 53 sec) 
Heartbeat CPU 3 instructions: 750000002 cycles: 1456480948 heartbeat IPC: 0.421155 cumulative IPC: 0.413447 (Simulation time: 4 hr 34 min 55 sec) 
Heartbeat CPU 0 instructions: 1840000000 cycles: 1457696581 heartbeat IPC: 1.56444 cumulative IPC: 1.18895 (Simulation time: 4 hr 35 min 9 sec) 
Heartbeat CPU 2 instructions: 1810000003 cycles: 1457795884 heartbeat IPC: 1.19799 cumulative IPC: 1.21419 (Simulation time: 4 hr 35 min 10 sec) 
Heartbeat CPU 0 instructions: 1850000000 cycles: 1464129064 heartbeat IPC: 1.55461 cumulative IPC: 1.19072 (Simulation time: 4 hr 36 min 25 sec) 
Heartbeat CPU 2 instructions: 1820000000 cycles: 1466141735 heartbeat IPC: 1.1982 cumulative IPC: 1.21409 (Simulation time: 4 hr 36 min 49 sec) 
Heartbeat CPU 0 instructions: 1860000000 cycles: 1471300661 heartbeat IPC: 1.39439 cumulative IPC: 1.19181 (Simulation time: 4 hr 37 min 48 sec) 
Heartbeat CPU 1 instructions: 800000000 cycles: 1471744597 heartbeat IPC: 0.44608 cumulative IPC: 0.441116 (Simulation time: 4 hr 37 min 52 sec) 
Heartbeat CPU 2 instructions: 1830000002 cycles: 1474551605 heartbeat IPC: 1.18908 cumulative IPC: 1.21393 (Simulation time: 4 hr 38 min 21 sec) 
Heartbeat CPU 0 instructions: 1870000000 cycles: 1480269475 heartbeat IPC: 1.11497 cumulative IPC: 1.1913 (Simulation time: 4 hr 39 min 26 sec) 
Heartbeat CPU 3 instructions: 760000000 cycles: 1481586499 heartbeat IPC: 0.398318 cumulative IPC: 0.413166 (Simulation time: 4 hr 39 min 41 sec) 
Heartbeat CPU 2 instructions: 1840000000 cycles: 1483021222 heartbeat IPC: 1.18069 cumulative IPC: 1.21372 (Simulation time: 4 hr 39 min 58 sec) 
Heartbeat CPU 0 instructions: 1880000000 cycles: 1487709617 heartbeat IPC: 1.34406 cumulative IPC: 1.19213 (Simulation time: 4 hr 40 min 51 sec) 
Heartbeat CPU 2 instructions: 1850000000 cycles: 1491533592 heartbeat IPC: 1.17476 cumulative IPC: 1.21348 (Simulation time: 4 hr 41 min 33 sec) 
Heartbeat CPU 1 instructions: 810000000 cycles: 1492221509 heartbeat IPC: 0.488355 cumulative IPC: 0.441827 (Simulation time: 4 hr 41 min 40 sec) 
Heartbeat CPU 0 instructions: 1890000001 cycles: 1496509110 heartbeat IPC: 1.13643 cumulative IPC: 1.19178 (Simulation time: 4 hr 42 min 28 sec) 
Heartbeat CPU 2 instructions: 1860000000 cycles: 1499964415 heartbeat IPC: 1.18612 cumulative IPC: 1.21331 (Simulation time: 4 hr 43 min 7 sec) 
Heartbeat CPU 0 instructions: 1900000000 cycles: 1503507872 heartbeat IPC: 1.42882 cumulative IPC: 1.19298 (Simulation time: 4 hr 43 min 47 sec) 
Heartbeat CPU 3 instructions: 770000002 cycles: 1506857880 heartbeat IPC: 0.395705 cumulative IPC: 0.412845 (Simulation time: 4 hr 44 min 27 sec) 
Heartbeat CPU 2 instructions: 1870000000 cycles: 1508320100 heartbeat IPC: 1.19679 cumulative IPC: 1.21321 (Simulation time: 4 hr 44 min 45 sec) 
Heartbeat CPU 0 instructions: 1910000000 cycles: 1509997615 heartbeat IPC: 1.54089 cumulative IPC: 1.19462 (Simulation time: 4 hr 45 min 5 sec) 
Heartbeat CPU 1 instructions: 820000000 cycles: 1512615961 heartbeat IPC: 0.490329 cumulative IPC: 0.442543 (Simulation time: 4 hr 45 min 36 sec) 
Heartbeat CPU 0 instructions: 1920000000 cycles: 1516506123 heartbeat IPC: 1.53645 cumulative IPC: 1.19623 (Simulation time: 4 hr 46 min 23 sec) 
Heartbeat CPU 2 instructions: 1880000000 cycles: 1516697122 heartbeat IPC: 1.19374 cumulative IPC: 1.21309 (Simulation time: 4 hr 46 min 26 sec) 
Heartbeat CPU 0 instructions: 1930000002 cycles: 1523029885 heartbeat IPC: 1.53286 cumulative IPC: 1.19781 (Simulation time: 4 hr 47 min 41 sec) 
Heartbeat CPU 2 instructions: 1890000002 cycles: 1525052859 heartbeat IPC: 1.19678 cumulative IPC: 1.213 (Simulation time: 4 hr 48 min 5 sec) 
Heartbeat CPU 0 instructions: 1940000000 cycles: 1529554093 heartbeat IPC: 1.53275 cumulative IPC: 1.19937 (Simulation time: 4 hr 48 min 58 sec) 
[...]
Heartbeat CPU 3 instructions: 1160000000 cycles: 2453038725 heartbeat IPC: 0.41119 cumulative IPC: 0.412575 (Simulation time: 7 hr 23 min 24 sec) 
Heartbeat CPU 2 instructions: 3020000000 cycles: 2459497509 heartbeat IPC: 1.1989 cumulative IPC: 1.2115 (Simulation time: 7 hr 24 min 29 sec) 
Heartbeat CPU 0 instructions: 2820000000 cycles: 2464051449 heartbeat IPC: 0.868413 cumulative IPC: 1.09612 (Simulation time: 7 hr 25 min 12 sec) 
Heartbeat CPU 2 instructions: 3030000000 cycles: 2467824874 heartbeat IPC: 1.20086 cumulative IPC: 1.21146 (Simulation time: 7 hr 25 min 51 sec) 
Heartbeat CPU 1 instructions: 1240000000 cycles: 2471944945 heartbeat IPC: 0.429265 cumulative IPC: 0.440601 (Simulation time: 7 hr 26 min 33 sec) 
Heartbeat CPU 0 instructions: 2830000000 cycles: 2474226334 heartbeat IPC: 0.982812 cumulative IPC: 1.09563 (Simulation time: 7 hr 26 min 56 sec) 
Heartbeat CPU 2 instructions: 3040000000 cycles: 2476149868 heartbeat IPC: 1.2012 cumulative IPC: 1.21143 (Simulation time: 7 hr 27 min 13 sec) 
Heartbeat CPU 3 instructions: 1170000000 cycles: 2477395316 heartbeat IPC: 0.410566 cumulative IPC: 0.412554 (Simulation time: 7 hr 27 min 24 sec) 
Heartbeat CPU 2 instructions: 3050000000 cycles: 2484483406 heartbeat IPC: 1.19997 cumulative IPC: 1.21139 (Simulation time: 7 hr 28 min 36 sec) 
Heartbeat CPU 0 instructions: 2840000000 cycles: 2485494646 heartbeat IPC: 0.887444 cumulative IPC: 1.09463 (Simulation time: 7 hr 28 min 48 sec) 
Heartbeat CPU 2 instructions: 3060000000 cycles: 2492822475 heartbeat IPC: 1.19917 cumulative IPC: 1.21134 (Simulation time: 7 hr 30 min 2 sec) 
Heartbeat CPU 1 instructions: 1250000002 cycles: 2495062349 heartbeat IPC: 0.432575 cumulative IPC: 0.440523 (Simulation time: 7 hr 30 min 22 sec) 
Heartbeat CPU 0 instructions: 2850000001 cycles: 2497138591 heartbeat IPC: 0.858816 cumulative IPC: 1.09347 (Simulation time: 7 hr 30 min 42 sec) 
Heartbeat CPU 2 instructions: 3070000003 cycles: 2501155377 heartbeat IPC: 1.20006 cumulative IPC: 1.2113 (Simulation time: 7 hr 31 min 24 sec) 
Heartbeat CPU 3 instructions: 1180000000 cycles: 2501809583 heartbeat IPC: 0.409597 cumulative IPC: 0.412524 (Simulation time: 7 hr 31 min 30 sec) 
Heartbeat CPU 0 instructions: 2860000000 cycles: 2507192482 heartbeat IPC: 0.99464 cumulative IPC: 1.09305 (Simulation time: 7 hr 32 min 25 sec) 
Heartbeat CPU 2 instructions: 3080000000 cycles: 2509501041 heartbeat IPC: 1.19823 cumulative IPC: 1.21126 (Simulation time: 7 hr 32 min 46 sec) 
Heartbeat CPU 2 instructions: 3090000000 cycles: 2517849593 heartbeat IPC: 1.19781 cumulative IPC: 1.21121 (Simulation time: 7 hr 34 min 13 sec) 
Heartbeat CPU 1 instructions: 1260000000 cycles: 2517879309 heartbeat IPC: 0.43827 cumulative IPC: 0.440501 (Simulation time: 7 hr 34 min 13 sec) 
Heartbeat CPU 0 instructions: 2870000001 cycles: 2518039244 heartbeat IPC: 0.921934 cumulative IPC: 1.09227 (Simulation time: 7 hr 34 min 15 sec) 
Heartbeat CPU 3 instructions: 1190000000 cycles: 2526158592 heartbeat IPC: 0.410694 cumulative IPC: 0.412505 (Simulation time: 7 hr 35 min 37 sec) 
Heartbeat CPU 2 instructions: 3100000000 cycles: 2526180713 heartbeat IPC: 1.20032 cumulative IPC: 1.21117 (Simulation time: 7 hr 35 min 38 sec) 
Heartbeat CPU 0 instructions: 2880000000 cycles: 2529551163 heartbeat IPC: 0.868665 cumulative IPC: 1.0912 (Simulation time: 7 hr 36 min 9 sec) 
Heartbeat CPU 2 instructions: 3110000000 cycles: 2534500244 heartbeat IPC: 1.20199 cumulative IPC: 1.21114 (Simulation time: 7 hr 36 min 59 sec) 
Heartbeat CPU 0 instructions: 2890000003 cycles: 2538865459 heartbeat IPC: 1.07362 cumulative IPC: 1.09113 (Simulation time: 7 hr 37 min 47 sec) 
Heartbeat CPU 1 instructions: 1270000003 cycles: 2541016724 heartbeat IPC: 0.432201 cumulative IPC: 0.440421 (Simulation time: 7 hr 38 min 10 sec) 
Heartbeat CPU 2 instructions: 3120000000 cycles: 2542916900 heartbeat IPC: 1.18812 cumulative IPC: 1.21106 (Simulation time: 7 hr 38 min 31 sec) 
Heartbeat CPU 0 instructions: 2900000000 cycles: 2547193243 heartbeat IPC: 1.2008 cumulative IPC: 1.09151 (Simulation time: 7 hr 39 min 18 sec) 
Heartbeat CPU 3 instructions: 1200000000 cycles: 2550526180 heartbeat IPC: 0.410381 cumulative IPC: 0.412484 (Simulation time: 7 hr 39 min 56 sec) 
Heartbeat CPU 2 instructions: 3130000001 cycles: 2551310422 heartbeat IPC: 1.1914 cumulative IPC: 1.21099 (Simulation time: 7 hr 40 min 5 sec) 
Heartbeat CPU 0 instructions: 2910000003 cycles: 2553892262 heartbeat IPC: 1.49276 cumulative IPC: 1.09262 (Simulation time: 7 hr 40 min 36 sec) 
Finished CPU 3 instructions: 1000000000 cycles: 2424365130 cumulative IPC: 0.412479 (Simulation time: 7 hr 41 min 3 sec) 

CPU 0 Branch Prediction Accuracy: 93.5664% MPKI: 2.72588

CPU 1 Branch Prediction Accuracy: 84.8113% MPKI: 25.0176

CPU 2 Branch Prediction Accuracy: 98.2549% MPKI: 0.692346

CPU 3 Branch Prediction Accuracy: 96.9216% MPKI: 3.0787

ChampSim completed all CPUs

Total Simulation Statistics (not including warmup)

CPU 0 cumulative IPC: 1.09306 instructions: 2649974190 cycles: 2424365129
L1D TOTAL     ACCESS:  722482815  HIT:  693707158  MISS:   28775657
L1D LOAD      ACCESS:  385139107  HIT:  357426881  MISS:   27712226
L1D RFO       ACCESS:  337343708  HIT:  336280277  MISS:    1063431
L1D PREFETCH  ACCESS:          0  HIT:          0  MISS:          0
L1D WRITEBACK ACCESS:          0  HIT:          0  MISS:          0
L1I TOTAL     ACCESS:  629751213  HIT:  629745473  MISS:       5740
L1I LOAD      ACCESS:  629751213  HIT:  629745473  MISS:       5740
L1I RFO       ACCESS:          0  HIT:          0  MISS:          0
L1I PREFETCH  ACCESS:          0  HIT:          0  MISS:          0
L1I WRITEBACK ACCESS:          0  HIT:          0  MISS:          0
L2C TOTAL     ACCESS:   67819149  HIT:   62298911  MISS:    5520238
L2C LOAD      ACCESS:   27712239  HIT:   25193577  MISS:    2518662
L2C RFO       ACCESS:    1063337  HIT:     594797  MISS:     468540
L2C PREFETCH  ACCESS:   31646731  HIT:   29118453  MISS:    2528278
L2C WRITEBACK ACCESS:    7396842  HIT:    7392084  MISS:       4758

Avg Lookahead Depth:	3.50347
TOTAL: 1.53563e+08	L2C: 1.22152e+08	LLC: 3.14113e+07	GOOD_L2C: 7.45695e+07
Printing all the perceptron weights to: perc_weights_0.csv
LLC TOTAL     ACCESS:    9318220  HIT:    6854029  MISS:    2464191
LLC LOAD      ACCESS:    2481145  HIT:    1877455  MISS:     603690
LLC RFO       ACCESS:     468421  HIT:     158479  MISS:     309942
LLC PREFETCH  ACCESS:    4327854  HIT:    2879519  MISS:    1448335
LLC WRITEBACK ACCESS:    2040800  HIT:    1938576  MISS:     102224

CPU 1 cumulative IPC: 0.440291 instructions: 1067427202 cycles: 2424365129
L1D TOTAL     ACCESS:  340094372  HIT:  336043884  MISS:    4050488
L1D LOAD      ACCESS:  199618633  HIT:  197174588  MISS:    2444045
L1D RFO       ACCESS:  140475739  HIT:  138869296  MISS:    1606443
L1D PREFETCH  ACCESS:          0  HIT:          0  MISS:          0
L1D WRITEBACK ACCESS:          0  HIT:          0  MISS:          0
L1I TOTAL     ACCESS:  241882260  HIT:  237595416  MISS:    4286844
L1I LOAD      ACCESS:  241882260  HIT:  237595416  MISS:    4286844
L1I RFO       ACCESS:          0  HIT:          0  MISS:          0
L1I PREFETCH  ACCESS:          0  HIT:          0  MISS:          0
L1I WRITEBACK ACCESS:          0  HIT:          0  MISS:          0
L2C TOTAL     ACCESS:   18596104  HIT:   16086656  MISS:    2509448
L2C LOAD      ACCESS:    6730848  HIT:    5741749  MISS:     989099
L2C RFO       ACCESS:    1606365  HIT:    1143247  MISS:     463118
L2C PREFETCH  ACCESS:    7959988  HIT:    6914488  MISS:    1045500
L2C WRITEBACK ACCESS:    2298903  HIT:    2287172  MISS:      11731

Avg Lookahead Depth:	3.50347
TOTAL: 1.53563e+08	L2C: 1.22152e+08	LLC: 3.14113e+07	GOOD_L2C: 7.45695e+07
Printing all the perceptron weights to: perc_weights_0.csv
LLC TOTAL     ACCESS:    4094076  HIT:    2095392  MISS:    1998684
LLC LOAD      ACCESS:     906019  HIT:     369347  MISS:     536672
LLC RFO       ACCESS:     463058  HIT:     260425  MISS:     202633
LLC PREFETCH  ACCESS:    1849487  HIT:     826346  MISS:    1023141
LLC WRITEBACK ACCESS:     875512  HIT:     639274  MISS:     236238

CPU 2 cumulative IPC: 1.21096 instructions: 2935820596 cycles: 2424365129
L1D TOTAL     ACCESS: 1316236005  HIT: 1256394805  MISS:   59841200
L1D LOAD      ACCESS: 1110677496  HIT: 1052245730  MISS:   58431766
L1D RFO       ACCESS:  205558509  HIT:  204149075  MISS:    1409434
L1D PREFETCH  ACCESS:          0  HIT:          0  MISS:          0
L1D WRITEBACK ACCESS:          0  HIT:          0  MISS:          0
L1I TOTAL     ACCESS:  678513609  HIT:  678513521  MISS:         88
L1I LOAD      ACCESS:  678513609  HIT:  678513521  MISS:         88
L1I RFO       ACCESS:          0  HIT:          0  MISS:          0
L1I PREFETCH  ACCESS:          0  HIT:          0  MISS:          0
L1I WRITEBACK ACCESS:          0  HIT:          0  MISS:          0
L2C TOTAL     ACCESS:  129715996  HIT:   74900937  MISS:   54815059
L2C LOAD      ACCESS:   58415915  HIT:   56225335  MISS:    2190580
L2C RFO       ACCESS:    1392171  HIT:     195912  MISS:    1196259
L2C PREFETCH  ACCESS:   66258009  HIT:   14839546  MISS:   51418463
L2C WRITEBACK ACCESS:    3649901  HIT:    3640144  MISS:       9757

Avg Lookahead Depth:	3.50347
TOTAL: 1.53563e+08	L2C: 1.22152e+08	LLC: 3.14113e+07	GOOD_L2C: 7.45695e+07
Printing all the perceptron weights to: perc_weights_0.csv
LLC TOTAL     ACCESS:   58603181  HIT:    5758812  MISS:   52844369
LLC LOAD      ACCESS:    1948227  HIT:      63380  MISS:    1884847
LLC RFO       ACCESS:    1196258  HIT:         17  MISS:    1196241
LLC PREFETCH  ACCESS:   52220357  HIT:    2457787  MISS:   49762570
LLC WRITEBACK ACCESS:    3238339  HIT:    3237628  MISS:        711

CPU 3 cumulative IPC: 0.412479 instructions: 1000000000 cycles: 2424365130
L1D TOTAL     ACCESS:  380737107  HIT:  364507865  MISS:   16229242
L1D LOAD      ACCESS:  234598680  HIT:  220566308  MISS:   14032372
L1D RFO       ACCESS:  146138427  HIT:  143941557  MISS:    2196870
L1D PREFETCH  ACCESS:          0  HIT:          0  MISS:          0
L1D WRITEBACK ACCESS:          0  HIT:          0  MISS:          0
L1I TOTAL     ACCESS:  314385595  HIT:  310408855  MISS:    3976740
L1I LOAD      ACCESS:  314385595  HIT:  310408855  MISS:    3976740
L1I RFO       ACCESS:          0  HIT:          0  MISS:          0
L1I PREFETCH  ACCESS:          0  HIT:          0  MISS:          0
L1I WRITEBACK ACCESS:          0  HIT:          0  MISS:          0
L2C TOTAL     ACCESS:   46288116  HIT:   45966568  MISS:     321548
L2C LOAD      ACCESS:   18008859  HIT:   17937881  MISS:      70978
L2C RFO       ACCESS:    2196777  HIT:    2185406  MISS:      11371
L2C PREFETCH  ACCESS:   23083881  HIT:   22844953  MISS:     238928
L2C WRITEBACK ACCESS:    2998599  HIT:    2998328  MISS:        271

Avg Lookahead Depth:	3.50347
TOTAL: 1.53563e+08	L2C: 1.22152e+08	LLC: 3.14113e+07	GOOD_L2C: 7.45695e+07
Printing all the perceptron weights to: perc_weights_0.csv
LLC TOTAL     ACCESS:     704319  HIT:     338257  MISS:     366062
LLC LOAD      ACCESS:      67575  HIT:      28362  MISS:      39213
LLC RFO       ACCESS:      11371  HIT:       9116  MISS:       2255
LLC PREFETCH  ACCESS:     612995  HIT:     292531  MISS:     320464
LLC WRITEBACK ACCESS:      12378  HIT:       8248  MISS:       4130

Region of Interest Statistics

CPU 0 cumulative IPC: 1.07165 instructions: 1000000001 cycles: 933141924
L1D TOTAL     ACCESS:  276558590  HIT:  265061949  MISS:   11496641
L1D LOAD      ACCESS:  145568511  HIT:  134456275  MISS:   11112236
L1D RFO       ACCESS:  130990079  HIT:  130605674  MISS:     384405
L1D PREFETCH  ACCESS:          0  HIT:          0  MISS:          0
L1D WRITEBACK ACCESS:          0  HIT:          0  MISS:          0
L1D PREFETCH  REQUESTED:          0  ISSUED:          0  USEFUL:          0  USELESS:          0
L1I TOTAL     ACCESS:  235876978  HIT:  235875969  MISS:       1009
L1I LOAD      ACCESS:  235876978  HIT:  235875969  MISS:       1009
L1I RFO       ACCESS:          0  HIT:          0  MISS:          0
L1I PREFETCH  ACCESS:          0  HIT:          0  MISS:          0
L1I WRITEBACK ACCESS:          0  HIT:          0  MISS:          0
L1I PREFETCH  REQUESTED:          0  ISSUED:          0  USEFUL:          0  USELESS:          0
L2C TOTAL     ACCESS:   27103080  HIT:   25187613  MISS:    1915467
L2C LOAD      ACCESS:   11112064  HIT:   10123373  MISS:     988691
L2C RFO       ACCESS:     384365  HIT:     257114  MISS:     127251
L2C PREFETCH  ACCESS:   12770096  HIT:   11972377  MISS:     797719
L2C WRITEBACK ACCESS:    2836555  HIT:    2834749  MISS:       1806
L2C PREFETCH  REQUESTED:   38695879  ISSUED:   38695740  USEFUL:    2352952  USELESS:     577342
LLC TOTAL     ACCESS:    3284103  HIT:    2429290  MISS:     854813
LLC LOAD      ACCESS:     974203  HIT:     720240  MISS:     253963
LLC RFO       ACCESS:     127201  HIT:      57550  MISS:      69651
LLC PREFETCH  ACCESS:    1458621  HIT:     967598  MISS:     491023
LLC WRITEBACK ACCESS:     724078  HIT:     683902  MISS:      40176
LLC PREFETCH  REQUESTED:          0  ISSUED:          0  USEFUL:     556232  USELESS:   55526254
Major fault: 0 Minor fault: 2405

CPU 1 cumulative IPC: 0.440923 instructions: 1000000001 cycles: 2267967380
L1D TOTAL     ACCESS:  317890293  HIT:  314045313  MISS:    3844980
L1D LOAD      ACCESS:  186904494  HIT:  184575382  MISS:    2329112
L1D RFO       ACCESS:  130985799  HIT:  129469931  MISS:    1515868
L1D PREFETCH  ACCESS:          0  HIT:          0  MISS:          0
L1D WRITEBACK ACCESS:          0  HIT:          0  MISS:          0
L1D PREFETCH  REQUESTED:          0  ISSUED:          0  USEFUL:          0  USELESS:          0
L1I TOTAL     ACCESS:  226708913  HIT:  222697034  MISS:    4011879
L1I LOAD      ACCESS:  226708913  HIT:  222697034  MISS:    4011879
L1I RFO       ACCESS:          0  HIT:          0  MISS:          0
L1I PREFETCH  ACCESS:          0  HIT:          0  MISS:          0
L1I WRITEBACK ACCESS:          0  HIT:          0  MISS:          0
L1I PREFETCH  REQUESTED:          0  ISSUED:          0  USEFUL:          0  USELESS:          0
L2C TOTAL     ACCESS:   17524369  HIT:   15142773  MISS:    2381596
L2C LOAD      ACCESS:    6340952  HIT:    5404347  MISS:     936605
L2C RFO       ACCESS:    1515797  HIT:    1077725  MISS:     438072
L2C PREFETCH  ACCESS:    7499238  HIT:    6503308  MISS:     995930
L2C WRITEBACK ACCESS:    2168382  HIT:    2157393  MISS:      10989
L2C PREFETCH  REQUESTED:   10664388  ISSUED:   10662923  USEFUL:     621645  USELESS:     510455
LLC TOTAL     ACCESS:    3881707  HIT:    2008639  MISS:    1873068
LLC LOAD      ACCESS:     857611  HIT:     357150  MISS:     500461
LLC RFO       ACCESS:     438018  HIT:     246380  MISS:     191638
LLC PREFETCH  ACCESS:    1762472  HIT:     798714  MISS:     963758
LLC WRITEBACK ACCESS:     823606  HIT:     606395  MISS:     217211
LLC PREFETCH  REQUESTED:          0  ISSUED:          0  USEFUL:     556232  USELESS:   55526254
Major fault: 0 Minor fault: 6655

CPU 2 cumulative IPC: 1.21645 instructions: 1000000000 cycles: 822061341
L1D TOTAL     ACCESS:  438694131  HIT:  418281093  MISS:   20413038
L1D LOAD      ACCESS:  369598296  HIT:  349649655  MISS:   19948641
L1D RFO       ACCESS:   69095835  HIT:   68631438  MISS:     464397
L1D PREFETCH  ACCESS:          0  HIT:          0  MISS:          0
L1D WRITEBACK ACCESS:          0  HIT:          0  MISS:          0
L1D PREFETCH  REQUESTED:          0  ISSUED:          0  USEFUL:          0  USELESS:          0
L1I TOTAL     ACCESS:  230492745  HIT:  230492657  MISS:         88
L1I LOAD      ACCESS:  230492745  HIT:  230492657  MISS:         88
L1I RFO       ACCESS:          0  HIT:          0  MISS:          0
L1I PREFETCH  ACCESS:          0  HIT:          0  MISS:          0
L1I WRITEBACK ACCESS:          0  HIT:          0  MISS:          0
L1I PREFETCH  REQUESTED:          0  ISSUED:          0  USEFUL:          0  USELESS:          0
L2C TOTAL     ACCESS:   44180600  HIT:   25427282  MISS:   18753318
L2C LOAD      ACCESS:   19943398  HIT:   19201485  MISS:     741913
L2C RFO       ACCESS:     458712  HIT:      64937  MISS:     393775
L2C PREFETCH  ACCESS:   22399071  HIT:    4784659  MISS:   17614412
L2C WRITEBACK ACCESS:    1379419  HIT:    1376201  MISS:       3218
L2C PREFETCH  REQUESTED:   74613882  ISSUED:   74097812  USEFUL:   54866566  USELESS:      36726
LLC TOTAL     ACCESS:   20158550  HIT:    2088913  MISS:   18069637
LLC LOAD      ACCESS:     645987  HIT:      21960  MISS:     624027
LLC RFO       ACCESS:     393775  HIT:          7  MISS:     393768
LLC PREFETCH  ACCESS:   17875273  HIT:     823665  MISS:   17051608
LLC WRITEBACK ACCESS:    1243515  HIT:    1243281  MISS:        234
LLC PREFETCH  REQUESTED:          0  ISSUED:          0  USEFUL:     556232  USELESS:   55526254
Major fault: 0 Minor fault: 108279

CPU 3 cumulative IPC: 0.412479 instructions: 1000000000 cycles: 2424365130
L1D TOTAL     ACCESS:  380737107  HIT:  364507865  MISS:   16229242
L1D LOAD      ACCESS:  234598680  HIT:  220566308  MISS:   14032372
L1D RFO       ACCESS:  146138427  HIT:  143941557  MISS:    2196870
L1D PREFETCH  ACCESS:          0  HIT:          0  MISS:          0
L1D WRITEBACK ACCESS:          0  HIT:          0  MISS:          0
L1D PREFETCH  REQUESTED:          0  ISSUED:          0  USEFUL:          0  USELESS:          0
L1I TOTAL     ACCESS:  314385595  HIT:  310408855  MISS:    3976740
L1I LOAD      ACCESS:  314385595  HIT:  310408855  MISS:    3976740
L1I RFO       ACCESS:          0  HIT:          0  MISS:          0
L1I PREFETCH  ACCESS:          0  HIT:          0  MISS:          0
L1I WRITEBACK ACCESS:          0  HIT:          0  MISS:          0
L1I PREFETCH  REQUESTED:          0  ISSUED:          0  USEFUL:          0  USELESS:          0
L2C TOTAL     ACCESS:   46288116  HIT:   45966568  MISS:     321548
L2C LOAD      ACCESS:   18008859  HIT:   17937881  MISS:      70978
L2C RFO       ACCESS:    2196777  HIT:    2185406  MISS:      11371
L2C PREFETCH  ACCESS:   23083881  HIT:   22844953  MISS:     238928
L2C WRITEBACK ACCESS:    2998599  HIT:    2998328  MISS:        271
L2C PREFETCH  REQUESTED:   29589201  ISSUED:   29581027  USEFUL:      23388  USELESS:     253692
LLC TOTAL     ACCESS:     704319  HIT:     338257  MISS:     366062
LLC LOAD      ACCESS:      67575  HIT:      28362  MISS:      39213
LLC RFO       ACCESS:      11371  HIT:       9116  MISS:       2255
LLC PREFETCH  ACCESS:     612995  HIT:     292531  MISS:     320464
LLC WRITEBACK ACCESS:      12378  HIT:       8248  MISS:       4130
LLC PREFETCH  REQUESTED:          0  ISSUED:          0  USEFUL:     556232  USELESS:   55526254
Major fault: 0 Minor fault: 352

Avg Lookahead Depth:	3.50347
TOTAL: 1.53563e+08	L2C: 1.22152e+08	LLC: 3.14113e+07	GOOD_L2C: 7.45695e+07
Printing all the perceptron weights to: perc_weights_0.csv

Avg Lookahead Depth:	3.50347
TOTAL: 1.53563e+08	L2C: 1.22152e+08	LLC: 3.14113e+07	GOOD_L2C: 7.45695e+07
Printing all the perceptron weights to: perc_weights_0.csv

Avg Lookahead Depth:	3.50347
TOTAL: 1.53563e+08	L2C: 1.22152e+08	LLC: 3.14113e+07	GOOD_L2C: 7.45695e+07
Printing all the perceptron weights to: perc_weights_0.csv

Avg Lookahead Depth:	3.50347
TOTAL: 1.53563e+08	L2C: 1.22152e+08	LLC: 3.14113e+07	GOOD_L2C: 7.45695e+07
Printing all the perceptron weights to: perc_weights_0.csv

DRAM Statistics
 CHANNEL 0
 RQ ROW_BUFFER_HIT:   23100783  ROW_BUFFER_MISS:    5558031
 DBUS_CONGESTED:   18729262
 WQ ROW_BUFFER_HIT:     526441  ROW_BUFFER_MISS:    1826696  FULL:          0

 CHANNEL 1
 RQ ROW_BUFFER_HIT:   23093449  ROW_BUFFER_MISS:    5568166
 DBUS_CONGESTED:   18729262
 WQ ROW_BUFFER_HIT:     525250  ROW_BUFFER_MISS:    1827260  FULL:          0

 AVG_CONGESTED_CYCLE: 11
