Initialize SIGNATURE TABLE
ST_SET: 1
ST_WAY: 256
ST_TAG_BIT: 16
ST_TAG_MASK: ffff

Initialize PATTERN TABLE
PT_SET: 512
PT_WAY: 4
SIG_DELTA_BIT: 7
C_SIG_BIT: 4
C_DELTA_BIT: 4

Initialize PREFETCH FILTER
FILTER_SET: 1024

Initialize PERCEPTRON
PERC_ENTRIES: 4096
PERC_FEATURES: 9

*** ChampSim Multicore Out-of-Order Simulator ***

Warmup Instructions: 200000000
Simulation Instructions: 1000000000
Number of CPUs: 4
LLC sets: 8192
LLC ways: 16
Off-chip DRAM Size: 8192 MB Channels: 2 Width: 64-bit Data Rate: 1600 MT/s

CPU 0 runs /scratch/user/djimenez/champsim-traces/speccpu2006/xz//458.sjeng-767B.champsimtrace.xz
CPU 1 runs /scratch/user/djimenez/champsim-traces/speccpu2006/xz//444.namd-120B.champsimtrace.xz
CPU 2 runs /scratch/user/djimenez/champsim-traces/speccpu2006/xz//450.soplex-92B.champsimtrace.xz
CPU 3 runs /scratch/user/djimenez/champsim-traces/speccpu2006/xz//433.milc-127B.champsimtrace.xz
Heartbeat CPU 3 instructions: 10000002 cycles: 4605557 heartbeat IPC: 2.17129 cumulative IPC: 2.17129 (Simulation time: 0 hr 1 min 12 sec) 
Heartbeat CPU 1 instructions: 10000003 cycles: 4672201 heartbeat IPC: 2.14032 cumulative IPC: 2.14032 (Simulation time: 0 hr 1 min 13 sec) 
Heartbeat CPU 2 instructions: 10000000 cycles: 4984874 heartbeat IPC: 2.00607 cumulative IPC: 2.00607 (Simulation time: 0 hr 1 min 18 sec) 
Heartbeat CPU 0 instructions: 10000003 cycles: 5347048 heartbeat IPC: 1.87019 cumulative IPC: 1.87019 (Simulation time: 0 hr 1 min 24 sec) 
Heartbeat CPU 1 instructions: 20000000 cycles: 8805957 heartbeat IPC: 2.41911 cumulative IPC: 2.27119 (Simulation time: 0 hr 2 min 18 sec) 
Heartbeat CPU 3 instructions: 20000000 cycles: 9250107 heartbeat IPC: 2.15306 cumulative IPC: 2.16214 (Simulation time: 0 hr 2 min 26 sec) 
Heartbeat CPU 2 instructions: 20000000 cycles: 10090840 heartbeat IPC: 1.95849 cumulative IPC: 1.982 (Simulation time: 0 hr 2 min 42 sec) 
Heartbeat CPU 0 instructions: 20000000 cycles: 10744661 heartbeat IPC: 1.85267 cumulative IPC: 1.86139 (Simulation time: 0 hr 2 min 53 sec) 
Heartbeat CPU 1 instructions: 30000003 cycles: 13383052 heartbeat IPC: 2.18479 cumulative IPC: 2.24164 (Simulation time: 0 hr 3 min 37 sec) 
Heartbeat CPU 3 instructions: 30000003 cycles: 14718569 heartbeat IPC: 1.82867 cumulative IPC: 2.03824 (Simulation time: 0 hr 4 min 1 sec) 
Heartbeat CPU 2 instructions: 30000002 cycles: 15118563 heartbeat IPC: 1.98897 cumulative IPC: 1.98432 (Simulation time: 0 hr 4 min 7 sec) 
Heartbeat CPU 0 instructions: 30000000 cycles: 16203276 heartbeat IPC: 1.83197 cumulative IPC: 1.85148 (Simulation time: 0 hr 4 min 27 sec) 
Heartbeat CPU 1 instructions: 40000000 cycles: 17705764 heartbeat IPC: 2.31336 cumulative IPC: 2.25915 (Simulation time: 0 hr 4 min 51 sec) 
Heartbeat CPU 3 instructions: 40000000 cycles: 19601292 heartbeat IPC: 2.04804 cumulative IPC: 2.04068 (Simulation time: 0 hr 5 min 24 sec) 
Heartbeat CPU 2 instructions: 40000000 cycles: 20114283 heartbeat IPC: 2.00171 cumulative IPC: 1.98864 (Simulation time: 0 hr 5 min 33 sec) 
Heartbeat CPU 0 instructions: 40000000 cycles: 21713297 heartbeat IPC: 1.81488 cumulative IPC: 1.84219 (Simulation time: 0 hr 5 min 59 sec) 
Heartbeat CPU 1 instructions: 50000000 cycles: 22576933 heartbeat IPC: 2.0529 cumulative IPC: 2.21465 (Simulation time: 0 hr 6 min 13 sec) 
Heartbeat CPU 3 instructions: 50000002 cycles: 24484023 heartbeat IPC: 2.04803 cumulative IPC: 2.04215 (Simulation time: 0 hr 6 min 46 sec) 
Heartbeat CPU 2 instructions: 50000002 cycles: 25064790 heartbeat IPC: 2.02 cumulative IPC: 1.99483 (Simulation time: 0 hr 6 min 56 sec) 
Heartbeat CPU 1 instructions: 60000000 cycles: 27239580 heartbeat IPC: 2.1447 cumulative IPC: 2.20268 (Simulation time: 0 hr 7 min 32 sec) 
Heartbeat CPU 0 instructions: 50000000 cycles: 27261953 heartbeat IPC: 1.80224 cumulative IPC: 1.83406 (Simulation time: 0 hr 7 min 32 sec) 
Heartbeat CPU 3 instructions: 60000000 cycles: 29368882 heartbeat IPC: 2.04714 cumulative IPC: 2.04298 (Simulation time: 0 hr 8 min 9 sec) 
Heartbeat CPU 2 instructions: 60000000 cycles: 30169090 heartbeat IPC: 1.95913 cumulative IPC: 1.98879 (Simulation time: 0 hr 8 min 23 sec) 
Heartbeat CPU 1 instructions: 70000001 cycles: 31825099 heartbeat IPC: 2.18078 cumulative IPC: 2.19952 (Simulation time: 0 hr 8 min 51 sec) 
Heartbeat CPU 0 instructions: 60000000 cycles: 32726368 heartbeat IPC: 1.83002 cumulative IPC: 1.83338 (Simulation time: 0 hr 9 min 8 sec) 
Heartbeat CPU 3 instructions: 70000002 cycles: 34268384 heartbeat IPC: 2.04102 cumulative IPC: 2.0427 (Simulation time: 0 hr 9 min 37 sec) 
Heartbeat CPU 2 instructions: 70000000 cycles: 36166498 heartbeat IPC: 1.66739 cumulative IPC: 1.93549 (Simulation time: 0 hr 10 min 12 sec) 
Heartbeat CPU 1 instructions: 80000000 cycles: 36278208 heartbeat IPC: 2.24562 cumulative IPC: 2.20518 (Simulation time: 0 hr 10 min 13 sec) 
Heartbeat CPU 0 instructions: 70000001 cycles: 38118802 heartbeat IPC: 1.85445 cumulative IPC: 1.83636 (Simulation time: 0 hr 10 min 45 sec) 
Heartbeat CPU 3 instructions: 80000000 cycles: 39168062 heartbeat IPC: 2.04095 cumulative IPC: 2.04248 (Simulation time: 0 hr 11 min 4 sec) 
Heartbeat CPU 1 instructions: 90000002 cycles: 40608668 heartbeat IPC: 2.30922 cumulative IPC: 2.21628 (Simulation time: 0 hr 11 min 30 sec) 
Heartbeat CPU 2 instructions: 80000000 cycles: 42350264 heartbeat IPC: 1.61714 cumulative IPC: 1.88901 (Simulation time: 0 hr 12 min 2 sec) 
Heartbeat CPU 0 instructions: 80000000 cycles: 43537616 heartbeat IPC: 1.84542 cumulative IPC: 1.83749 (Simulation time: 0 hr 12 min 24 sec) 
Heartbeat CPU 3 instructions: 90000003 cycles: 44067453 heartbeat IPC: 2.04107 cumulative IPC: 2.04232 (Simulation time: 0 hr 12 min 33 sec) 
Heartbeat CPU 1 instructions: 100000000 cycles: 44848121 heartbeat IPC: 2.35879 cumulative IPC: 2.22975 (Simulation time: 0 hr 12 min 46 sec) 
Heartbeat CPU 2 instructions: 90000000 cycles: 47420281 heartbeat IPC: 1.97238 cumulative IPC: 1.89792 (Simulation time: 0 hr 13 min 31 sec) 
Heartbeat CPU 3 instructions: 100000000 cycles: 48951390 heartbeat IPC: 2.04753 cumulative IPC: 2.04284 (Simulation time: 0 hr 13 min 58 sec) 
Heartbeat CPU 0 instructions: 90000003 cycles: 49003913 heartbeat IPC: 1.82939 cumulative IPC: 1.83659 (Simulation time: 0 hr 13 min 59 sec) 
Heartbeat CPU 1 instructions: 110000003 cycles: 49475924 heartbeat IPC: 2.16085 cumulative IPC: 2.2233 (Simulation time: 0 hr 14 min 8 sec) 
Heartbeat CPU 2 instructions: 100000000 cycles: 52460458 heartbeat IPC: 1.98406 cumulative IPC: 1.9062 (Simulation time: 0 hr 15 min 2 sec) 
Heartbeat CPU 3 instructions: 110000001 cycles: 52938211 heartbeat IPC: 2.50826 cumulative IPC: 2.07789 (Simulation time: 0 hr 15 min 10 sec) 
Heartbeat CPU 1 instructions: 120000000 cycles: 53984780 heartbeat IPC: 2.21786 cumulative IPC: 2.22285 (Simulation time: 0 hr 15 min 30 sec) 
Heartbeat CPU 0 instructions: 100000000 cycles: 54458357 heartbeat IPC: 1.83337 cumulative IPC: 1.83627 (Simulation time: 0 hr 15 min 38 sec) 
Heartbeat CPU 3 instructions: 120000000 cycles: 56531222 heartbeat IPC: 2.78318 cumulative IPC: 2.12272 (Simulation time: 0 hr 16 min 16 sec) 
Heartbeat CPU 2 instructions: 110000001 cycles: 57478991 heartbeat IPC: 1.99261 cumulative IPC: 1.91374 (Simulation time: 0 hr 16 min 33 sec) 
Heartbeat CPU 1 instructions: 130000000 cycles: 58706345 heartbeat IPC: 2.11794 cumulative IPC: 2.21441 (Simulation time: 0 hr 16 min 56 sec) 
Heartbeat CPU 0 instructions: 110000002 cycles: 59904490 heartbeat IPC: 1.83617 cumulative IPC: 1.83626 (Simulation time: 0 hr 17 min 15 sec) 
Heartbeat CPU 3 instructions: 130000002 cycles: 60382089 heartbeat IPC: 2.59682 cumulative IPC: 2.15296 (Simulation time: 0 hr 17 min 24 sec) 
Heartbeat CPU 2 instructions: 120000000 cycles: 62458533 heartbeat IPC: 2.00822 cumulative IPC: 1.92127 (Simulation time: 0 hr 18 min 4 sec) 
Heartbeat CPU 1 instructions: 140000000 cycles: 62972868 heartbeat IPC: 2.34383 cumulative IPC: 2.22318 (Simulation time: 0 hr 18 min 14 sec) 
Heartbeat CPU 3 instructions: 140000000 cycles: 63965466 heartbeat IPC: 2.79066 cumulative IPC: 2.18868 (Simulation time: 0 hr 18 min 31 sec) 
Heartbeat CPU 0 instructions: 120000000 cycles: 65291935 heartbeat IPC: 1.85617 cumulative IPC: 1.8379 (Simulation time: 0 hr 18 min 56 sec) 
Heartbeat CPU 2 instructions: 130000002 cycles: 67527928 heartbeat IPC: 1.97262 cumulative IPC: 1.92513 (Simulation time: 0 hr 19 min 38 sec) 
Heartbeat CPU 3 instructions: 150000002 cycles: 67548400 heartbeat IPC: 2.79101 cumulative IPC: 2.22063 (Simulation time: 0 hr 19 min 39 sec) 
Heartbeat CPU 1 instructions: 150000001 cycles: 67641270 heartbeat IPC: 2.14206 cumulative IPC: 2.21758 (Simulation time: 0 hr 19 min 40 sec) 
Heartbeat CPU 0 instructions: 130000003 cycles: 70649035 heartbeat IPC: 1.86668 cumulative IPC: 1.84008 (Simulation time: 0 hr 20 min 33 sec) 
Heartbeat CPU 1 instructions: 160000000 cycles: 71701263 heartbeat IPC: 2.46306 cumulative IPC: 2.23148 (Simulation time: 0 hr 20 min 52 sec) 
Heartbeat CPU 3 instructions: 160000000 cycles: 72170126 heartbeat IPC: 2.16369 cumulative IPC: 2.21698 (Simulation time: 0 hr 21 min 0 sec) 
Heartbeat CPU 2 instructions: 140000000 cycles: 72638334 heartbeat IPC: 1.95679 cumulative IPC: 1.92736 (Simulation time: 0 hr 21 min 8 sec) 
Heartbeat CPU 0 instructions: 140000000 cycles: 76025990 heartbeat IPC: 1.85979 cumulative IPC: 1.84148 (Simulation time: 0 hr 22 min 7 sec) 
Heartbeat CPU 1 instructions: 170000002 cycles: 76141394 heartbeat IPC: 2.25219 cumulative IPC: 2.23269 (Simulation time: 0 hr 22 min 9 sec) 
Heartbeat CPU 3 instructions: 170000001 cycles: 77051478 heartbeat IPC: 2.04861 cumulative IPC: 2.20632 (Simulation time: 0 hr 22 min 24 sec) 
Heartbeat CPU 2 instructions: 150000001 cycles: 77756745 heartbeat IPC: 1.95373 cumulative IPC: 1.92909 (Simulation time: 0 hr 22 min 36 sec) 
Heartbeat CPU 1 instructions: 180000000 cycles: 80515151 heartbeat IPC: 2.28636 cumulative IPC: 2.2356 (Simulation time: 0 hr 23 min 25 sec) 
Heartbeat CPU 0 instructions: 150000003 cycles: 81458435 heartbeat IPC: 1.84079 cumulative IPC: 1.84143 (Simulation time: 0 hr 23 min 41 sec) 
Heartbeat CPU 3 instructions: 180000000 cycles: 81932902 heartbeat IPC: 2.04858 cumulative IPC: 2.19692 (Simulation time: 0 hr 23 min 49 sec) 
Heartbeat CPU 2 instructions: 160000000 cycles: 82805271 heartbeat IPC: 1.98078 cumulative IPC: 1.93224 (Simulation time: 0 hr 24 min 3 sec) 
Heartbeat CPU 1 instructions: 190000001 cycles: 85165392 heartbeat IPC: 2.15043 cumulative IPC: 2.23095 (Simulation time: 0 hr 24 min 44 sec) 
Heartbeat CPU 3 instructions: 190000001 cycles: 86819162 heartbeat IPC: 2.04656 cumulative IPC: 2.18846 (Simulation time: 0 hr 25 min 11 sec) 
Heartbeat CPU 0 instructions: 160000000 cycles: 86872554 heartbeat IPC: 1.84702 cumulative IPC: 1.84178 (Simulation time: 0 hr 25 min 12 sec) 
Heartbeat CPU 2 instructions: 170000000 cycles: 88009146 heartbeat IPC: 1.92164 cumulative IPC: 1.93162 (Simulation time: 0 hr 25 min 33 sec) 
Heartbeat CPU 1 instructions: 200000000 cycles: 89819168 heartbeat IPC: 2.14879 cumulative IPC: 2.2267 (Simulation time: 0 hr 26 min 6 sec) 
Heartbeat CPU 3 instructions: 200000000 cycles: 91715624 heartbeat IPC: 2.04229 cumulative IPC: 2.18065 (Simulation time: 0 hr 26 min 40 sec) 
Heartbeat CPU 0 instructions: 170000003 cycles: 92289766 heartbeat IPC: 1.84597 cumulative IPC: 1.84202 (Simulation time: 0 hr 26 min 50 sec) 
Heartbeat CPU 1 instructions: 210000001 cycles: 94038059 heartbeat IPC: 2.37029 cumulative IPC: 0.10634 (Simulation time: 0 hr 27 min 21 sec) 
Heartbeat CPU 2 instructions: 180000000 cycles: 94290394 heartbeat IPC: 1.59204 cumulative IPC: 1.909 (Simulation time: 0 hr 27 min 25 sec) 
Heartbeat CPU 3 instructions: 210000002 cycles: 96612229 heartbeat IPC: 2.04223 cumulative IPC: 0.103507 (Simulation time: 0 hr 28 min 7 sec) 
Heartbeat CPU 0 instructions: 180000000 cycles: 97700650 heartbeat IPC: 1.84813 cumulative IPC: 1.84236 (Simulation time: 0 hr 28 min 26 sec) 
Heartbeat CPU 1 instructions: 220000000 cycles: 98711890 heartbeat IPC: 2.13957 cumulative IPC: 0.20261 (Simulation time: 0 hr 28 min 45 sec) 
Heartbeat CPU 2 instructions: 190000001 cycles: 99733782 heartbeat IPC: 1.83709 cumulative IPC: 1.90507 (Simulation time: 0 hr 29 min 2 sec) 
Heartbeat CPU 3 instructions: 220000000 cycles: 101508653 heartbeat IPC: 2.04231 cumulative IPC: 0.197028 (Simulation time: 0 hr 29 min 32 sec) 
Heartbeat CPU 1 instructions: 230000000 cycles: 102800854 heartbeat IPC: 2.44561 cumulative IPC: 0.291826 (Simulation time: 0 hr 29 min 55 sec) 
Heartbeat CPU 0 instructions: 190000001 cycles: 102972673 heartbeat IPC: 1.89681 cumulative IPC: 1.84515 (Simulation time: 0 hr 29 min 58 sec) 
Heartbeat CPU 2 instructions: 200000000 cycles: 104761822 heartbeat IPC: 1.98885 cumulative IPC: 1.90909 (Simulation time: 0 hr 30 min 25 sec) 
Heartbeat CPU 1 instructions: 240000000 cycles: 107079516 heartbeat IPC: 2.33718 cumulative IPC: 0.373554 (Simulation time: 0 hr 31 min 1 sec) 
Heartbeat CPU 3 instructions: 230000002 cycles: 107482141 heartbeat IPC: 1.67406 cumulative IPC: 0.279116 (Simulation time: 0 hr 31 min 8 sec) 
Heartbeat CPU 0 instructions: 200000000 cycles: 108364674 heartbeat IPC: 1.8546 cumulative IPC: 1.84562 (Simulation time: 0 hr 31 min 21 sec) 

Warmup complete CPU 0 instructions: 200000001 cycles: 108364675 (Simulation time: 0 hr 31 min 21 sec) 
Warmup complete CPU 1 instructions: 242611426 cycles: 108364674 (Simulation time: 0 hr 31 min 21 sec) 
Warmup complete CPU 2 instructions: 207006834 cycles: 108364674 (Simulation time: 0 hr 31 min 21 sec) 
Warmup complete CPU 3 instructions: 231914918 cycles: 108364674 (Simulation time: 0 hr 31 min 21 sec) 

Heartbeat CPU 1 instructions: 250000000 cycles: 113608174 heartbeat IPC: 1.53171 cumulative IPC: 1.40909 (Simulation time: 0 hr 32 min 7 sec) 
Heartbeat CPU 2 instructions: 210000001 cycles: 114739572 heartbeat IPC: 1.00223 cumulative IPC: 0.469524 (Simulation time: 0 hr 32 min 16 sec) 
Heartbeat CPU 1 instructions: 260000000 cycles: 121329391 heartbeat IPC: 1.29513 cumulative IPC: 1.34122 (Simulation time: 0 hr 33 min 11 sec) 
Heartbeat CPU 3 instructions: 240000000 cycles: 121350337 heartbeat IPC: 0.721074 cumulative IPC: 0.622616 (Simulation time: 0 hr 33 min 11 sec) 
Heartbeat CPU 0 instructions: 210000000 cycles: 124641243 heartbeat IPC: 0.61438 cumulative IPC: 0.61438 (Simulation time: 0 hr 33 min 39 sec) 
Heartbeat CPU 1 instructions: 270000001 cycles: 129224951 heartbeat IPC: 1.26653 cumulative IPC: 1.31295 (Simulation time: 0 hr 34 min 19 sec) 
Heartbeat CPU 2 instructions: 220000000 cycles: 136552538 heartbeat IPC: 0.458443 cumulative IPC: 0.460949 (Simulation time: 0 hr 35 min 24 sec) 
Heartbeat CPU 1 instructions: 280000000 cycles: 136574241 heartbeat IPC: 1.36068 cumulative IPC: 1.32539 (Simulation time: 0 hr 35 min 24 sec) 
Heartbeat CPU 3 instructions: 250000001 cycles: 139210117 heartbeat IPC: 0.559917 cumulative IPC: 0.586313 (Simulation time: 0 hr 35 min 48 sec) 
Heartbeat CPU 0 instructions: 220000000 cycles: 140645441 heartbeat IPC: 0.624836 cumulative IPC: 0.619564 (Simulation time: 0 hr 36 min 0 sec) 
Heartbeat CPU 1 instructions: 290000001 cycles: 144096695 heartbeat IPC: 1.32935 cumulative IPC: 1.32622 (Simulation time: 0 hr 36 min 33 sec) 
Heartbeat CPU 1 instructions: 300000000 cycles: 151292787 heartbeat IPC: 1.38964 cumulative IPC: 1.33685 (Simulation time: 0 hr 37 min 35 sec) 
Heartbeat CPU 3 instructions: 260000000 cycles: 156456241 heartbeat IPC: 0.57984 cumulative IPC: 0.583992 (Simulation time: 0 hr 38 min 19 sec) 
Heartbeat CPU 0 instructions: 230000002 cycles: 156892261 heartbeat IPC: 0.615505 cumulative IPC: 0.618205 (Simulation time: 0 hr 38 min 22 sec) 
Heartbeat CPU 1 instructions: 310000001 cycles: 157875377 heartbeat IPC: 1.51916 cumulative IPC: 1.36109 (Simulation time: 0 hr 38 min 30 sec) 
Heartbeat CPU 2 instructions: 230000002 cycles: 158882787 heartbeat IPC: 0.447823 cumulative IPC: 0.455147 (Simulation time: 0 hr 38 min 39 sec) 
Heartbeat CPU 1 instructions: 320000000 cycles: 165638010 heartbeat IPC: 1.28822 cumulative IPC: 1.35121 (Simulation time: 0 hr 39 min 38 sec) 
Heartbeat CPU 3 instructions: 270000000 cycles: 172899649 heartbeat IPC: 0.608146 cumulative IPC: 0.590146 (Simulation time: 0 hr 40 min 39 sec) 
Heartbeat CPU 0 instructions: 240000000 cycles: 173134210 heartbeat IPC: 0.61569 cumulative IPC: 0.617574 (Simulation time: 0 hr 40 min 41 sec) 
Heartbeat CPU 1 instructions: 330000001 cycles: 173283352 heartbeat IPC: 1.30799 cumulative IPC: 1.34612 (Simulation time: 0 hr 40 min 42 sec) 
Heartbeat CPU 2 instructions: 240000000 cycles: 179211366 heartbeat IPC: 0.491918 cumulative IPC: 0.465698 (Simulation time: 0 hr 41 min 33 sec) 
Heartbeat CPU 1 instructions: 340000000 cycles: 181315928 heartbeat IPC: 1.24493 cumulative IPC: 1.33498 (Simulation time: 0 hr 41 min 51 sec) 
Heartbeat CPU 3 instructions: 280000000 cycles: 187706717 heartbeat IPC: 0.675353 cumulative IPC: 0.606048 (Simulation time: 0 hr 42 min 51 sec) 
Heartbeat CPU 1 instructions: 350000003 cycles: 188381056 heartbeat IPC: 1.4154 cumulative IPC: 1.34208 (Simulation time: 0 hr 42 min 57 sec) 
Heartbeat CPU 0 instructions: 250000003 cycles: 188637194 heartbeat IPC: 0.645037 cumulative IPC: 0.622878 (Simulation time: 0 hr 43 min 0 sec) 
Heartbeat CPU 1 instructions: 360000000 cycles: 196413219 heartbeat IPC: 1.24499 cumulative IPC: 1.33323 (Simulation time: 0 hr 44 min 10 sec) 
Heartbeat CPU 3 instructions: 290000002 cycles: 199853060 heartbeat IPC: 0.823293 cumulative IPC: 0.63489 (Simulation time: 0 hr 44 min 44 sec) 
Heartbeat CPU 2 instructions: 250000003 cycles: 201764238 heartbeat IPC: 0.443403 cumulative IPC: 0.460314 (Simulation time: 0 hr 45 min 1 sec) 
Heartbeat CPU 1 instructions: 370000002 cycles: 203167010 heartbeat IPC: 1.48065 cumulative IPC: 1.34373 (Simulation time: 0 hr 45 min 16 sec) 
Heartbeat CPU 0 instructions: 260000000 cycles: 204669863 heartbeat IPC: 0.623726 cumulative IPC: 0.623019 (Simulation time: 0 hr 45 min 31 sec) 
Heartbeat CPU 1 instructions: 380000000 cycles: 210771093 heartbeat IPC: 1.31508 cumulative IPC: 1.3416 (Simulation time: 0 hr 46 min 26 sec) 
Heartbeat CPU 3 instructions: 300000000 cycles: 211813535 heartbeat IPC: 0.836087 cumulative IPC: 0.658152 (Simulation time: 0 hr 46 min 36 sec) 
Heartbeat CPU 1 instructions: 390000001 cycles: 218167706 heartbeat IPC: 1.35197 cumulative IPC: 1.3423 (Simulation time: 0 hr 47 min 36 sec) 
Heartbeat CPU 0 instructions: 270000003 cycles: 220690113 heartbeat IPC: 0.62421 cumulative IPC: 0.623189 (Simulation time: 0 hr 48 min 0 sec) 
Heartbeat CPU 2 instructions: 260000000 cycles: 221824656 heartbeat IPC: 0.498494 cumulative IPC: 0.467065 (Simulation time: 0 hr 48 min 10 sec) 
Heartbeat CPU 3 instructions: 310000003 cycles: 223908979 heartbeat IPC: 0.826758 cumulative IPC: 0.675802 (Simulation time: 0 hr 48 min 31 sec) 
Heartbeat CPU 1 instructions: 400000000 cycles: 225944836 heartbeat IPC: 1.28582 cumulative IPC: 1.33856 (Simulation time: 0 hr 48 min 49 sec) 
Heartbeat CPU 1 instructions: 410000002 cycles: 232966101 heartbeat IPC: 1.42425 cumulative IPC: 1.34339 (Simulation time: 0 hr 49 min 53 sec) 
Heartbeat CPU 3 instructions: 320000000 cycles: 235874154 heartbeat IPC: 0.835759 cumulative IPC: 0.690812 (Simulation time: 0 hr 50 min 22 sec) 
Heartbeat CPU 0 instructions: 280000000 cycles: 236690977 heartbeat IPC: 0.624966 cumulative IPC: 0.623411 (Simulation time: 0 hr 50 min 29 sec) 
Heartbeat CPU 1 instructions: 420000000 cycles: 240839687 heartbeat IPC: 1.27007 cumulative IPC: 1.33903 (Simulation time: 0 hr 51 min 8 sec) 
Heartbeat CPU 2 instructions: 270000001 cycles: 241849060 heartbeat IPC: 0.499391 cumulative IPC: 0.471914 (Simulation time: 0 hr 51 min 19 sec) 
Heartbeat CPU 1 instructions: 430000002 cycles: 247511646 heartbeat IPC: 1.49881 cumulative IPC: 1.3467 (Simulation time: 0 hr 52 min 12 sec) 
Heartbeat CPU 3 instructions: 330000003 cycles: 247842112 heartbeat IPC: 0.835565 cumulative IPC: 0.703233 (Simulation time: 0 hr 52 min 15 sec) 
Heartbeat CPU 0 instructions: 290000000 cycles: 252852944 heartbeat IPC: 0.618737 cumulative IPC: 0.622888 (Simulation time: 0 hr 53 min 1 sec) 
Heartbeat CPU 1 instructions: 440000000 cycles: 255472688 heartbeat IPC: 1.25612 cumulative IPC: 1.34179 (Simulation time: 0 hr 53 min 22 sec) 
Heartbeat CPU 3 instructions: 340000000 cycles: 260135659 heartbeat IPC: 0.813435 cumulative IPC: 0.712159 (Simulation time: 0 hr 54 min 6 sec) 
Heartbeat CPU 1 instructions: 450000002 cycles: 262636564 heartbeat IPC: 1.39589 cumulative IPC: 1.34431 (Simulation time: 0 hr 54 min 30 sec) 
Heartbeat CPU 0 instructions: 300000000 cycles: 269267386 heartbeat IPC: 0.60922 cumulative IPC: 0.621494 (Simulation time: 0 hr 55 min 30 sec) 
Heartbeat CPU 2 instructions: 280000000 cycles: 269571830 heartbeat IPC: 0.360714 cumulative IPC: 0.452791 (Simulation time: 0 hr 55 min 34 sec) 
Heartbeat CPU 1 instructions: 460000000 cycles: 271023882 heartbeat IPC: 1.19228 cumulative IPC: 1.33647 (Simulation time: 0 hr 55 min 47 sec) 
Heartbeat CPU 3 instructions: 350000000 cycles: 274181493 heartbeat IPC: 0.711955 cumulative IPC: 0.712142 (Simulation time: 0 hr 56 min 12 sec) 
Heartbeat CPU 1 instructions: 470000001 cycles: 278929515 heartbeat IPC: 1.26492 cumulative IPC: 1.33315 (Simulation time: 0 hr 56 min 51 sec) 
Heartbeat CPU 0 instructions: 310000001 cycles: 285483586 heartbeat IPC: 0.616667 cumulative IPC: 0.621052 (Simulation time: 0 hr 57 min 51 sec) 
Heartbeat CPU 1 instructions: 480000000 cycles: 286371217 heartbeat IPC: 1.34378 cumulative IPC: 1.33359 (Simulation time: 0 hr 57 min 59 sec) 
Heartbeat CPU 3 instructions: 360000000 cycles: 290468128 heartbeat IPC: 0.614 cumulative IPC: 0.703364 (Simulation time: 0 hr 58 min 36 sec) 
Heartbeat CPU 2 instructions: 290000000 cycles: 291625101 heartbeat IPC: 0.453447 cumulative IPC: 0.45287 (Simulation time: 0 hr 58 min 46 sec) 
Heartbeat CPU 1 instructions: 490000000 cycles: 293935573 heartbeat IPC: 1.32199 cumulative IPC: 1.33312 (Simulation time: 0 hr 59 min 7 sec) 
Heartbeat CPU 1 instructions: 500000000 cycles: 300411262 heartbeat IPC: 1.54424 cumulative IPC: 1.34024 (Simulation time: 1 hr 0 min 5 sec) 
Heartbeat CPU 0 instructions: 320000000 cycles: 301450677 heartbeat IPC: 0.626288 cumulative IPC: 0.621485 (Simulation time: 1 hr 0 min 15 sec) 
Heartbeat CPU 3 instructions: 370000003 cycles: 307639623 heartbeat IPC: 0.582361 cumulative IPC: 0.692937 (Simulation time: 1 hr 1 min 8 sec) 
Heartbeat CPU 1 instructions: 510000001 cycles: 307800520 heartbeat IPC: 1.35332 cumulative IPC: 1.34072 (Simulation time: 1 hr 1 min 9 sec) 
Heartbeat CPU 2 instructions: 300000000 cycles: 312026234 heartbeat IPC: 0.490169 cumulative IPC: 0.456606 (Simulation time: 1 hr 1 min 47 sec) 
Heartbeat CPU 1 instructions: 520000000 cycles: 314669742 heartbeat IPC: 1.45577 cumulative IPC: 1.34456 (Simulation time: 1 hr 2 min 13 sec) 
Heartbeat CPU 0 instructions: 330000000 cycles: 317352089 heartbeat IPC: 0.628875 cumulative IPC: 0.622047 (Simulation time: 1 hr 2 min 38 sec) 
Heartbeat CPU 3 instructions: 380000000 cycles: 320144606 heartbeat IPC: 0.799681 cumulative IPC: 0.69924 (Simulation time: 1 hr 3 min 6 sec) 
Heartbeat CPU 1 instructions: 530000001 cycles: 322606104 heartbeat IPC: 1.26002 cumulative IPC: 1.34142 (Simulation time: 1 hr 3 min 28 sec) 
Heartbeat CPU 1 instructions: 540000000 cycles: 330552374 heartbeat IPC: 1.25845 cumulative IPC: 1.33846 (Simulation time: 1 hr 4 min 40 sec) 
Heartbeat CPU 3 instructions: 390000000 cycles: 332234829 heartbeat IPC: 0.827115 cumulative IPC: 0.706146 (Simulation time: 1 hr 4 min 57 sec) 
Heartbeat CPU 2 instructions: 310000001 cycles: 333019749 heartbeat IPC: 0.476338 cumulative IPC: 0.45845 (Simulation time: 1 hr 5 min 4 sec) 
Heartbeat CPU 0 instructions: 340000000 cycles: 333488681 heartbeat IPC: 0.61971 cumulative IPC: 0.621879 (Simulation time: 1 hr 5 min 9 sec) 
Heartbeat CPU 1 instructions: 550000002 cycles: 337336168 heartbeat IPC: 1.4741 cumulative IPC: 1.34248 (Simulation time: 1 hr 5 min 45 sec) 
Heartbeat CPU 3 instructions: 400000000 cycles: 344400612 heartbeat IPC: 0.821977 cumulative IPC: 0.712116 (Simulation time: 1 hr 6 min 52 sec) 
Heartbeat CPU 1 instructions: 560000000 cycles: 345375750 heartbeat IPC: 1.24385 cumulative IPC: 1.33913 (Simulation time: 1 hr 7 min 0 sec) 
Heartbeat CPU 0 instructions: 350000000 cycles: 349962465 heartbeat IPC: 0.607025 cumulative IPC: 0.620867 (Simulation time: 1 hr 7 min 42 sec) 
Heartbeat CPU 1 instructions: 570000003 cycles: 351918319 heartbeat IPC: 1.52845 cumulative IPC: 1.34422 (Simulation time: 1 hr 8 min 2 sec) 
Heartbeat CPU 2 instructions: 320000000 cycles: 354275056 heartbeat IPC: 0.470471 cumulative IPC: 0.459489 (Simulation time: 1 hr 8 min 25 sec) 
Heartbeat CPU 3 instructions: 410000000 cycles: 356501612 heartbeat IPC: 0.826378 cumulative IPC: 0.717689 (Simulation time: 1 hr 8 min 46 sec) 
Heartbeat CPU 1 instructions: 580000000 cycles: 358749709 heartbeat IPC: 1.46383 cumulative IPC: 1.34748 (Simulation time: 1 hr 9 min 9 sec) 
Heartbeat CPU 1 instructions: 590000000 cycles: 365813859 heartbeat IPC: 1.4156 cumulative IPC: 1.34935 (Simulation time: 1 hr 10 min 15 sec) 
Heartbeat CPU 0 instructions: 360000000 cycles: 366451137 heartbeat IPC: 0.606477 cumulative IPC: 0.619947 (Simulation time: 1 hr 10 min 20 sec) 
Heartbeat CPU 3 instructions: 420000000 cycles: 368357137 heartbeat IPC: 0.843489 cumulative IPC: 0.723425 (Simulation time: 1 hr 10 min 38 sec) 
Heartbeat CPU 1 instructions: 600000000 cycles: 373453306 heartbeat IPC: 1.309 cumulative IPC: 1.34819 (Simulation time: 1 hr 11 min 29 sec) 
Heartbeat CPU 2 instructions: 330000003 cycles: 373963929 heartbeat IPC: 0.507901 cumulative IPC: 0.463078 (Simulation time: 1 hr 11 min 33 sec) 
Heartbeat CPU 3 instructions: 430000002 cycles: 380714792 heartbeat IPC: 0.809215 cumulative IPC: 0.727318 (Simulation time: 1 hr 12 min 36 sec) 
Heartbeat CPU 1 instructions: 610000001 cycles: 381352937 heartbeat IPC: 1.26588 cumulative IPC: 1.3458 (Simulation time: 1 hr 12 min 42 sec) 
Heartbeat CPU 0 instructions: 370000001 cycles: 383046424 heartbeat IPC: 0.602581 cumulative IPC: 0.618898 (Simulation time: 1 hr 12 min 59 sec) 
Heartbeat CPU 1 instructions: 620000000 cycles: 388703935 heartbeat IPC: 1.36036 cumulative IPC: 1.34619 (Simulation time: 1 hr 13 min 50 sec) 
Heartbeat CPU 3 instructions: 440000000 cycles: 392670239 heartbeat IPC: 0.836439 cumulative IPC: 0.731906 (Simulation time: 1 hr 14 min 30 sec) 
Heartbeat CPU 2 instructions: 340000000 cycles: 393962062 heartbeat IPC: 0.500047 cumulative IPC: 0.465667 (Simulation time: 1 hr 14 min 42 sec) 
Heartbeat CPU 1 instructions: 630000001 cycles: 395885961 heartbeat IPC: 1.39236 cumulative IPC: 1.34734 (Simulation time: 1 hr 15 min 1 sec) 
Heartbeat CPU 0 instructions: 380000000 cycles: 399448181 heartbeat IPC: 0.609691 cumulative IPC: 0.618379 (Simulation time: 1 hr 15 min 35 sec) 
Heartbeat CPU 1 instructions: 640000000 cycles: 403218783 heartbeat IPC: 1.36373 cumulative IPC: 1.34775 (Simulation time: 1 hr 16 min 11 sec) 
Heartbeat CPU 3 instructions: 450000000 cycles: 406764620 heartbeat IPC: 0.709503 cumulative IPC: 0.730848 (Simulation time: 1 hr 16 min 44 sec) 
Heartbeat CPU 1 instructions: 650000000 cycles: 409769603 heartbeat IPC: 1.52653 cumulative IPC: 1.35163 (Simulation time: 1 hr 17 min 10 sec) 
Heartbeat CPU 0 instructions: 390000000 cycles: 415924607 heartbeat IPC: 0.606928 cumulative IPC: 0.617766 (Simulation time: 1 hr 18 min 3 sec) 
Heartbeat CPU 2 instructions: 350000003 cycles: 416540404 heartbeat IPC: 0.442902 cumulative IPC: 0.463999 (Simulation time: 1 hr 18 min 9 sec) 
Heartbeat CPU 1 instructions: 660000000 cycles: 417222031 heartbeat IPC: 1.34184 cumulative IPC: 1.3514 (Simulation time: 1 hr 18 min 15 sec) 
Heartbeat CPU 1 instructions: 670000001 cycles: 423916054 heartbeat IPC: 1.49387 cumulative IPC: 1.35442 (Simulation time: 1 hr 19 min 14 sec) 
Heartbeat CPU 3 instructions: 460000000 cycles: 424139690 heartbeat IPC: 0.575537 cumulative IPC: 0.722302 (Simulation time: 1 hr 19 min 16 sec) 
Heartbeat CPU 1 instructions: 680000000 cycles: 431968625 heartbeat IPC: 1.24184 cumulative IPC: 1.35162 (Simulation time: 1 hr 20 min 22 sec) 
Heartbeat CPU 0 instructions: 400000000 cycles: 432075557 heartbeat IPC: 0.619159 cumulative IPC: 0.617835 (Simulation time: 1 hr 20 min 24 sec) 
Heartbeat CPU 2 instructions: 360000000 cycles: 436771008 heartbeat IPC: 0.4943 cumulative IPC: 0.465865 (Simulation time: 1 hr 21 min 4 sec) 
Heartbeat CPU 1 instructions: 690000000 cycles: 439793012 heartbeat IPC: 1.27806 cumulative IPC: 1.34988 (Simulation time: 1 hr 21 min 30 sec) 
Heartbeat CPU 3 instructions: 470000002 cycles: 441166688 heartbeat IPC: 0.587303 cumulative IPC: 0.715396 (Simulation time: 1 hr 21 min 42 sec) 
Heartbeat CPU 1 instructions: 700000000 cycles: 446587621 heartbeat IPC: 1.47176 cumulative IPC: 1.35233 (Simulation time: 1 hr 22 min 28 sec) 
Heartbeat CPU 0 instructions: 410000003 cycles: 448554715 heartbeat IPC: 0.606827 cumulative IPC: 0.617302 (Simulation time: 1 hr 22 min 45 sec) 
Heartbeat CPU 1 instructions: 710000001 cycles: 454359290 heartbeat IPC: 1.28673 cumulative IPC: 1.35085 (Simulation time: 1 hr 23 min 37 sec) 
Heartbeat CPU 2 instructions: 370000001 cycles: 457613638 heartbeat IPC: 0.479786 cumulative IPC: 0.466696 (Simulation time: 1 hr 24 min 5 sec) 
Heartbeat CPU 3 instructions: 480000000 cycles: 457879131 heartbeat IPC: 0.598356 cumulative IPC: 0.709799 (Simulation time: 1 hr 24 min 8 sec) 
Heartbeat CPU 1 instructions: 720000000 cycles: 461164470 heartbeat IPC: 1.46947 cumulative IPC: 1.35314 (Simulation time: 1 hr 24 min 37 sec) 
Heartbeat CPU 0 instructions: 420000000 cycles: 465082085 heartbeat IPC: 0.605057 cumulative IPC: 0.616735 (Simulation time: 1 hr 25 min 11 sec) 
Heartbeat CPU 1 instructions: 730000001 cycles: 467718961 heartbeat IPC: 1.52567 cumulative IPC: 1.35629 (Simulation time: 1 hr 25 min 33 sec) 
Heartbeat CPU 3 instructions: 490000000 cycles: 474664735 heartbeat IPC: 0.595749 cumulative IPC: 0.704573 (Simulation time: 1 hr 26 min 33 sec) 
Heartbeat CPU 1 instructions: 740000000 cycles: 475487939 heartbeat IPC: 1.28717 cumulative IPC: 1.35483 (Simulation time: 1 hr 26 min 40 sec) 
Heartbeat CPU 2 instructions: 380000000 cycles: 478208135 heartbeat IPC: 0.485567 cumulative IPC: 0.467747 (Simulation time: 1 hr 27 min 5 sec) 
Heartbeat CPU 0 instructions: 430000000 cycles: 481609237 heartbeat IPC: 0.605065 cumulative IPC: 0.616218 (Simulation time: 1 hr 27 min 35 sec) 
Heartbeat CPU 1 instructions: 750000002 cycles: 482669977 heartbeat IPC: 1.39236 cumulative IPC: 1.35555 (Simulation time: 1 hr 27 min 43 sec) 
Heartbeat CPU 1 instructions: 760000000 cycles: 490586813 heartbeat IPC: 1.26313 cumulative IPC: 1.35363 (Simulation time: 1 hr 28 min 50 sec) 
Heartbeat CPU 3 instructions: 500000000 cycles: 490782612 heartbeat IPC: 0.620429 cumulative IPC: 0.701026 (Simulation time: 1 hr 28 min 51 sec) 
Heartbeat CPU 1 instructions: 770000001 cycles: 497861951 heartbeat IPC: 1.37454 cumulative IPC: 1.35402 (Simulation time: 1 hr 29 min 53 sec) 
Heartbeat CPU 0 instructions: 440000000 cycles: 498148682 heartbeat IPC: 0.604615 cumulative IPC: 0.615726 (Simulation time: 1 hr 29 min 57 sec) 
Heartbeat CPU 3 instructions: 510000002 cycles: 503389343 heartbeat IPC: 0.793227 cumulative IPC: 0.703969 (Simulation time: 1 hr 30 min 47 sec) 
Heartbeat CPU 1 instructions: 780000000 cycles: 505493063 heartbeat IPC: 1.31042 cumulative IPC: 1.35319 (Simulation time: 1 hr 31 min 6 sec) 
Heartbeat CPU 2 instructions: 390000000 cycles: 506833755 heartbeat IPC: 0.349337 cumulative IPC: 0.459241 (Simulation time: 1 hr 31 min 18 sec) 
Heartbeat CPU 1 instructions: 790000003 cycles: 512478395 heartbeat IPC: 1.43157 cumulative IPC: 1.35454 (Simulation time: 1 hr 32 min 13 sec) 
Heartbeat CPU 0 instructions: 450000002 cycles: 514169511 heartbeat IPC: 0.624188 cumulative IPC: 0.61606 (Simulation time: 1 hr 32 min 29 sec) 
Heartbeat CPU 3 instructions: 520000000 cycles: 515712697 heartbeat IPC: 0.811467 cumulative IPC: 0.707221 (Simulation time: 1 hr 32 min 43 sec) 
Heartbeat CPU 1 instructions: 800000000 cycles: 519346138 heartbeat IPC: 1.45608 cumulative IPC: 1.35624 (Simulation time: 1 hr 33 min 17 sec) 
Heartbeat CPU 1 instructions: 810000002 cycles: 527225101 heartbeat IPC: 1.2692 cumulative IPC: 1.3546 (Simulation time: 1 hr 34 min 35 sec) 
Heartbeat CPU 3 instructions: 530000001 cycles: 527595813 heartbeat IPC: 0.84153 cumulative IPC: 0.711028 (Simulation time: 1 hr 34 min 38 sec) 
Heartbeat CPU 2 instructions: 400000000 cycles: 528636828 heartbeat IPC: 0.458651 cumulative IPC: 0.45921 (Simulation time: 1 hr 34 min 49 sec) 
Heartbeat CPU 0 instructions: 460000000 cycles: 530622458 heartbeat IPC: 0.607794 cumulative IPC: 0.615738 (Simulation time: 1 hr 35 min 9 sec) 
Heartbeat CPU 1 instructions: 820000000 cycles: 534572874 heartbeat IPC: 1.36096 cumulative IPC: 1.35471 (Simulation time: 1 hr 35 min 48 sec) 
Heartbeat CPU 3 instructions: 540000000 cycles: 539993203 heartbeat IPC: 0.806621 cumulative IPC: 0.713774 (Simulation time: 1 hr 36 min 38 sec) 
Heartbeat CPU 1 instructions: 830000003 cycles: 542168479 heartbeat IPC: 1.31655 cumulative IPC: 1.35404 (Simulation time: 1 hr 36 min 58 sec) 
Heartbeat CPU 0 instructions: 470000000 cycles: 547213335 heartbeat IPC: 0.602741 cumulative IPC: 0.615246 (Simulation time: 1 hr 37 min 44 sec) 
Heartbeat CPU 2 instructions: 410000000 cycles: 549267509 heartbeat IPC: 0.484715 cumulative IPC: 0.460403 (Simulation time: 1 hr 38 min 2 sec) 
Heartbeat CPU 1 instructions: 840000000 cycles: 549686375 heartbeat IPC: 1.33016 cumulative IPC: 1.35364 (Simulation time: 1 hr 38 min 6 sec) 
Heartbeat CPU 3 instructions: 550000003 cycles: 552160213 heartbeat IPC: 0.821895 cumulative IPC: 0.716738 (Simulation time: 1 hr 38 min 30 sec) 
Heartbeat CPU 1 instructions: 850000002 cycles: 556600296 heartbeat IPC: 1.44636 cumulative IPC: 1.35507 (Simulation time: 1 hr 39 min 13 sec) 
Heartbeat CPU 0 instructions: 480000000 cycles: 563713809 heartbeat IPC: 0.606043 cumulative IPC: 0.614913 (Simulation time: 1 hr 40 min 21 sec) 
Heartbeat CPU 1 instructions: 860000000 cycles: 563909824 heartbeat IPC: 1.36808 cumulative IPC: 1.35527 (Simulation time: 1 hr 40 min 22 sec) 
Heartbeat CPU 3 instructions: 560000000 cycles: 564269793 heartbeat IPC: 0.825792 cumulative IPC: 0.719635 (Simulation time: 1 hr 40 min 25 sec) 
Heartbeat CPU 2 instructions: 420000000 cycles: 570807815 heartbeat IPC: 0.464246 cumulative IPC: 0.460582 (Simulation time: 1 hr 41 min 25 sec) 
Heartbeat CPU 1 instructions: 870000002 cycles: 571433203 heartbeat IPC: 1.32919 cumulative IPC: 1.35485 (Simulation time: 1 hr 41 min 31 sec) 
Heartbeat CPU 3 instructions: 570000003 cycles: 577630426 heartbeat IPC: 0.748468 cumulative IPC: 0.720455 (Simulation time: 1 hr 42 min 28 sec) 
Heartbeat CPU 1 instructions: 880000000 cycles: 579388722 heartbeat IPC: 1.25699 cumulative IPC: 1.3532 (Simulation time: 1 hr 42 min 43 sec) 
Heartbeat CPU 0 instructions: 490000002 cycles: 580385609 heartbeat IPC: 0.599815 cumulative IPC: 0.61438 (Simulation time: 1 hr 42 min 51 sec) 
Heartbeat CPU 1 instructions: 890000002 cycles: 587458592 heartbeat IPC: 1.23918 cumulative IPC: 1.35128 (Simulation time: 1 hr 43 min 47 sec) 
Heartbeat CPU 2 instructions: 430000003 cycles: 592331778 heartbeat IPC: 0.464599 cumulative IPC: 0.460761 (Simulation time: 1 hr 44 min 28 sec) 
Heartbeat CPU 1 instructions: 900000000 cycles: 595503797 heartbeat IPC: 1.24298 cumulative IPC: 1.34949 (Simulation time: 1 hr 44 min 55 sec) 
Heartbeat CPU 3 instructions: 580000000 cycles: 595542926 heartbeat IPC: 0.558269 cumulative IPC: 0.714492 (Simulation time: 1 hr 44 min 55 sec) 
Heartbeat CPU 0 instructions: 500000000 cycles: 596944920 heartbeat IPC: 0.60389 cumulative IPC: 0.614024 (Simulation time: 1 hr 45 min 7 sec) 
Heartbeat CPU 1 instructions: 910000003 cycles: 602572237 heartbeat IPC: 1.41474 cumulative IPC: 1.35042 (Simulation time: 1 hr 45 min 57 sec) 
Heartbeat CPU 1 instructions: 920000000 cycles: 610121256 heartbeat IPC: 1.32468 cumulative IPC: 1.35003 (Simulation time: 1 hr 47 min 0 sec) 
Heartbeat CPU 2 instructions: 440000000 cycles: 611564806 heartbeat IPC: 0.519939 cumulative IPC: 0.463023 (Simulation time: 1 hr 47 min 13 sec) 
Heartbeat CPU 3 instructions: 590000003 cycles: 611592179 heartbeat IPC: 0.623082 cumulative IPC: 0.711577 (Simulation time: 1 hr 47 min 13 sec) 
Heartbeat CPU 0 instructions: 510000000 cycles: 613955530 heartbeat IPC: 0.587868 cumulative IPC: 0.613144 (Simulation time: 1 hr 47 min 34 sec) 
Heartbeat CPU 1 instructions: 930000002 cycles: 616577318 heartbeat IPC: 1.54893 cumulative IPC: 1.35256 (Simulation time: 1 hr 47 min 57 sec) 
Heartbeat CPU 1 instructions: 940000000 cycles: 624472895 heartbeat IPC: 1.26653 cumulative IPC: 1.35124 (Simulation time: 1 hr 49 min 8 sec) 
Heartbeat CPU 3 instructions: 600000000 cycles: 629216444 heartbeat IPC: 0.567399 cumulative IPC: 0.706698 (Simulation time: 1 hr 49 min 52 sec) 
Heartbeat CPU 0 instructions: 520000000 cycles: 630339165 heartbeat IPC: 0.610365 cumulative IPC: 0.613057 (Simulation time: 1 hr 50 min 3 sec) 
Heartbeat CPU 1 instructions: 950000003 cycles: 631537136 heartbeat IPC: 1.41558 cumulative IPC: 1.35211 (Simulation time: 1 hr 50 min 15 sec) 
Heartbeat CPU 2 instructions: 450000000 cycles: 632808994 heartbeat IPC: 0.470717 cumulative IPC: 0.463335 (Simulation time: 1 hr 50 min 27 sec) 
Heartbeat CPU 1 instructions: 960000000 cycles: 639532359 heartbeat IPC: 1.25075 cumulative IPC: 1.35059 (Simulation time: 1 hr 51 min 30 sec) 
Heartbeat CPU 3 instructions: 610000000 cycles: 641668826 heartbeat IPC: 0.803059 cumulative IPC: 0.708948 (Simulation time: 1 hr 51 min 50 sec) 
Heartbeat CPU 0 instructions: 530000003 cycles: 646766243 heartbeat IPC: 0.608751 cumulative IPC: 0.612925 (Simulation time: 1 hr 52 min 34 sec) 
Heartbeat CPU 1 instructions: 970000000 cycles: 647528066 heartbeat IPC: 1.25067 cumulative IPC: 1.34911 (Simulation time: 1 hr 52 min 41 sec) 
Heartbeat CPU 2 instructions: 460000000 cycles: 653499346 heartbeat IPC: 0.483317 cumulative IPC: 0.464093 (Simulation time: 1 hr 53 min 41 sec) 
Heartbeat CPU 3 instructions: 620000000 cycles: 653777858 heartbeat IPC: 0.82583 cumulative IPC: 0.711543 (Simulation time: 1 hr 53 min 43 sec) 
Heartbeat CPU 1 instructions: 980000000 cycles: 654469611 heartbeat IPC: 1.4406 cumulative IPC: 1.35027 (Simulation time: 1 hr 53 min 49 sec) 
Heartbeat CPU 1 instructions: 990000000 cycles: 662204540 heartbeat IPC: 1.29284 cumulative IPC: 1.34947 (Simulation time: 1 hr 55 min 2 sec) 
Heartbeat CPU 0 instructions: 540000000 cycles: 663051201 heartbeat IPC: 0.614063 cumulative IPC: 0.612959 (Simulation time: 1 hr 55 min 10 sec) 
Heartbeat CPU 3 instructions: 630000002 cycles: 665674442 heartbeat IPC: 0.840578 cumulative IPC: 0.714298 (Simulation time: 1 hr 55 min 33 sec) 
Heartbeat CPU 1 instructions: 1000000000 cycles: 668664926 heartbeat IPC: 1.5479 cumulative IPC: 1.35175 (Simulation time: 1 hr 56 min 3 sec) 
Heartbeat CPU 2 instructions: 470000000 cycles: 673956141 heartbeat IPC: 0.488835 cumulative IPC: 0.464988 (Simulation time: 1 hr 56 min 53 sec) 
Heartbeat CPU 1 instructions: 1010000001 cycles: 675793688 heartbeat IPC: 1.40277 cumulative IPC: 1.3524 (Simulation time: 1 hr 57 min 11 sec) 
Heartbeat CPU 3 instructions: 640000000 cycles: 677811979 heartbeat IPC: 0.82389 cumulative IPC: 0.716634 (Simulation time: 1 hr 57 min 30 sec) 
Heartbeat CPU 0 instructions: 550000002 cycles: 679896887 heartbeat IPC: 0.593624 cumulative IPC: 0.612389 (Simulation time: 1 hr 57 min 50 sec) 
Heartbeat CPU 1 instructions: 1020000000 cycles: 682740109 heartbeat IPC: 1.43959 cumulative IPC: 1.35345 (Simulation time: 1 hr 58 min 16 sec) 
Heartbeat CPU 3 instructions: 650000000 cycles: 689750203 heartbeat IPC: 0.837646 cumulative IPC: 0.719118 (Simulation time: 1 hr 59 min 22 sec) 
Heartbeat CPU 1 instructions: 1030000000 cycles: 690562333 heartbeat IPC: 1.27841 cumulative IPC: 1.35244 (Simulation time: 1 hr 59 min 29 sec) 
Heartbeat CPU 2 instructions: 480000000 cycles: 693482184 heartbeat IPC: 0.512137 cumulative IPC: 0.466561 (Simulation time: 1 hr 59 min 55 sec) 
Heartbeat CPU 0 instructions: 560000000 cycles: 696751700 heartbeat IPC: 0.593302 cumulative IPC: 0.611842 (Simulation time: 2 hr 0 min 26 sec) 
Heartbeat CPU 1 instructions: 1040000000 cycles: 698520263 heartbeat IPC: 1.25661 cumulative IPC: 1.35115 (Simulation time: 2 hr 0 min 42 sec) 
Heartbeat CPU 3 instructions: 660000000 cycles: 701779906 heartbeat IPC: 0.831276 cumulative IPC: 0.721392 (Simulation time: 2 hr 1 min 11 sec) 
Heartbeat CPU 1 instructions: 1050000000 cycles: 705404631 heartbeat IPC: 1.45257 cumulative IPC: 1.35232 (Simulation time: 2 hr 1 min 45 sec) 
Heartbeat CPU 2 instructions: 490000001 cycles: 713038386 heartbeat IPC: 0.511347 cumulative IPC: 0.46801 (Simulation time: 2 hr 2 min 58 sec) 
Heartbeat CPU 1 instructions: 1060000000 cycles: 713142805 heartbeat IPC: 1.29229 cumulative IPC: 1.35155 (Simulation time: 2 hr 2 min 59 sec) 
Heartbeat CPU 0 instructions: 570000000 cycles: 713706318 heartbeat IPC: 0.58981 cumulative IPC: 0.611225 (Simulation time: 2 hr 3 min 4 sec) 
Heartbeat CPU 3 instructions: 670000000 cycles: 714091594 heartbeat IPC: 0.812236 cumulative IPC: 0.723239 (Simulation time: 2 hr 3 min 8 sec) 
Heartbeat CPU 1 instructions: 1070000001 cycles: 720133720 heartbeat IPC: 1.43043 cumulative IPC: 1.35245 (Simulation time: 2 hr 4 min 7 sec) 
Heartbeat CPU 1 instructions: 1080000000 cycles: 726456655 heartbeat IPC: 1.58154 cumulative IPC: 1.3548 (Simulation time: 2 hr 5 min 2 sec) 
Heartbeat CPU 0 instructions: 580000000 cycles: 730360067 heartbeat IPC: 0.600465 cumulative IPC: 0.610937 (Simulation time: 2 hr 5 min 34 sec) 
Heartbeat CPU 3 instructions: 680000000 cycles: 731906289 heartbeat IPC: 0.561334 cumulative IPC: 0.718613 (Simulation time: 2 hr 5 min 46 sec) 
Heartbeat CPU 1 instructions: 1090000003 cycles: 734185316 heartbeat IPC: 1.29389 cumulative IPC: 1.35404 (Simulation time: 2 hr 6 min 4 sec) 
Heartbeat CPU 1 instructions: 1100000000 cycles: 741165238 heartbeat IPC: 1.43268 cumulative IPC: 1.35491 (Simulation time: 2 hr 7 min 5 sec) 
Heartbeat CPU 2 instructions: 500000000 cycles: 741604434 heartbeat IPC: 0.350066 cumulative IPC: 0.462689 (Simulation time: 2 hr 7 min 9 sec) 
Heartbeat CPU 0 instructions: 590000002 cycles: 746514930 heartbeat IPC: 0.619009 cumulative IPC: 0.611141 (Simulation time: 2 hr 7 min 52 sec) 
Heartbeat CPU 3 instructions: 690000002 cycles: 748995769 heartbeat IPC: 0.585155 cumulative IPC: 0.715053 (Simulation time: 2 hr 8 min 12 sec) 
Heartbeat CPU 1 instructions: 1110000000 cycles: 749043834 heartbeat IPC: 1.26926 cumulative IPC: 1.35386 (Simulation time: 2 hr 8 min 13 sec) 
Heartbeat CPU 1 instructions: 1120000000 cycles: 756603768 heartbeat IPC: 1.32276 cumulative IPC: 1.3535 (Simulation time: 2 hr 9 min 15 sec) 
Heartbeat CPU 0 instructions: 600000000 cycles: 763243189 heartbeat IPC: 0.597791 cumulative IPC: 0.6108 (Simulation time: 2 hr 10 min 17 sec) 
Heartbeat CPU 1 instructions: 1130000000 cycles: 763762423 heartbeat IPC: 1.39691 cumulative IPC: 1.35397 (Simulation time: 2 hr 10 min 21 sec) 
Heartbeat CPU 3 instructions: 700000000 cycles: 764603425 heartbeat IPC: 0.640711 cumulative IPC: 0.713285 (Simulation time: 2 hr 10 min 29 sec) 
Heartbeat CPU 2 instructions: 510000002 cycles: 764688057 heartbeat IPC: 0.433208 cumulative IPC: 0.461652 (Simulation time: 2 hr 10 min 30 sec) 
Heartbeat CPU 1 instructions: 1140000000 cycles: 771151824 heartbeat IPC: 1.35329 cumulative IPC: 1.35396 (Simulation time: 2 hr 11 min 32 sec) 
Heartbeat CPU 1 instructions: 1150000001 cycles: 777582979 heartbeat IPC: 1.55493 cumulative IPC: 1.35589 (Simulation time: 2 hr 12 min 31 sec) 
Heartbeat CPU 0 instructions: 610000001 cycles: 779841293 heartbeat IPC: 0.602479 cumulative IPC: 0.610595 (Simulation time: 2 hr 12 min 54 sec) 
Heartbeat CPU 3 instructions: 710000003 cycles: 781272314 heartbeat IPC: 0.59992 cumulative IPC: 0.710477 (Simulation time: 2 hr 13 min 7 sec) 
Heartbeat CPU 1 instructions: 1160000000 cycles: 785264639 heartbeat IPC: 1.3018 cumulative IPC: 1.35528 (Simulation time: 2 hr 13 min 43 sec) 
Heartbeat CPU 2 instructions: 520000000 cycles: 786679449 heartbeat IPC: 0.454723 cumulative IPC: 0.461428 (Simulation time: 2 hr 13 min 56 sec) 
Heartbeat CPU 1 instructions: 1170000001 cycles: 792241151 heartbeat IPC: 1.43338 cumulative IPC: 1.35608 (Simulation time: 2 hr 14 min 48 sec) 
Heartbeat CPU 3 instructions: 720000000 cycles: 793339910 heartbeat IPC: 0.828665 cumulative IPC: 0.712559 (Simulation time: 2 hr 14 min 58 sec) 
Heartbeat CPU 0 instructions: 620000000 cycles: 796747940 heartbeat IPC: 0.591483 cumulative IPC: 0.610125 (Simulation time: 2 hr 15 min 30 sec) 
Heartbeat CPU 1 instructions: 1180000000 cycles: 800305955 heartbeat IPC: 1.23996 cumulative IPC: 1.35472 (Simulation time: 2 hr 16 min 3 sec) 
Heartbeat CPU 3 instructions: 730000001 cycles: 805463261 heartbeat IPC: 0.824855 cumulative IPC: 0.714512 (Simulation time: 2 hr 16 min 50 sec) 
Heartbeat CPU 1 instructions: 1190000000 cycles: 808108127 heartbeat IPC: 1.28169 cumulative IPC: 1.35391 (Simulation time: 2 hr 17 min 14 sec) 
Heartbeat CPU 2 instructions: 530000003 cycles: 808443559 heartbeat IPC: 0.459472 cumulative IPC: 0.461367 (Simulation time: 2 hr 17 min 17 sec) 
Heartbeat CPU 0 instructions: 630000003 cycles: 813489088 heartbeat IPC: 0.597331 cumulative IPC: 0.609821 (Simulation time: 2 hr 18 min 5 sec) 
Heartbeat CPU 1 instructions: 1200000000 cycles: 815310974 heartbeat IPC: 1.38834 cumulative IPC: 1.35426 (Simulation time: 2 hr 18 min 23 sec) 
Heartbeat CPU 3 instructions: 740000000 cycles: 817532664 heartbeat IPC: 0.828541 cumulative IPC: 0.716452 (Simulation time: 2 hr 18 min 43 sec) 
Heartbeat CPU 1 instructions: 1210000003 cycles: 822759060 heartbeat IPC: 1.34263 cumulative IPC: 1.35414 (Simulation time: 2 hr 19 min 33 sec) 
Heartbeat CPU 2 instructions: 540000000 cycles: 828532132 heartbeat IPC: 0.497795 cumulative IPC: 0.462383 (Simulation time: 2 hr 20 min 27 sec) 
Heartbeat CPU 3 instructions: 750000002 cycles: 829387417 heartbeat IPC: 0.843544 cumulative IPC: 0.718542 (Simulation time: 2 hr 20 min 34 sec) 
Heartbeat CPU 1 instructions: 1220000000 cycles: 829493120 heartbeat IPC: 1.48499 cumulative IPC: 1.35536 (Simulation time: 2 hr 20 min 35 sec) 
Heartbeat CPU 0 instructions: 640000000 cycles: 830330695 heartbeat IPC: 0.593767 cumulative IPC: 0.609447 (Simulation time: 2 hr 20 min 43 sec) 
Heartbeat CPU 1 instructions: 1230000000 cycles: 837540787 heartbeat IPC: 1.2426 cumulative IPC: 1.35412 (Simulation time: 2 hr 21 min 51 sec) 
Heartbeat CPU 3 instructions: 760000000 cycles: 841457300 heartbeat IPC: 0.828508 cumulative IPC: 0.720352 (Simulation time: 2 hr 22 min 29 sec) 
Heartbeat CPU 1 instructions: 1240000000 cycles: 844564677 heartbeat IPC: 1.42371 cumulative IPC: 1.35478 (Simulation time: 2 hr 22 min 58 sec) 
Finished CPU 1 instructions: 1000000000 cycles: 738298572 cumulative IPC: 1.35447 (Simulation time: 2 hr 23 min 16 sec) 
Heartbeat CPU 0 instructions: 650000003 cycles: 847306712 heartbeat IPC: 0.589067 cumulative IPC: 0.608979 (Simulation time: 2 hr 23 min 22 sec) 
Heartbeat CPU 2 instructions: 550000001 cycles: 848472040 heartbeat IPC: 0.501507 cumulative IPC: 0.463437 (Simulation time: 2 hr 23 min 32 sec) 
Heartbeat CPU 1 instructions: 1250000003 cycles: 852637588 heartbeat IPC: 1.23871 cumulative IPC: 1.35352 (Simulation time: 2 hr 24 min 11 sec) 
Heartbeat CPU 3 instructions: 770000001 cycles: 853424420 heartbeat IPC: 0.835623 cumulative IPC: 0.722204 (Simulation time: 2 hr 24 min 18 sec) 
Heartbeat CPU 1 instructions: 1260000000 cycles: 859631873 heartbeat IPC: 1.42974 cumulative IPC: 1.35423 (Simulation time: 2 hr 25 min 18 sec) 
Heartbeat CPU 0 instructions: 660000000 cycles: 863869994 heartbeat IPC: 0.603745 cumulative IPC: 0.608864 (Simulation time: 2 hr 25 min 57 sec) 
Heartbeat CPU 1 instructions: 1270000001 cycles: 866926322 heartbeat IPC: 1.37091 cumulative IPC: 1.35439 (Simulation time: 2 hr 26 min 26 sec) 
Heartbeat CPU 3 instructions: 780000000 cycles: 866989012 heartbeat IPC: 0.737213 cumulative IPC: 0.722472 (Simulation time: 2 hr 26 min 26 sec) 
Heartbeat CPU 2 instructions: 560000000 cycles: 869080944 heartbeat IPC: 0.485227 cumulative IPC: 0.464027 (Simulation time: 2 hr 26 min 46 sec) 
Heartbeat CPU 1 instructions: 1280000000 cycles: 873893339 heartbeat IPC: 1.43533 cumulative IPC: 1.35513 (Simulation time: 2 hr 27 min 28 sec) 
Heartbeat CPU 0 instructions: 670000000 cycles: 880572395 heartbeat IPC: 0.598716 cumulative IPC: 0.608645 (Simulation time: 2 hr 28 min 21 sec) 
Heartbeat CPU 1 instructions: 1290000000 cycles: 881921548 heartbeat IPC: 1.24561 cumulative IPC: 1.35399 (Simulation time: 2 hr 28 min 33 sec) 
Heartbeat CPU 3 instructions: 790000001 cycles: 885784930 heartbeat IPC: 0.53203 cumulative IPC: 0.717868 (Simulation time: 2 hr 29 min 7 sec) 
Heartbeat CPU 1 instructions: 1300000000 cycles: 889490041 heartbeat IPC: 1.32127 cumulative IPC: 1.35367 (Simulation time: 2 hr 29 min 37 sec) 
Heartbeat CPU 2 instructions: 570000001 cycles: 890632418 heartbeat IPC: 0.464005 cumulative IPC: 0.464027 (Simulation time: 2 hr 29 min 46 sec) 
Heartbeat CPU 0 instructions: 680000000 cycles: 897298572 heartbeat IPC: 0.597865 cumulative IPC: 0.608416 (Simulation time: 2 hr 30 min 43 sec) 
Heartbeat CPU 1 instructions: 1310000001 cycles: 897796745 heartbeat IPC: 1.20385 cumulative IPC: 1.3521 (Simulation time: 2 hr 30 min 47 sec) 
Heartbeat CPU 3 instructions: 800000000 cycles: 901781525 heartbeat IPC: 0.625133 cumulative IPC: 0.715998 (Simulation time: 2 hr 31 min 20 sec) 
Heartbeat CPU 1 instructions: 1320000000 cycles: 905901446 heartbeat IPC: 1.23385 cumulative IPC: 1.3509 (Simulation time: 2 hr 31 min 56 sec) 
Heartbeat CPU 2 instructions: 580000000 cycles: 910602342 heartbeat IPC: 0.500753 cumulative IPC: 0.464941 (Simulation time: 2 hr 32 min 34 sec) 
Heartbeat CPU 1 instructions: 1330000003 cycles: 912807736 heartbeat IPC: 1.44796 cumulative IPC: 1.35173 (Simulation time: 2 hr 32 min 55 sec) 
Heartbeat CPU 0 instructions: 690000002 cycles: 913616107 heartbeat IPC: 0.612838 cumulative IPC: 0.608506 (Simulation time: 2 hr 33 min 2 sec) 
Heartbeat CPU 3 instructions: 810000000 cycles: 920371214 heartbeat IPC: 0.537933 cumulative IPC: 0.711922 (Simulation time: 2 hr 34 min 2 sec) 
Heartbeat CPU 1 instructions: 1340000000 cycles: 920635329 heartbeat IPC: 1.27753 cumulative IPC: 1.35101 (Simulation time: 2 hr 34 min 5 sec) 
Heartbeat CPU 1 instructions: 1350000000 cycles: 927189503 heartbeat IPC: 1.52575 cumulative IPC: 1.35241 (Simulation time: 2 hr 35 min 4 sec) 
Heartbeat CPU 0 instructions: 700000000 cycles: 930461641 heartbeat IPC: 0.593629 cumulative IPC: 0.608201 (Simulation time: 2 hr 35 min 31 sec) 
Heartbeat CPU 2 instructions: 590000000 cycles: 932654949 heartbeat IPC: 0.453461 cumulative IPC: 0.464634 (Simulation time: 2 hr 35 min 49 sec) 
Heartbeat CPU 1 instructions: 1360000000 cycles: 935101784 heartbeat IPC: 1.26386 cumulative IPC: 1.35156 (Simulation time: 2 hr 36 min 9 sec) 
Heartbeat CPU 3 instructions: 820000000 cycles: 937728409 heartbeat IPC: 0.57613 cumulative IPC: 0.70908 (Simulation time: 2 hr 36 min 33 sec) 
Heartbeat CPU 1 instructions: 1370000000 cycles: 942355597 heartbeat IPC: 1.37859 cumulative IPC: 1.3518 (Simulation time: 2 hr 37 min 13 sec) 
Heartbeat CPU 0 instructions: 710000001 cycles: 946539952 heartbeat IPC: 0.621956 cumulative IPC: 0.608465 (Simulation time: 2 hr 37 min 49 sec) 
Heartbeat CPU 1 instructions: 1380000000 cycles: 950281242 heartbeat IPC: 1.26173 cumulative IPC: 1.35095 (Simulation time: 2 hr 38 min 21 sec) 
Heartbeat CPU 3 instructions: 830000002 cycles: 954042238 heartbeat IPC: 0.612977 cumulative IPC: 0.707226 (Simulation time: 2 hr 38 min 51 sec) 
Heartbeat CPU 2 instructions: 600000000 cycles: 954202785 heartbeat IPC: 0.464084 cumulative IPC: 0.46462 (Simulation time: 2 hr 38 min 52 sec) 
Heartbeat CPU 1 instructions: 1390000002 cycles: 957860958 heartbeat IPC: 1.31931 cumulative IPC: 1.35067 (Simulation time: 2 hr 39 min 24 sec) 
Heartbeat CPU 0 instructions: 720000000 cycles: 962904137 heartbeat IPC: 0.611091 cumulative IPC: 0.608515 (Simulation time: 2 hr 40 min 8 sec) 
Heartbeat CPU 1 instructions: 1400000000 cycles: 965560668 heartbeat IPC: 1.29875 cumulative IPC: 1.3502 (Simulation time: 2 hr 40 min 32 sec) 
Heartbeat CPU 3 instructions: 840000000 cycles: 968907066 heartbeat IPC: 0.672729 cumulative IPC: 0.70663 (Simulation time: 2 hr 41 min 3 sec) 
Heartbeat CPU 1 instructions: 1410000002 cycles: 972452067 heartbeat IPC: 1.45108 cumulative IPC: 1.35101 (Simulation time: 2 hr 41 min 36 sec) 
Heartbeat CPU 2 instructions: 610000001 cycles: 974554193 heartbeat IPC: 0.491367 cumulative IPC: 0.465248 (Simulation time: 2 hr 41 min 56 sec) 
Heartbeat CPU 0 instructions: 730000002 cycles: 978877410 heartbeat IPC: 0.626046 cumulative IPC: 0.608837 (Simulation time: 2 hr 42 min 38 sec) 
Heartbeat CPU 1 instructions: 1420000000 cycles: 979040844 heartbeat IPC: 1.51773 cumulative IPC: 1.35227 (Simulation time: 2 hr 42 min 39 sec) 
Heartbeat CPU 3 instructions: 850000002 cycles: 980887815 heartbeat IPC: 0.834673 cumulative IPC: 0.708388 (Simulation time: 2 hr 42 min 54 sec) 
Heartbeat CPU 1 instructions: 1430000003 cycles: 986744854 heartbeat IPC: 1.29803 cumulative IPC: 1.35179 (Simulation time: 2 hr 43 min 50 sec) 
Heartbeat CPU 3 instructions: 860000000 cycles: 993407560 heartbeat IPC: 0.798738 cumulative IPC: 0.709666 (Simulation time: 2 hr 44 min 52 sec) 
Heartbeat CPU 1 instructions: 1440000000 cycles: 994340274 heartbeat IPC: 1.31658 cumulative IPC: 1.35149 (Simulation time: 2 hr 45 min 1 sec) 
Heartbeat CPU 0 instructions: 740000000 cycles: 995133604 heartbeat IPC: 0.61515 cumulative IPC: 0.608952 (Simulation time: 2 hr 45 min 9 sec) 
Heartbeat CPU 1 instructions: 1450000003 cycles: 1002363196 heartbeat IPC: 1.24643 cumulative IPC: 1.35055 (Simulation time: 2 hr 46 min 14 sec) 
Heartbeat CPU 2 instructions: 620000000 cycles: 1004996679 heartbeat IPC: 0.328488 cumulative IPC: 0.460605 (Simulation time: 2 hr 46 min 38 sec) 
Heartbeat CPU 3 instructions: 870000000 cycles: 1005376889 heartbeat IPC: 0.835469 cumulative IPC: 0.711345 (Simulation time: 2 hr 46 min 42 sec) 
Heartbeat CPU 1 instructions: 1460000000 cycles: 1009528090 heartbeat IPC: 1.39569 cumulative IPC: 1.35091 (Simulation time: 2 hr 47 min 24 sec) 
Heartbeat CPU 0 instructions: 750000001 cycles: 1011534636 heartbeat IPC: 0.609718 cumulative IPC: 0.608966 (Simulation time: 2 hr 47 min 45 sec) 
Heartbeat CPU 1 instructions: 1470000002 cycles: 1017193572 heartbeat IPC: 1.30455 cumulative IPC: 1.35052 (Simulation time: 2 hr 48 min 41 sec) 
Heartbeat CPU 3 instructions: 880000000 cycles: 1017389680 heartbeat IPC: 0.832446 cumulative IPC: 0.712945 (Simulation time: 2 hr 48 min 43 sec) 
Heartbeat CPU 2 instructions: 630000000 cycles: 1023233753 heartbeat IPC: 0.548334 cumulative IPC: 0.462354 (Simulation time: 2 hr 49 min 38 sec) 
Heartbeat CPU 1 instructions: 1480000000 cycles: 1024338093 heartbeat IPC: 1.39967 cumulative IPC: 1.3509 (Simulation time: 2 hr 49 min 48 sec) 
Heartbeat CPU 0 instructions: 760000000 cycles: 1027884556 heartbeat IPC: 0.611624 cumulative IPC: 0.609013 (Simulation time: 2 hr 50 min 24 sec) 
Heartbeat CPU 3 instructions: 890000001 cycles: 1029733741 heartbeat IPC: 0.810106 cumulative IPC: 0.714247 (Simulation time: 2 hr 50 min 42 sec) 
Heartbeat CPU 1 instructions: 1490000002 cycles: 1030795841 heartbeat IPC: 1.54853 cumulative IPC: 1.35228 (Simulation time: 2 hr 50 min 52 sec) 
Heartbeat CPU 1 instructions: 1500000000 cycles: 1038494380 heartbeat IPC: 1.29895 cumulative IPC: 1.35184 (Simulation time: 2 hr 52 min 3 sec) 
Heartbeat CPU 3 instructions: 900000000 cycles: 1041623089 heartbeat IPC: 0.841089 cumulative IPC: 0.715863 (Simulation time: 2 hr 52 min 34 sec) 
Heartbeat CPU 2 instructions: 640000000 cycles: 1044066548 heartbeat IPC: 0.480012 cumulative IPC: 0.462747 (Simulation time: 2 hr 52 min 56 sec) 
Heartbeat CPU 0 instructions: 770000003 cycles: 1044343147 heartbeat IPC: 0.607586 cumulative IPC: 0.608988 (Simulation time: 2 hr 52 min 58 sec) 
Heartbeat CPU 1 instructions: 1510000000 cycles: 1045876771 heartbeat IPC: 1.35457 cumulative IPC: 1.35186 (Simulation time: 2 hr 53 min 13 sec) 
Heartbeat CPU 1 instructions: 1520000000 cycles: 1053821259 heartbeat IPC: 1.25873 cumulative IPC: 1.35108 (Simulation time: 2 hr 54 min 24 sec) 
Heartbeat CPU 3 instructions: 910000002 cycles: 1055604393 heartbeat IPC: 0.715241 cumulative IPC: 0.715854 (Simulation time: 2 hr 54 min 38 sec) 
Heartbeat CPU 0 instructions: 780000000 cycles: 1060778820 heartbeat IPC: 0.608432 cumulative IPC: 0.608979 (Simulation time: 2 hr 55 min 24 sec) 
Heartbeat CPU 1 instructions: 1530000000 cycles: 1061356881 heartbeat IPC: 1.32703 cumulative IPC: 1.35089 (Simulation time: 2 hr 55 min 29 sec) 
Heartbeat CPU 2 instructions: 650000003 cycles: 1064296493 heartbeat IPC: 0.494317 cumulative IPC: 0.463415 (Simulation time: 2 hr 55 min 54 sec) 
Heartbeat CPU 1 instructions: 1540000000 cycles: 1068629791 heartbeat IPC: 1.37497 cumulative IPC: 1.35107 (Simulation time: 2 hr 56 min 31 sec) 
Heartbeat CPU 3 instructions: 920000000 cycles: 1072612118 heartbeat IPC: 0.587968 cumulative IPC: 0.713598 (Simulation time: 2 hr 57 min 4 sec) 
Heartbeat CPU 1 instructions: 1550000000 cycles: 1075817992 heartbeat IPC: 1.39117 cumulative IPC: 1.35137 (Simulation time: 2 hr 57 min 31 sec) 
Heartbeat CPU 0 instructions: 790000000 cycles: 1077168014 heartbeat IPC: 0.610158 cumulative IPC: 0.608999 (Simulation time: 2 hr 57 min 45 sec) 
Heartbeat CPU 1 instructions: 1560000000 cycles: 1082352396 heartbeat IPC: 1.53036 cumulative IPC: 1.35257 (Simulation time: 2 hr 58 min 31 sec) 
Heartbeat CPU 2 instructions: 660000000 cycles: 1084391036 heartbeat IPC: 0.497647 cumulative IPC: 0.46412 (Simulation time: 2 hr 58 min 48 sec) 
Heartbeat CPU 3 instructions: 930000001 cycles: 1089365765 heartbeat IPC: 0.596885 cumulative IPC: 0.711605 (Simulation time: 2 hr 59 min 32 sec) 
Heartbeat CPU 1 instructions: 1570000000 cycles: 1090183328 heartbeat IPC: 1.27699 cumulative IPC: 1.35197 (Simulation time: 2 hr 59 min 39 sec) 
Heartbeat CPU 0 instructions: 800000000 cycles: 1093128813 heartbeat IPC: 0.626535 cumulative IPC: 0.609283 (Simulation time: 3 hr 0 min 5 sec) 
Heartbeat CPU 1 instructions: 1580000000 cycles: 1097600761 heartbeat IPC: 1.34818 cumulative IPC: 1.35194 (Simulation time: 3 hr 0 min 46 sec) 
Heartbeat CPU 3 instructions: 940000000 cycles: 1101904928 heartbeat IPC: 0.797501 cumulative IPC: 0.712689 (Simulation time: 3 hr 1 min 26 sec) 
Heartbeat CPU 2 instructions: 670000000 cycles: 1104498361 heartbeat IPC: 0.497331 cumulative IPC: 0.46479 (Simulation time: 3 hr 1 min 50 sec) 
Heartbeat CPU 1 instructions: 1590000002 cycles: 1105670361 heartbeat IPC: 1.23922 cumulative IPC: 1.35103 (Simulation time: 3 hr 2 min 2 sec) 
Heartbeat CPU 0 instructions: 810000000 cycles: 1109258020 heartbeat IPC: 0.619993 cumulative IPC: 0.609456 (Simulation time: 3 hr 2 min 36 sec) 
Heartbeat CPU 1 instructions: 1600000000 cycles: 1113127749 heartbeat IPC: 1.34095 cumulative IPC: 1.35095 (Simulation time: 3 hr 3 min 11 sec) 
Heartbeat CPU 3 instructions: 950000000 cycles: 1113862534 heartbeat IPC: 0.836288 cumulative IPC: 0.714159 (Simulation time: 3 hr 3 min 18 sec) 
Heartbeat CPU 1 instructions: 1610000003 cycles: 1120811017 heartbeat IPC: 1.30153 cumulative IPC: 1.35058 (Simulation time: 3 hr 4 min 24 sec) 
Heartbeat CPU 2 instructions: 680000000 cycles: 1124710707 heartbeat IPC: 0.494747 cumulative IPC: 0.465386 (Simulation time: 3 hr 5 min 1 sec) 
Heartbeat CPU 0 instructions: 820000000 cycles: 1125330031 heartbeat IPC: 0.6222 cumulative IPC: 0.609657 (Simulation time: 3 hr 5 min 7 sec) 
Heartbeat CPU 3 instructions: 960000000 cycles: 1125971255 heartbeat IPC: 0.825851 cumulative IPC: 0.715488 (Simulation time: 3 hr 5 min 13 sec) 
Heartbeat CPU 1 instructions: 1620000000 cycles: 1127658670 heartbeat IPC: 1.46035 cumulative IPC: 1.35132 (Simulation time: 3 hr 5 min 30 sec) 
Heartbeat CPU 1 instructions: 1630000000 cycles: 1134914395 heartbeat IPC: 1.37822 cumulative IPC: 1.35151 (Simulation time: 3 hr 6 min 36 sec) 
Heartbeat CPU 3 instructions: 970000001 cycles: 1137988728 heartbeat IPC: 0.832122 cumulative IPC: 0.716849 (Simulation time: 3 hr 7 min 5 sec) 
Heartbeat CPU 0 instructions: 830000001 cycles: 1141892493 heartbeat IPC: 0.603775 cumulative IPC: 0.609563 (Simulation time: 3 hr 7 min 42 sec) 
Heartbeat CPU 1 instructions: 1640000000 cycles: 1142517218 heartbeat IPC: 1.3153 cumulative IPC: 1.35124 (Simulation time: 3 hr 7 min 48 sec) 
Heartbeat CPU 2 instructions: 690000000 cycles: 1144883805 heartbeat IPC: 0.49571 cumulative IPC: 0.465976 (Simulation time: 3 hr 8 min 11 sec) 
Heartbeat CPU 3 instructions: 980000000 cycles: 1150033137 heartbeat IPC: 0.830261 cumulative IPC: 0.71816 (Simulation time: 3 hr 8 min 59 sec) 
Heartbeat CPU 1 instructions: 1650000000 cycles: 1150195268 heartbeat IPC: 1.30241 cumulative IPC: 1.35088 (Simulation time: 3 hr 9 min 0 sec) 
Heartbeat CPU 1 instructions: 1660000000 cycles: 1157624734 heartbeat IPC: 1.34599 cumulative IPC: 1.35085 (Simulation time: 3 hr 10 min 9 sec) 
Heartbeat CPU 0 instructions: 840000000 cycles: 1158178975 heartbeat IPC: 0.614006 cumulative IPC: 0.609632 (Simulation time: 3 hr 10 min 14 sec) 
Heartbeat CPU 3 instructions: 990000003 cycles: 1162056503 heartbeat IPC: 0.831714 cumulative IPC: 0.719456 (Simulation time: 3 hr 10 min 51 sec) 
Heartbeat CPU 2 instructions: 700000000 cycles: 1164994616 heartbeat IPC: 0.497245 cumulative IPC: 0.466571 (Simulation time: 3 hr 11 min 18 sec) 
Heartbeat CPU 1 instructions: 1670000000 cycles: 1165222651 heartbeat IPC: 1.31615 cumulative IPC: 1.3506 (Simulation time: 3 hr 11 min 21 sec) 
Heartbeat CPU 1 instructions: 1680000000 cycles: 1172044220 heartbeat IPC: 1.46594 cumulative IPC: 1.35134 (Simulation time: 3 hr 12 min 25 sec) 
Heartbeat CPU 3 instructions: 1000000000 cycles: 1173946758 heartbeat IPC: 0.841025 cumulative IPC: 0.720813 (Simulation time: 3 hr 12 min 43 sec) 
Heartbeat CPU 0 instructions: 850000001 cycles: 1174331358 heartbeat IPC: 0.619104 cumulative IPC: 0.609775 (Simulation time: 3 hr 12 min 46 sec) 
Heartbeat CPU 1 instructions: 1690000001 cycles: 1179693824 heartbeat IPC: 1.30726 cumulative IPC: 1.35102 (Simulation time: 3 hr 13 min 37 sec) 
Heartbeat CPU 2 instructions: 710000003 cycles: 1186127134 heartbeat IPC: 0.473205 cumulative IPC: 0.466701 (Simulation time: 3 hr 14 min 37 sec) 
Heartbeat CPU 1 instructions: 1700000000 cycles: 1186965003 heartbeat IPC: 1.37529 cumulative IPC: 1.35118 (Simulation time: 3 hr 14 min 46 sec) 
Heartbeat CPU 3 instructions: 1010000003 cycles: 1189153655 heartbeat IPC: 0.657597 cumulative IPC: 0.719923 (Simulation time: 3 hr 15 min 5 sec) 
Heartbeat CPU 0 instructions: 860000000 cycles: 1191104332 heartbeat IPC: 0.596197 cumulative IPC: 0.609565 (Simulation time: 3 hr 15 min 21 sec) 
Heartbeat CPU 1 instructions: 1710000002 cycles: 1195249538 heartbeat IPC: 1.20707 cumulative IPC: 1.35009 (Simulation time: 3 hr 15 min 54 sec) 
Heartbeat CPU 1 instructions: 1720000000 cycles: 1203049241 heartbeat IPC: 1.2821 cumulative IPC: 1.3496 (Simulation time: 3 hr 17 min 1 sec) 
Heartbeat CPU 3 instructions: 1020000000 cycles: 1205942245 heartbeat IPC: 0.595642 cumulative IPC: 0.718022 (Simulation time: 3 hr 17 min 26 sec) 
Heartbeat CPU 2 instructions: 720000000 cycles: 1206574078 heartbeat IPC: 0.489071 cumulative IPC: 0.467118 (Simulation time: 3 hr 17 min 32 sec) 
Heartbeat CPU 0 instructions: 870000000 cycles: 1207560877 heartbeat IPC: 0.607661 cumulative IPC: 0.609536 (Simulation time: 3 hr 17 min 40 sec) 
Heartbeat CPU 1 instructions: 1730000002 cycles: 1210623724 heartbeat IPC: 1.32022 cumulative IPC: 1.3494 (Simulation time: 3 hr 18 min 6 sec) 
Heartbeat CPU 1 instructions: 1740000000 cycles: 1217582987 heartbeat IPC: 1.43693 cumulative IPC: 1.34995 (Simulation time: 3 hr 19 min 6 sec) 
Heartbeat CPU 3 instructions: 1030000003 cycles: 1222410831 heartbeat IPC: 0.607217 cumulative IPC: 0.716384 (Simulation time: 3 hr 19 min 43 sec) 
Heartbeat CPU 0 instructions: 880000000 cycles: 1223622168 heartbeat IPC: 0.622615 cumulative IPC: 0.609725 (Simulation time: 3 hr 19 min 53 sec) 
Heartbeat CPU 1 instructions: 1750000003 cycles: 1225053976 heartbeat IPC: 1.33851 cumulative IPC: 1.34987 (Simulation time: 3 hr 20 min 6 sec) 
Heartbeat CPU 1 instructions: 1760000000 cycles: 1232640887 heartbeat IPC: 1.31806 cumulative IPC: 1.34966 (Simulation time: 3 hr 21 min 13 sec) 
Heartbeat CPU 2 instructions: 730000002 cycles: 1234081276 heartbeat IPC: 0.363541 cumulative IPC: 0.464587 (Simulation time: 3 hr 21 min 27 sec) 
Heartbeat CPU 3 instructions: 1040000000 cycles: 1236927174 heartbeat IPC: 0.688879 cumulative IPC: 0.71603 (Simulation time: 3 hr 21 min 54 sec) 
Heartbeat CPU 0 instructions: 890000003 cycles: 1240350490 heartbeat IPC: 0.597789 cumulative IPC: 0.609548 (Simulation time: 3 hr 22 min 25 sec) 
Heartbeat CPU 1 instructions: 1770000002 cycles: 1240509514 heartbeat IPC: 1.27087 cumulative IPC: 1.34911 (Simulation time: 3 hr 22 min 26 sec) 
Heartbeat CPU 1 instructions: 1780000000 cycles: 1247505572 heartbeat IPC: 1.42938 cumulative IPC: 1.3496 (Simulation time: 3 hr 23 min 31 sec) 
Heartbeat CPU 3 instructions: 1050000000 cycles: 1248785495 heartbeat IPC: 0.84329 cumulative IPC: 0.717354 (Simulation time: 3 hr 23 min 43 sec) 
Heartbeat CPU 1 instructions: 1790000001 cycles: 1254963800 heartbeat IPC: 1.3408 cumulative IPC: 1.34955 (Simulation time: 3 hr 24 min 46 sec) 
Heartbeat CPU 2 instructions: 740000000 cycles: 1256289495 heartbeat IPC: 0.450284 cumulative IPC: 0.46431 (Simulation time: 3 hr 25 min 0 sec) 
Heartbeat CPU 0 instructions: 900000000 cycles: 1256793083 heartbeat IPC: 0.608176 cumulative IPC: 0.609529 (Simulation time: 3 hr 25 min 5 sec) 
Heartbeat CPU 3 instructions: 1060000000 cycles: 1260918608 heartbeat IPC: 0.824191 cumulative IPC: 0.718478 (Simulation time: 3 hr 25 min 46 sec) 
Heartbeat CPU 1 instructions: 1800000000 cycles: 1261838019 heartbeat IPC: 1.45471 cumulative IPC: 1.35017 (Simulation time: 3 hr 25 min 54 sec) 
Heartbeat CPU 1 instructions: 1810000000 cycles: 1269564609 heartbeat IPC: 1.29423 cumulative IPC: 1.3498 (Simulation time: 3 hr 27 min 5 sec) 
Heartbeat CPU 3 instructions: 1070000000 cycles: 1273251823 heartbeat IPC: 0.810819 cumulative IPC: 0.719456 (Simulation time: 3 hr 27 min 39 sec) 
Heartbeat CPU 0 instructions: 910000002 cycles: 1273523453 heartbeat IPC: 0.597716 cumulative IPC: 0.609359 (Simulation time: 3 hr 27 min 41 sec) 
Heartbeat CPU 2 instructions: 750000000 cycles: 1276963405 heartbeat IPC: 0.483701 cumulative IPC: 0.464653 (Simulation time: 3 hr 28 min 12 sec) 
Heartbeat CPU 1 instructions: 1820000000 cycles: 1277378998 heartbeat IPC: 1.27969 cumulative IPC: 1.34933 (Simulation time: 3 hr 28 min 15 sec) 
Heartbeat CPU 1 instructions: 1830000001 cycles: 1284361919 heartbeat IPC: 1.43207 cumulative IPC: 1.34982 (Simulation time: 3 hr 29 min 23 sec) 
Heartbeat CPU 3 instructions: 1080000000 cycles: 1285358225 heartbeat IPC: 0.826009 cumulative IPC: 0.720552 (Simulation time: 3 hr 29 min 32 sec) 
Heartbeat CPU 0 instructions: 920000000 cycles: 1289582590 heartbeat IPC: 0.622698 cumulative IPC: 0.60954 (Simulation time: 3 hr 30 min 13 sec) 
Heartbeat CPU 1 instructions: 1840000000 cycles: 1291539716 heartbeat IPC: 1.39319 cumulative IPC: 1.35009 (Simulation time: 3 hr 30 min 32 sec) 
Heartbeat CPU 3 instructions: 1090000003 cycles: 1297194649 heartbeat IPC: 0.84485 cumulative IPC: 0.72179 (Simulation time: 3 hr 31 min 23 sec) 
Heartbeat CPU 2 instructions: 760000000 cycles: 1297341188 heartbeat IPC: 0.490731 cumulative IPC: 0.4651 (Simulation time: 3 hr 31 min 25 sec) 
Heartbeat CPU 1 instructions: 1850000003 cycles: 1298590553 heartbeat IPC: 1.41827 cumulative IPC: 1.35049 (Simulation time: 3 hr 31 min 37 sec) 
Heartbeat CPU 0 instructions: 930000000 cycles: 1306111156 heartbeat IPC: 0.605013 cumulative IPC: 0.609478 (Simulation time: 3 hr 32 min 47 sec) 
Heartbeat CPU 1 instructions: 1860000000 cycles: 1306336585 heartbeat IPC: 1.29098 cumulative IPC: 1.35011 (Simulation time: 3 hr 32 min 49 sec) 
Heartbeat CPU 3 instructions: 1100000000 cycles: 1309351929 heartbeat IPC: 0.822552 cumulative IPC: 0.72281 (Simulation time: 3 hr 33 min 18 sec) 
Heartbeat CPU 1 instructions: 1870000002 cycles: 1314167362 heartbeat IPC: 1.27701 cumulative IPC: 1.34963 (Simulation time: 3 hr 34 min 1 sec) 
Heartbeat CPU 2 instructions: 770000000 cycles: 1317149268 heartbeat IPC: 0.504844 cumulative IPC: 0.465751 (Simulation time: 3 hr 34 min 28 sec) 
Heartbeat CPU 1 instructions: 1880000000 cycles: 1321168170 heartbeat IPC: 1.42841 cumulative IPC: 1.35009 (Simulation time: 3 hr 35 min 5 sec) 
Heartbeat CPU 0 instructions: 940000000 cycles: 1322617052 heartbeat IPC: 0.605844 cumulative IPC: 0.609429 (Simulation time: 3 hr 35 min 17 sec) 
Heartbeat CPU 3 instructions: 1110000001 cycles: 1324902621 heartbeat IPC: 0.643058 cumulative IPC: 0.72179 (Simulation time: 3 hr 35 min 35 sec) 
Heartbeat CPU 1 instructions: 1890000001 cycles: 1328682693 heartbeat IPC: 1.33076 cumulative IPC: 1.34997 (Simulation time: 3 hr 36 min 9 sec) 
Heartbeat CPU 1 instructions: 1900000000 cycles: 1335412818 heartbeat IPC: 1.48586 cumulative IPC: 1.35071 (Simulation time: 3 hr 37 min 6 sec) 
Heartbeat CPU 2 instructions: 780000000 cycles: 1337120813 heartbeat IPC: 0.500712 cumulative IPC: 0.46632 (Simulation time: 3 hr 37 min 21 sec) 
Heartbeat CPU 0 instructions: 950000000 cycles: 1339067906 heartbeat IPC: 0.607871 cumulative IPC: 0.609408 (Simulation time: 3 hr 37 min 37 sec) 
Heartbeat CPU 3 instructions: 1120000000 cycles: 1341455734 heartbeat IPC: 0.604116 cumulative IPC: 0.72021 (Simulation time: 3 hr 37 min 58 sec) 
Heartbeat CPU 1 instructions: 1910000000 cycles: 1343422286 heartbeat IPC: 1.24852 cumulative IPC: 1.35005 (Simulation time: 3 hr 38 min 14 sec) 
Heartbeat CPU 1 instructions: 1920000000 cycles: 1350799783 heartbeat IPC: 1.35547 cumulative IPC: 1.35008 (Simulation time: 3 hr 39 min 18 sec) 
Heartbeat CPU 0 instructions: 960000000 cycles: 1355695979 heartbeat IPC: 0.601393 cumulative IPC: 0.609301 (Simulation time: 3 hr 39 min 57 sec) 
Heartbeat CPU 2 instructions: 790000003 cycles: 1357230023 heartbeat IPC: 0.497285 cumulative IPC: 0.466818 (Simulation time: 3 hr 40 min 12 sec) 
Heartbeat CPU 3 instructions: 1130000003 cycles: 1357538816 heartbeat IPC: 0.621772 cumulative IPC: 0.718943 (Simulation time: 3 hr 40 min 16 sec) 
Heartbeat CPU 1 instructions: 1930000002 cycles: 1358104579 heartbeat IPC: 1.36896 cumulative IPC: 1.35019 (Simulation time: 3 hr 40 min 21 sec) 
Heartbeat CPU 1 instructions: 1940000000 cycles: 1365909095 heartbeat IPC: 1.28131 cumulative IPC: 1.34976 (Simulation time: 3 hr 41 min 33 sec) 
Heartbeat CPU 3 instructions: 1140000000 cycles: 1369782678 heartbeat IPC: 0.816736 cumulative IPC: 0.719892 (Simulation time: 3 hr 42 min 10 sec) 
Heartbeat CPU 0 instructions: 970000002 cycles: 1372392191 heartbeat IPC: 0.598938 cumulative IPC: 0.609164 (Simulation time: 3 hr 42 min 35 sec) 
Heartbeat CPU 1 instructions: 1950000001 cycles: 1372800558 heartbeat IPC: 1.45107 cumulative IPC: 1.35032 (Simulation time: 3 hr 42 min 38 sec) 
Heartbeat CPU 2 instructions: 800000000 cycles: 1377662808 heartbeat IPC: 0.489409 cumulative IPC: 0.467182 (Simulation time: 3 hr 43 min 23 sec) 
Heartbeat CPU 1 instructions: 1960000000 cycles: 1380541541 heartbeat IPC: 1.29183 cumulative IPC: 1.34996 (Simulation time: 3 hr 43 min 49 sec) 
Heartbeat CPU 3 instructions: 1150000003 cycles: 1381726468 heartbeat IPC: 0.837255 cumulative IPC: 0.720993 (Simulation time: 3 hr 44 min 1 sec) 
Heartbeat CPU 1 instructions: 1970000003 cycles: 1387391860 heartbeat IPC: 1.45979 cumulative IPC: 1.35055 (Simulation time: 3 hr 44 min 55 sec) 
Heartbeat CPU 0 instructions: 980000000 cycles: 1389129195 heartbeat IPC: 0.597478 cumulative IPC: 0.609011 (Simulation time: 3 hr 45 min 11 sec) 
Heartbeat CPU 3 instructions: 1160000000 cycles: 1393745727 heartbeat IPC: 0.831998 cumulative IPC: 0.722031 (Simulation time: 3 hr 45 min 53 sec) 
Heartbeat CPU 1 instructions: 1980000000 cycles: 1394617169 heartbeat IPC: 1.38402 cumulative IPC: 1.35074 (Simulation time: 3 hr 46 min 0 sec) 
Heartbeat CPU 2 instructions: 810000003 cycles: 1397832320 heartbeat IPC: 0.495798 cumulative IPC: 0.46763 (Simulation time: 3 hr 46 min 30 sec) 
Heartbeat CPU 1 instructions: 1990000001 cycles: 1402179721 heartbeat IPC: 1.32231 cumulative IPC: 1.35057 (Simulation time: 3 hr 47 min 12 sec) 
Heartbeat CPU 3 instructions: 1170000002 cycles: 1405823501 heartbeat IPC: 0.827967 cumulative IPC: 0.723017 (Simulation time: 3 hr 47 min 45 sec) 
Heartbeat CPU 0 instructions: 990000003 cycles: 1405834562 heartbeat IPC: 0.59861 cumulative IPC: 0.608877 (Simulation time: 3 hr 47 min 45 sec) 
*** Reached end of trace for Core: 1 Repeating trace: /scratch/user/djimenez/champsim-traces/speccpu2006/xz//444.namd-120B.champsimtrace.xz
Heartbeat CPU 1 instructions: 2000000000 cycles: 1410067370 heartbeat IPC: 1.2678 cumulative IPC: 1.35007 (Simulation time: 3 hr 48 min 25 sec) 
Heartbeat CPU 3 instructions: 1180000000 cycles: 1417759563 heartbeat IPC: 0.837797 cumulative IPC: 0.724064 (Simulation time: 3 hr 49 min 35 sec) 
Heartbeat CPU 1 instructions: 2010000003 cycles: 1418017825 heartbeat IPC: 1.25779 cumulative IPC: 1.34951 (Simulation time: 3 hr 49 min 37 sec) 
Heartbeat CPU 2 instructions: 820000000 cycles: 1418113774 heartbeat IPC: 0.493061 cumulative IPC: 0.468023 (Simulation time: 3 hr 49 min 38 sec) 
Heartbeat CPU 0 instructions: 1000000000 cycles: 1422210071 heartbeat IPC: 0.610668 cumulative IPC: 0.6089 (Simulation time: 3 hr 50 min 18 sec) 
Heartbeat CPU 1 instructions: 2020000000 cycles: 1424795816 heartbeat IPC: 1.47536 cumulative IPC: 1.35016 (Simulation time: 3 hr 50 min 42 sec) 
Heartbeat CPU 3 instructions: 1190000003 cycles: 1429860971 heartbeat IPC: 0.82635 cumulative IPC: 0.725 (Simulation time: 3 hr 51 min 31 sec) 
Heartbeat CPU 1 instructions: 2030000000 cycles: 1432539850 heartbeat IPC: 1.29132 cumulative IPC: 1.34981 (Simulation time: 3 hr 51 min 54 sec) 
Heartbeat CPU 2 instructions: 830000001 cycles: 1438198497 heartbeat IPC: 0.497891 cumulative IPC: 0.468474 (Simulation time: 3 hr 52 min 47 sec) 
Heartbeat CPU 0 instructions: 1010000003 cycles: 1438777735 heartbeat IPC: 0.603586 cumulative IPC: 0.608833 (Simulation time: 3 hr 52 min 53 sec) 
Heartbeat CPU 1 instructions: 2040000000 cycles: 1439677129 heartbeat IPC: 1.40109 cumulative IPC: 1.35009 (Simulation time: 3 hr 53 min 1 sec) 
Heartbeat CPU 3 instructions: 1200000000 cycles: 1444069212 heartbeat IPC: 0.703817 cumulative IPC: 0.724775 (Simulation time: 3 hr 53 min 39 sec) 
Heartbeat CPU 1 instructions: 2050000001 cycles: 1448088074 heartbeat IPC: 1.18893 cumulative IPC: 1.34908 (Simulation time: 3 hr 54 min 12 sec) 
Heartbeat CPU 0 instructions: 1020000000 cycles: 1455622185 heartbeat IPC: 0.593667 cumulative IPC: 0.608644 (Simulation time: 3 hr 55 min 13 sec) 
Heartbeat CPU 1 instructions: 2060000000 cycles: 1456002217 heartbeat IPC: 1.26356 cumulative IPC: 1.34857 (Simulation time: 3 hr 55 min 16 sec) 
Heartbeat CPU 3 instructions: 1210000002 cycles: 1461059015 heartbeat IPC: 0.588588 cumulative IPC: 0.723064 (Simulation time: 3 hr 55 min 57 sec) 
Heartbeat CPU 1 instructions: 2070000003 cycles: 1463684749 heartbeat IPC: 1.30165 cumulative IPC: 1.34831 (Simulation time: 3 hr 56 min 17 sec) 
Heartbeat CPU 2 instructions: 840000000 cycles: 1464004515 heartbeat IPC: 0.387506 cumulative IPC: 0.466933 (Simulation time: 3 hr 56 min 20 sec) 
Heartbeat CPU 1 instructions: 2080000000 cycles: 1471109169 heartbeat IPC: 1.34691 cumulative IPC: 1.3483 (Simulation time: 3 hr 57 min 21 sec) 
Heartbeat CPU 0 instructions: 1030000001 cycles: 1472088548 heartbeat IPC: 0.607299 cumulative IPC: 0.608628 (Simulation time: 3 hr 57 min 29 sec) 
Heartbeat CPU 1 instructions: 2090000000 cycles: 1478239419 heartbeat IPC: 1.40248 cumulative IPC: 1.34858 (Simulation time: 3 hr 58 min 24 sec) 
Heartbeat CPU 3 instructions: 1220000000 cycles: 1478304348 heartbeat IPC: 0.579867 cumulative IPC: 0.721262 (Simulation time: 3 hr 58 min 24 sec) 
Heartbeat CPU 1 instructions: 2100000000 cycles: 1485245666 heartbeat IPC: 1.4273 cumulative IPC: 1.34898 (Simulation time: 3 hr 59 min 24 sec) 
Heartbeat CPU 0 instructions: 1040000000 cycles: 1488623324 heartbeat IPC: 0.604786 cumulative IPC: 0.608582 (Simulation time: 3 hr 59 min 53 sec) 
Heartbeat CPU 2 instructions: 850000000 cycles: 1491659236 heartbeat IPC: 0.361602 cumulative IPC: 0.464827 (Simulation time: 4 hr 0 min 21 sec) 
Heartbeat CPU 1 instructions: 2110000001 cycles: 1493057008 heartbeat IPC: 1.28019 cumulative IPC: 1.34859 (Simulation time: 4 hr 0 min 36 sec) 
Heartbeat CPU 3 instructions: 1230000000 cycles: 1496841906 heartbeat IPC: 0.539445 cumulative IPC: 0.718834 (Simulation time: 4 hr 1 min 11 sec) 
Finished CPU 3 instructions: 1000000003 cycles: 1391842507 cumulative IPC: 0.718472 (Simulation time: 4 hr 1 min 42 sec) 
Heartbeat CPU 1 instructions: 2120000000 cycles: 1500681976 heartbeat IPC: 1.31148 cumulative IPC: 1.34839 (Simulation time: 4 hr 1 min 46 sec) 
Heartbeat CPU 0 instructions: 1050000001 cycles: 1505280528 heartbeat IPC: 0.600341 cumulative IPC: 0.608483 (Simulation time: 4 hr 2 min 25 sec) 
Heartbeat CPU 1 instructions: 2130000000 cycles: 1508737039 heartbeat IPC: 1.24146 cumulative IPC: 1.34778 (Simulation time: 4 hr 2 min 54 sec) 
Heartbeat CPU 2 instructions: 860000000 cycles: 1509787321 heartbeat IPC: 0.55163 cumulative IPC: 0.46595 (Simulation time: 4 hr 3 min 3 sec) 
Heartbeat CPU 3 instructions: 1240000000 cycles: 1513854563 heartbeat IPC: 0.587798 cumulative IPC: 0.717248 (Simulation time: 4 hr 3 min 38 sec) 
Heartbeat CPU 1 instructions: 2140000000 cycles: 1515744969 heartbeat IPC: 1.42695 cumulative IPC: 1.34817 (Simulation time: 4 hr 3 min 54 sec) 
Heartbeat CPU 0 instructions: 1060000000 cycles: 1521478193 heartbeat IPC: 0.617373 cumulative IPC: 0.608585 (Simulation time: 4 hr 4 min 43 sec) 
Heartbeat CPU 1 instructions: 2150000001 cycles: 1523692640 heartbeat IPC: 1.25823 cumulative IPC: 1.34767 (Simulation time: 4 hr 5 min 2 sec) 
Heartbeat CPU 1 instructions: 2160000000 cycles: 1530215599 heartbeat IPC: 1.53305 cumulative IPC: 1.34852 (Simulation time: 4 hr 6 min 1 sec) 
Heartbeat CPU 3 instructions: 1250000003 cycles: 1530587660 heartbeat IPC: 0.597618 cumulative IPC: 0.715841 (Simulation time: 4 hr 6 min 4 sec) 
Heartbeat CPU 2 instructions: 870000000 cycles: 1530755757 heartbeat IPC: 0.476907 cumulative IPC: 0.466112 (Simulation time: 4 hr 6 min 6 sec) 
Heartbeat CPU 0 instructions: 1070000003 cycles: 1537405016 heartbeat IPC: 0.627872 cumulative IPC: 0.6088 (Simulation time: 4 hr 7 min 4 sec) 
Heartbeat CPU 1 instructions: 2170000003 cycles: 1537590541 heartbeat IPC: 1.35594 cumulative IPC: 1.34855 (Simulation time: 4 hr 7 min 6 sec) 
Heartbeat CPU 3 instructions: 1260000000 cycles: 1543995982 heartbeat IPC: 0.745805 cumulative IPC: 0.716121 (Simulation time: 4 hr 8 min 6 sec) 
Heartbeat CPU 1 instructions: 2180000000 cycles: 1544789665 heartbeat IPC: 1.38906 cumulative IPC: 1.34876 (Simulation time: 4 hr 8 min 13 sec) 
Heartbeat CPU 2 instructions: 880000000 cycles: 1551839772 heartbeat IPC: 0.474293 cumulative IPC: 0.466231 (Simulation time: 4 hr 9 min 20 sec) 
Heartbeat CPU 1 instructions: 2190000003 cycles: 1552712129 heartbeat IPC: 1.26223 cumulative IPC: 1.34828 (Simulation time: 4 hr 9 min 28 sec) 
[...]
Heartbeat CPU 1 instructions: 3020000000 cycles: 2165787464 heartbeat IPC: 1.43849 cumulative IPC: 1.34994 (Simulation time: 5 hr 42 min 2 sec) 
Heartbeat CPU 1 instructions: 3030000001 cycles: 2173615037 heartbeat IPC: 1.27754 cumulative IPC: 1.34966 (Simulation time: 5 hr 43 min 8 sec) 
Heartbeat CPU 0 instructions: 1460000000 cycles: 2174086888 heartbeat IPC: 0.605897 cumulative IPC: 0.609956 (Simulation time: 5 hr 43 min 12 sec) 
Heartbeat CPU 3 instructions: 1710000002 cycles: 2177149753 heartbeat IPC: 0.602314 cumulative IPC: 0.71447 (Simulation time: 5 hr 43 min 36 sec) 
Heartbeat CPU 2 instructions: 1170000002 cycles: 2177310218 heartbeat IPC: 0.478198 cumulative IPC: 0.465451 (Simulation time: 5 hr 43 min 38 sec) 
Heartbeat CPU 1 instructions: 3040000000 cycles: 2181569973 heartbeat IPC: 1.25708 cumulative IPC: 1.34931 (Simulation time: 5 hr 44 min 13 sec) 
Heartbeat CPU 1 instructions: 3050000000 cycles: 2188453398 heartbeat IPC: 1.45277 cumulative IPC: 1.34965 (Simulation time: 5 hr 45 min 14 sec) 
Heartbeat CPU 0 instructions: 1470000003 cycles: 2190583532 heartbeat IPC: 0.606184 cumulative IPC: 0.609926 (Simulation time: 5 hr 45 min 32 sec) 
Heartbeat CPU 3 instructions: 1720000000 cycles: 2193855846 heartbeat IPC: 0.598584 cumulative IPC: 0.713542 (Simulation time: 5 hr 46 min 1 sec) 
Heartbeat CPU 1 instructions: 3060000000 cycles: 2196191294 heartbeat IPC: 1.29234 cumulative IPC: 1.34944 (Simulation time: 5 hr 46 min 19 sec) 
Heartbeat CPU 2 instructions: 1180000000 cycles: 2197736749 heartbeat IPC: 0.489559 cumulative IPC: 0.465687 (Simulation time: 5 hr 46 min 32 sec) 
Heartbeat CPU 1 instructions: 3070000001 cycles: 2203172280 heartbeat IPC: 1.43246 cumulative IPC: 1.34971 (Simulation time: 5 hr 47 min 22 sec) 
Heartbeat CPU 0 instructions: 1480000000 cycles: 2206941103 heartbeat IPC: 0.611338 cumulative IPC: 0.609937 (Simulation time: 5 hr 47 min 58 sec) 
Heartbeat CPU 3 instructions: 1730000000 cycles: 2207638290 heartbeat IPC: 0.725561 cumulative IPC: 0.713621 (Simulation time: 5 hr 48 min 4 sec) 
Heartbeat CPU 1 instructions: 3080000000 cycles: 2209399539 heartbeat IPC: 1.60584 cumulative IPC: 1.35047 (Simulation time: 5 hr 48 min 23 sec) 
Heartbeat CPU 1 instructions: 3090000003 cycles: 2217111805 heartbeat IPC: 1.29664 cumulative IPC: 1.35028 (Simulation time: 5 hr 49 min 34 sec) 
Heartbeat CPU 2 instructions: 1190000002 cycles: 2218534000 heartbeat IPC: 0.480833 cumulative IPC: 0.465836 (Simulation time: 5 hr 49 min 47 sec) 
Heartbeat CPU 3 instructions: 1740000000 cycles: 2219603398 heartbeat IPC: 0.835763 cumulative IPC: 0.714313 (Simulation time: 5 hr 49 min 57 sec) 
Heartbeat CPU 0 instructions: 1490000001 cycles: 2223723295 heartbeat IPC: 0.59587 cumulative IPC: 0.609826 (Simulation time: 5 hr 50 min 36 sec) 
Heartbeat CPU 1 instructions: 3100000000 cycles: 2224102922 heartbeat IPC: 1.43039 cumulative IPC: 1.35054 (Simulation time: 5 hr 50 min 39 sec) 
Heartbeat CPU 1 instructions: 3110000000 cycles: 2231993238 heartbeat IPC: 1.26738 cumulative IPC: 1.35023 (Simulation time: 5 hr 51 min 48 sec) 
Heartbeat CPU 3 instructions: 1750000001 cycles: 2232111381 heartbeat IPC: 0.799489 cumulative IPC: 0.714815 (Simulation time: 5 hr 51 min 49 sec) 
Heartbeat CPU 1 instructions: 3120000000 cycles: 2239572015 heartbeat IPC: 1.31947 cumulative IPC: 1.35012 (Simulation time: 5 hr 53 min 0 sec) 
Heartbeat CPU 0 instructions: 1500000000 cycles: 2240096433 heartbeat IPC: 0.610756 cumulative IPC: 0.609833 (Simulation time: 5 hr 53 min 5 sec) 
Heartbeat CPU 3 instructions: 1760000000 cycles: 2244339182 heartbeat IPC: 0.817808 cumulative IPC: 0.715404 (Simulation time: 5 hr 53 min 44 sec) 
Heartbeat CPU 1 instructions: 3130000000 cycles: 2246725044 heartbeat IPC: 1.39801 cumulative IPC: 1.35028 (Simulation time: 5 hr 54 min 5 sec) 
Heartbeat CPU 2 instructions: 1200000000 cycles: 2248786523 heartbeat IPC: 0.330551 cumulative IPC: 0.463924 (Simulation time: 5 hr 54 min 23 sec) 
Heartbeat CPU 1 instructions: 3140000000 cycles: 2254074867 heartbeat IPC: 1.36058 cumulative IPC: 1.35032 (Simulation time: 5 hr 55 min 16 sec) 
Heartbeat CPU 3 instructions: 1770000001 cycles: 2256198588 heartbeat IPC: 0.843213 cumulative IPC: 0.71611 (Simulation time: 5 hr 55 min 39 sec) 
Heartbeat CPU 0 instructions: 1510000001 cycles: 2256373728 heartbeat IPC: 0.614353 cumulative IPC: 0.609867 (Simulation time: 5 hr 55 min 40 sec) 
Heartbeat CPU 1 instructions: 3150000001 cycles: 2260492301 heartbeat IPC: 1.55826 cumulative IPC: 1.35094 (Simulation time: 5 hr 56 min 23 sec) 
Finished CPU 2 instructions: 1000000000 cycles: 2152346148 cumulative IPC: 0.464609 (Simulation time: 5 hr 56 min 25 sec) 

CPU 0 Branch Prediction Accuracy: 93.2076% MPKI: 13.6443

CPU 1 Branch Prediction Accuracy: 96.8636% MPKI: 1.86038

CPU 2 Branch Prediction Accuracy: 93.9446% MPKI: 11.4

CPU 3 Branch Prediction Accuracy: 99.9996% MPKI: 0.00019253

ChampSim completed all CPUs

Total Simulation Statistics (not including warmup)

CPU 0 cumulative IPC: 0.609887 instructions: 1312687756 cycles: 2152346147
L1D TOTAL     ACCESS:  352632276  HIT:  351168274  MISS:    1464002
L1D LOAD      ACCESS:  243341721  HIT:  242281744  MISS:    1059977
L1D RFO       ACCESS:  109290555  HIT:  108886530  MISS:     404025
L1D PREFETCH  ACCESS:          0  HIT:          0  MISS:          0
L1D WRITEBACK ACCESS:          0  HIT:          0  MISS:          0
L1I TOTAL     ACCESS:  303308727  HIT:  303225077  MISS:      83650
L1I LOAD      ACCESS:  303308727  HIT:  303225077  MISS:      83650
L1I RFO       ACCESS:          0  HIT:          0  MISS:          0
L1I PREFETCH  ACCESS:          0  HIT:          0  MISS:          0
L1I WRITEBACK ACCESS:          0  HIT:          0  MISS:          0
L2C TOTAL     ACCESS:    2806897  HIT:    2202761  MISS:     604136
L2C LOAD      ACCESS:    1143623  HIT:     649506  MISS:     494117
L2C RFO       ACCESS:     403920  HIT:     359937  MISS:      43983
L2C PREFETCH  ACCESS:     435184  HIT:     371249  MISS:      63935
L2C WRITEBACK ACCESS:     824170  HIT:     822069  MISS:       2101

Avg Lookahead Depth:	3.48862
TOTAL: 9.78958e+07	L2C: 7.79622e+07	LLC: 1.99336e+07	GOOD_L2C: 5.21517e+07
Printing all the perceptron weights to: perc_weights_0.csv
LLC TOTAL     ACCESS:    1153360  HIT:     109523  MISS:    1043837
LLC LOAD      ACCESS:     493793  HIT:       7190  MISS:     486603
LLC RFO       ACCESS:      43975  HIT:       7413  MISS:      36562
LLC PREFETCH  ACCESS:     205069  HIT:      26526  MISS:     178543
LLC WRITEBACK ACCESS:     410523  HIT:      68394  MISS:     342129

CPU 1 cumulative IPC: 1.35097 instructions: 2907758644 cycles: 2152346148
L1D TOTAL     ACCESS:  569911383  HIT:  553865211  MISS:   16046172
L1D LOAD      ACCESS:  477494583  HIT:  462120372  MISS:   15374211
L1D RFO       ACCESS:   92416800  HIT:   91744839  MISS:     671961
L1D PREFETCH  ACCESS:          0  HIT:          0  MISS:          0
L1D WRITEBACK ACCESS:          0  HIT:          0  MISS:          0
L1I TOTAL     ACCESS:  687800745  HIT:  687800745  MISS:          0
L1I LOAD      ACCESS:  687800745  HIT:  687800745  MISS:          0
L1I RFO       ACCESS:          0  HIT:          0  MISS:          0
L1I PREFETCH  ACCESS:          0  HIT:          0  MISS:          0
L1I WRITEBACK ACCESS:          0  HIT:          0  MISS:          0
L2C TOTAL     ACCESS:   38224890  HIT:   37580342  MISS:     644548
L2C LOAD      ACCESS:   15373601  HIT:   15091078  MISS:     282523
L2C RFO       ACCESS:     671767  HIT:     669515  MISS:       2252
L2C PREFETCH  ACCESS:   19429180  HIT:   19069594  MISS:     359586
L2C WRITEBACK ACCESS:    2750342  HIT:    2750155  MISS:        187

Avg Lookahead Depth:	3.48862
TOTAL: 9.78958e+07	L2C: 7.79622e+07	LLC: 1.99336e+07	GOOD_L2C: 5.21517e+07
Printing all the perceptron weights to: perc_weights_0.csv
LLC TOTAL     ACCESS:     952728  HIT:     210323  MISS:     742405
LLC LOAD      ACCESS:     154663  HIT:      30291  MISS:     124372
LLC RFO       ACCESS:       2252  HIT:       1562  MISS:        690
LLC PREFETCH  ACCESS:     693800  HIT:     152393  MISS:     541407
LLC WRITEBACK ACCESS:     102013  HIT:      26077  MISS:      75936

CPU 2 cumulative IPC: 0.464609 instructions: 1000000000 cycles: 2152346148
L1D TOTAL     ACCESS:  216514542  HIT:  178015014  MISS:   38499528
L1D LOAD      ACCESS:  158002847  HIT:  125759197  MISS:   32243650
L1D RFO       ACCESS:   58511695  HIT:   52255817  MISS:    6255878
L1D PREFETCH  ACCESS:          0  HIT:          0  MISS:          0
L1D WRITEBACK ACCESS:          0  HIT:          0  MISS:          0
L1I TOTAL     ACCESS:  225863632  HIT:  225857366  MISS:       6266
L1I LOAD      ACCESS:  225863632  HIT:  225857366  MISS:       6266
L1I RFO       ACCESS:          0  HIT:          0  MISS:          0
L1I PREFETCH  ACCESS:          0  HIT:          0  MISS:          0
L1I WRITEBACK ACCESS:          0  HIT:          0  MISS:          0
L2C TOTAL     ACCESS:   83277582  HIT:   43521287  MISS:   39756295
L2C LOAD      ACCESS:   32246672  HIT:   18885528  MISS:   13361144
L2C RFO       ACCESS:    6255506  HIT:     623117  MISS:    5632389
L2C PREFETCH  ACCESS:   28793679  HIT:    8038589  MISS:   20755090
L2C WRITEBACK ACCESS:   15981725  HIT:   15974053  MISS:       7672

Avg Lookahead Depth:	3.48862
TOTAL: 9.78958e+07	L2C: 7.79622e+07	LLC: 1.99336e+07	GOOD_L2C: 5.21517e+07
Printing all the perceptron weights to: perc_weights_0.csv
LLC TOTAL     ACCESS:   57713390  HIT:   35614148  MISS:   22099242
LLC LOAD      ACCESS:   11848561  HIT:    6916487  MISS:    4932074
LLC RFO       ACCESS:    5632296  HIT:    2471926  MISS:    3160370
LLC PREFETCH  ACCESS:   27574867  HIT:   13583557  MISS:   13991310
LLC WRITEBACK ACCESS:   12657666  HIT:   12642178  MISS:      15488

CPU 3 cumulative IPC: 0.716366 instructions: 1541868286 cycles: 2152346148
L1D TOTAL     ACCESS:  337264605  HIT:  307901659  MISS:   29362946
L1D LOAD      ACCESS:  169207748  HIT:  144298188  MISS:   24909560
L1D RFO       ACCESS:  168056857  HIT:  163603471  MISS:    4453386
L1D PREFETCH  ACCESS:          0  HIT:          0  MISS:          0
L1D WRITEBACK ACCESS:          0  HIT:          0  MISS:          0
L1I TOTAL     ACCESS:  389465701  HIT:  389465687  MISS:         14
L1I LOAD      ACCESS:  389465701  HIT:  389465687  MISS:         14
L1I RFO       ACCESS:          0  HIT:          0  MISS:          0
L1I PREFETCH  ACCESS:          0  HIT:          0  MISS:          0
L1I WRITEBACK ACCESS:          0  HIT:          0  MISS:          0
L2C TOTAL     ACCESS:   57128091  HIT:   27432915  MISS:   29695176
L2C LOAD      ACCESS:   24909574  HIT:   16251419  MISS:    8658155
L2C RFO       ACCESS:    4453386  HIT:          2  MISS:    4453384
L2C PREFETCH  ACCESS:   18323796  HIT:    1740296  MISS:   16583500
L2C WRITEBACK ACCESS:    9441335  HIT:    9441198  MISS:        137

Avg Lookahead Depth:	3.48862
TOTAL: 9.78958e+07	L2C: 7.79622e+07	LLC: 1.99336e+07	GOOD_L2C: 5.21517e+07
Printing all the perceptron weights to: perc_weights_0.csv
LLC TOTAL     ACCESS:   40063585  HIT:    9840679  MISS:   30222906
LLC LOAD      ACCESS:    7156856  HIT:       7013  MISS:    7149843
LLC RFO       ACCESS:    4453384  HIT:      23093  MISS:    4430291
LLC PREFETCH  ACCESS:   19010705  HIT:     368032  MISS:   18642673
LLC WRITEBACK ACCESS:    9442640  HIT:    9442541  MISS:         99

Region of Interest Statistics

CPU 0 cumulative IPC: 0.610209 instructions: 1000000000 cycles: 1638783467
L1D TOTAL     ACCESS:  269082360  HIT:  267957293  MISS:    1125067
L1D LOAD      ACCESS:  185224332  HIT:  184410357  MISS:     813975
L1D RFO       ACCESS:   83858028  HIT:   83546936  MISS:     311092
L1D PREFETCH  ACCESS:          0  HIT:          0  MISS:          0
L1D WRITEBACK ACCESS:          0  HIT:          0  MISS:          0
L1D PREFETCH  REQUESTED:          0  ISSUED:          0  USEFUL:          0  USELESS:          0
L1I TOTAL     ACCESS:  231081715  HIT:  231014709  MISS:      67006
L1I LOAD      ACCESS:  231081715  HIT:  231014709  MISS:      67006
L1I RFO       ACCESS:          0  HIT:          0  MISS:          0
L1I PREFETCH  ACCESS:          0  HIT:          0  MISS:          0
L1I WRITEBACK ACCESS:          0  HIT:          0  MISS:          0
L1I PREFETCH  REQUESTED:          0  ISSUED:          0  USEFUL:          0  USELESS:          0
L2C TOTAL     ACCESS:    2161449  HIT:    1704635  MISS:     456814
L2C LOAD      ACCESS:     880978  HIT:     507393  MISS:     373585
L2C RFO       ACCESS:     311014  HIT:     277904  MISS:      33110
L2C PREFETCH  ACCESS:     340891  HIT:     292309  MISS:      48582
L2C WRITEBACK ACCESS:     628566  HIT:     627029  MISS:       1537
L2C PREFETCH  REQUESTED:     671965  ISSUED:     671965  USEFUL:       5727  USELESS:      68874
LLC TOTAL     ACCESS:     872668  HIT:      84878  MISS:     787790
LLC LOAD      ACCESS:     373349  HIT:       5645  MISS:     367704
LLC RFO       ACCESS:      33103  HIT:       5807  MISS:      27296
LLC PREFETCH  ACCESS:     156965  HIT:      20753  MISS:     136212
LLC WRITEBACK ACCESS:     309251  HIT:      52673  MISS:     256578
LLC PREFETCH  REQUESTED:          0  ISSUED:          0  USEFUL:    2179558  USELESS:   37355966
Major fault: 0 Minor fault: 44000

CPU 1 cumulative IPC: 1.35447 instructions: 1000000000 cycles: 738298572
L1D TOTAL     ACCESS:  195577073  HIT:  190057368  MISS:    5519705
L1D LOAD      ACCESS:  163932198  HIT:  158647957  MISS:    5284241
L1D RFO       ACCESS:   31644875  HIT:   31409411  MISS:     235464
L1D PREFETCH  ACCESS:          0  HIT:          0  MISS:          0
L1D WRITEBACK ACCESS:          0  HIT:          0  MISS:          0
L1D PREFETCH  REQUESTED:          0  ISSUED:          0  USEFUL:          0  USELESS:          0
L1I TOTAL     ACCESS:  236532479  HIT:  236532479  MISS:          0
L1I LOAD      ACCESS:  236532479  HIT:  236532479  MISS:          0
L1I RFO       ACCESS:          0  HIT:          0  MISS:          0
L1I PREFETCH  ACCESS:          0  HIT:          0  MISS:          0
L1I WRITEBACK ACCESS:          0  HIT:          0  MISS:          0
L1I PREFETCH  REQUESTED:          0  ISSUED:          0  USEFUL:          0  USELESS:          0
L2C TOTAL     ACCESS:   13135933  HIT:   12914629  MISS:     221304
L2C LOAD      ACCESS:    5284026  HIT:    5189036  MISS:      94990
L2C RFO       ACCESS:     235403  HIT:     234659  MISS:        744
L2C PREFETCH  ACCESS:    6679994  HIT:    6554489  MISS:     125505
L2C WRITEBACK ACCESS:     936510  HIT:     936445  MISS:         65
L2C PREFETCH  REQUESTED:   22067677  ISSUED:   22067677  USEFUL:     279428  USELESS:     122137
LLC TOTAL     ACCESS:     328420  HIT:      74281  MISS:     254139
LLC LOAD      ACCESS:      53071  HIT:      10589  MISS:      42482
LLC RFO       ACCESS:        744  HIT:        519  MISS:        225
LLC PREFETCH  ACCESS:     240075  HIT:      54352  MISS:     185723
LLC WRITEBACK ACCESS:      34530  HIT:       8821  MISS:      25709
LLC PREFETCH  REQUESTED:          0  ISSUED:          0  USEFUL:    2179558  USELESS:   37355966
Major fault: 0 Minor fault: 1745

CPU 2 cumulative IPC: 0.464609 instructions: 1000000000 cycles: 2152346148
L1D TOTAL     ACCESS:  216514542  HIT:  178015014  MISS:   38499528
L1D LOAD      ACCESS:  158002847  HIT:  125759197  MISS:   32243650
L1D RFO       ACCESS:   58511695  HIT:   52255817  MISS:    6255878
L1D PREFETCH  ACCESS:          0  HIT:          0  MISS:          0
L1D WRITEBACK ACCESS:          0  HIT:          0  MISS:          0
L1D PREFETCH  REQUESTED:          0  ISSUED:          0  USEFUL:          0  USELESS:          0
L1I TOTAL     ACCESS:  225863632  HIT:  225857366  MISS:       6266
L1I LOAD      ACCESS:  225863632  HIT:  225857366  MISS:       6266
L1I RFO       ACCESS:          0  HIT:          0  MISS:          0
L1I PREFETCH  ACCESS:          0  HIT:          0  MISS:          0
L1I WRITEBACK ACCESS:          0  HIT:          0  MISS:          0
L1I PREFETCH  REQUESTED:          0  ISSUED:          0  USEFUL:          0  USELESS:          0
L2C TOTAL     ACCESS:   83277582  HIT:   43521287  MISS:   39756295
L2C LOAD      ACCESS:   32246672  HIT:   18885528  MISS:   13361144
L2C RFO       ACCESS:    6255506  HIT:     623117  MISS:    5632389
L2C PREFETCH  ACCESS:   28793679  HIT:    8038589  MISS:   20755090
L2C WRITEBACK ACCESS:   15981725  HIT:   15974053  MISS:       7672
L2C PREFETCH  REQUESTED:   46543426  ISSUED:   46538432  USEFUL:   16828428  USELESS:    8345782
LLC TOTAL     ACCESS:   57713390  HIT:   35614148  MISS:   22099242
LLC LOAD      ACCESS:   11848561  HIT:    6916487  MISS:    4932074
LLC RFO       ACCESS:    5632296  HIT:    2471926  MISS:    3160370
LLC PREFETCH  ACCESS:   27574867  HIT:   13583557  MISS:   13991310
LLC WRITEBACK ACCESS:   12657666  HIT:   12642178  MISS:      15488
LLC PREFETCH  REQUESTED:          0  ISSUED:          0  USEFUL:    2179558  USELESS:   37355966
Major fault: 0 Minor fault: 13848

CPU 3 cumulative IPC: 0.718472 instructions: 1000000003 cycles: 1391842507
L1D TOTAL     ACCESS:  221095597  HIT:  202129074  MISS:   18966523
L1D LOAD      ACCESS:  110332649  HIT:   94253409  MISS:   16079240
L1D RFO       ACCESS:  110762948  HIT:  107875665  MISS:    2887283
L1D PREFETCH  ACCESS:          0  HIT:          0  MISS:          0
L1D WRITEBACK ACCESS:          0  HIT:          0  MISS:          0
L1D PREFETCH  REQUESTED:          0  ISSUED:          0  USEFUL:          0  USELESS:          0
L1I TOTAL     ACCESS:  253344491  HIT:  253344477  MISS:         14
L1I LOAD      ACCESS:  253344491  HIT:  253344477  MISS:         14
L1I RFO       ACCESS:          0  HIT:          0  MISS:          0
L1I PREFETCH  ACCESS:          0  HIT:          0  MISS:          0
L1I WRITEBACK ACCESS:          0  HIT:          0  MISS:          0
L1I PREFETCH  REQUESTED:          0  ISSUED:          0  USEFUL:          0  USELESS:          0
L2C TOTAL     ACCESS:   37152608  HIT:   17974061  MISS:   19178547
L2C LOAD      ACCESS:   16079254  HIT:   10603408  MISS:    5475846
L2C RFO       ACCESS:    2887283  HIT:          2  MISS:    2887281
L2C PREFETCH  ACCESS:   11938703  HIT:    1123378  MISS:   10815325
L2C WRITEBACK ACCESS:    6247368  HIT:    6247273  MISS:         95
L2C PREFETCH  REQUESTED:   28612739  ISSUED:   28612739  USEFUL:   19370429  USELESS:     381985
LLC TOTAL     ACCESS:   26008812  HIT:    6498875  MISS:   19509937
LLC LOAD      ACCESS:    4589574  HIT:       4552  MISS:    4585022
LLC RFO       ACCESS:    2887281  HIT:      15284  MISS:    2871997
LLC PREFETCH  ACCESS:   12284469  HIT:     231615  MISS:   12052854
LLC WRITEBACK ACCESS:    6247488  HIT:    6247424  MISS:         64
LLC PREFETCH  REQUESTED:          0  ISSUED:          0  USEFUL:    2179558  USELESS:   37355966
Major fault: 0 Minor fault: 98309

Avg Lookahead Depth:	3.48862
TOTAL: 9.78958e+07	L2C: 7.79622e+07	LLC: 1.99336e+07	GOOD_L2C: 5.21517e+07
Printing all the perceptron weights to: perc_weights_0.csv

Avg Lookahead Depth:	3.48862
TOTAL: 9.78958e+07	L2C: 7.79622e+07	LLC: 1.99336e+07	GOOD_L2C: 5.21517e+07
Printing all the perceptron weights to: perc_weights_0.csv

Avg Lookahead Depth:	3.48862
TOTAL: 9.78958e+07	L2C: 7.79622e+07	LLC: 1.99336e+07	GOOD_L2C: 5.21517e+07
Printing all the perceptron weights to: perc_weights_0.csv

Avg Lookahead Depth:	3.48862
TOTAL: 9.78958e+07	L2C: 7.79622e+07	LLC: 1.99336e+07	GOOD_L2C: 5.21517e+07
Printing all the perceptron weights to: perc_weights_0.csv

DRAM Statistics
 CHANNEL 0
 RQ ROW_BUFFER_HIT:   17611445  ROW_BUFFER_MISS:   12000020
 DBUS_CONGESTED:   32626299
 WQ ROW_BUFFER_HIT:    1428513  ROW_BUFFER_MISS:    6674325  FULL:          0

 CHANNEL 1
 RQ ROW_BUFFER_HIT:   12904736  ROW_BUFFER_MISS:   11153838
 DBUS_CONGESTED:   32626299
 WQ ROW_BUFFER_HIT:    1408366  ROW_BUFFER_MISS:    6597616  FULL:          0

 AVG_CONGESTED_CYCLE: 13
