Initialize SIGNATURE TABLE
ST_SET: 1
ST_WAY: 256
ST_TAG_BIT: 16
ST_TAG_MASK: ffff

Initialize PATTERN TABLE
PT_SET: 512
PT_WAY: 4
SIG_DELTA_BIT: 7
C_SIG_BIT: 4
C_DELTA_BIT: 4

Initialize PREFETCH FILTER
FILTER_SET: 1024

Initialize PERCEPTRON
PERC_ENTRIES: 4096
PERC_FEATURES: 9

*** ChampSim Multicore Out-of-Order Simulator ***

Warmup Instructions: 200000000
Simulation Instructions: 1000000000
Number of CPUs: 4
LLC sets: 8192
LLC ways: 16
Off-chip DRAM Size: 8192 MB Channels: 2 Width: 64-bit Data Rate: 1600 MT/s

CPU 0 runs /scratch/user/djimenez/champsim-traces/speccpu2006/xz//410.bwaves-1963B.champsimtrace.xz
CPU 1 runs /scratch/user/djimenez/champsim-traces/speccpu2006/xz//482.sphinx3-234B.champsimtrace.xz
CPU 2 runs /scratch/user/djimenez/champsim-traces/speccpu2006/xz//445.gobmk-36B.champsimtrace.xz
CPU 3 runs /scratch/user/djimenez/champsim-traces/speccpu2006/xz//459.GemsFDTD-1418B.champsimtrace.xz
Heartbeat CPU 1 instructions: 10000003 cycles: 3890885 heartbeat IPC: 2.57011 cumulative IPC: 2.57011 (Simulation time: 0 hr 1 min 6 sec) 
Heartbeat CPU 2 instructions: 10000000 cycles: 6463981 heartbeat IPC: 1.54703 cumulative IPC: 1.54703 (Simulation time: 0 hr 1 min 49 sec) 
Heartbeat CPU 0 instructions: 10000002 cycles: 6623923 heartbeat IPC: 1.50968 cumulative IPC: 1.50968 (Simulation time: 0 hr 1 min 52 sec) 
Heartbeat CPU 1 instructions: 20000000 cycles: 7767010 heartbeat IPC: 2.5799 cumulative IPC: 2.57499 (Simulation time: 0 hr 2 min 12 sec) 
Heartbeat CPU 3 instructions: 10000003 cycles: 7880948 heartbeat IPC: 1.26888 cumulative IPC: 1.26888 (Simulation time: 0 hr 2 min 13 sec) 
Heartbeat CPU 1 instructions: 30000000 cycles: 11719891 heartbeat IPC: 2.5298 cumulative IPC: 2.55975 (Simulation time: 0 hr 3 min 19 sec) 
Heartbeat CPU 2 instructions: 20000000 cycles: 12890170 heartbeat IPC: 1.55613 cumulative IPC: 1.55157 (Simulation time: 0 hr 3 min 39 sec) 
Heartbeat CPU 0 instructions: 20000000 cycles: 13246893 heartbeat IPC: 1.5099 cumulative IPC: 1.50979 (Simulation time: 0 hr 3 min 45 sec) 
Heartbeat CPU 1 instructions: 40000000 cycles: 15512616 heartbeat IPC: 2.63663 cumulative IPC: 2.57855 (Simulation time: 0 hr 4 min 24 sec) 
Heartbeat CPU 3 instructions: 20000000 cycles: 15760981 heartbeat IPC: 1.26903 cumulative IPC: 1.26896 (Simulation time: 0 hr 4 min 28 sec) 
Heartbeat CPU 1 instructions: 50000003 cycles: 19302246 heartbeat IPC: 2.63878 cumulative IPC: 2.59037 (Simulation time: 0 hr 5 min 29 sec) 
Heartbeat CPU 2 instructions: 30000001 cycles: 19339951 heartbeat IPC: 1.55044 cumulative IPC: 1.55119 (Simulation time: 0 hr 5 min 30 sec) 
Heartbeat CPU 0 instructions: 30000001 cycles: 19870264 heartbeat IPC: 1.50981 cumulative IPC: 1.50979 (Simulation time: 0 hr 5 min 39 sec) 
Heartbeat CPU 1 instructions: 60000000 cycles: 23071056 heartbeat IPC: 2.65336 cumulative IPC: 2.60066 (Simulation time: 0 hr 6 min 34 sec) 
Heartbeat CPU 3 instructions: 30000002 cycles: 23641484 heartbeat IPC: 1.26895 cumulative IPC: 1.26896 (Simulation time: 0 hr 6 min 44 sec) 
Heartbeat CPU 2 instructions: 40000000 cycles: 25836138 heartbeat IPC: 1.53936 cumulative IPC: 1.54822 (Simulation time: 0 hr 7 min 24 sec) 
Heartbeat CPU 0 instructions: 40000000 cycles: 26493668 heartbeat IPC: 1.5098 cumulative IPC: 1.50979 (Simulation time: 0 hr 7 min 35 sec) 
Heartbeat CPU 1 instructions: 70000000 cycles: 26778168 heartbeat IPC: 2.69752 cumulative IPC: 2.61407 (Simulation time: 0 hr 7 min 40 sec) 
Heartbeat CPU 1 instructions: 80000000 cycles: 30487514 heartbeat IPC: 2.69589 cumulative IPC: 2.62403 (Simulation time: 0 hr 8 min 45 sec) 
Heartbeat CPU 3 instructions: 40000000 cycles: 31549760 heartbeat IPC: 1.2645 cumulative IPC: 1.26784 (Simulation time: 0 hr 9 min 4 sec) 
Heartbeat CPU 2 instructions: 50000001 cycles: 32314449 heartbeat IPC: 1.54361 cumulative IPC: 1.5473 (Simulation time: 0 hr 9 min 18 sec) 
Heartbeat CPU 0 instructions: 50000001 cycles: 33116694 heartbeat IPC: 1.50988 cumulative IPC: 1.50981 (Simulation time: 0 hr 9 min 32 sec) 
Heartbeat CPU 1 instructions: 90000000 cycles: 34187240 heartbeat IPC: 2.7029 cumulative IPC: 2.63256 (Simulation time: 0 hr 9 min 51 sec) 
Heartbeat CPU 1 instructions: 100000000 cycles: 37885827 heartbeat IPC: 2.70374 cumulative IPC: 2.63951 (Simulation time: 0 hr 10 min 55 sec) 
Heartbeat CPU 2 instructions: 60000000 cycles: 38901769 heartbeat IPC: 1.51807 cumulative IPC: 1.54235 (Simulation time: 0 hr 11 min 13 sec) 
Heartbeat CPU 3 instructions: 50000002 cycles: 39484346 heartbeat IPC: 1.26031 cumulative IPC: 1.26632 (Simulation time: 0 hr 11 min 24 sec) 
Heartbeat CPU 0 instructions: 60000000 cycles: 39739924 heartbeat IPC: 1.50984 cumulative IPC: 1.50982 (Simulation time: 0 hr 11 min 28 sec) 
Heartbeat CPU 1 instructions: 110000003 cycles: 41616850 heartbeat IPC: 2.68023 cumulative IPC: 2.64316 (Simulation time: 0 hr 12 min 1 sec) 
Heartbeat CPU 1 instructions: 120000000 cycles: 45474038 heartbeat IPC: 2.59256 cumulative IPC: 2.63887 (Simulation time: 0 hr 13 min 8 sec) 
Heartbeat CPU 2 instructions: 70000001 cycles: 45496089 heartbeat IPC: 1.51646 cumulative IPC: 1.53859 (Simulation time: 0 hr 13 min 8 sec) 
Heartbeat CPU 0 instructions: 70000003 cycles: 46363199 heartbeat IPC: 1.50983 cumulative IPC: 1.50982 (Simulation time: 0 hr 13 min 23 sec) 
Heartbeat CPU 3 instructions: 60000000 cycles: 47419768 heartbeat IPC: 1.26017 cumulative IPC: 1.2653 (Simulation time: 0 hr 13 min 42 sec) 
Heartbeat CPU 1 instructions: 130000000 cycles: 49260696 heartbeat IPC: 2.64085 cumulative IPC: 2.63902 (Simulation time: 0 hr 14 min 14 sec) 
Heartbeat CPU 2 instructions: 80000000 cycles: 51986878 heartbeat IPC: 1.54064 cumulative IPC: 1.53885 (Simulation time: 0 hr 15 min 1 sec) 
Heartbeat CPU 1 instructions: 140000000 cycles: 52956197 heartbeat IPC: 2.70599 cumulative IPC: 2.64369 (Simulation time: 0 hr 15 min 19 sec) 
Heartbeat CPU 0 instructions: 80000000 cycles: 52985859 heartbeat IPC: 1.50997 cumulative IPC: 1.50984 (Simulation time: 0 hr 15 min 20 sec) 
Heartbeat CPU 3 instructions: 70000001 cycles: 55353884 heartbeat IPC: 1.26038 cumulative IPC: 1.26459 (Simulation time: 0 hr 16 min 1 sec) 
Heartbeat CPU 1 instructions: 150000001 cycles: 56738358 heartbeat IPC: 2.64399 cumulative IPC: 2.64371 (Simulation time: 0 hr 16 min 24 sec) 
Heartbeat CPU 2 instructions: 90000002 cycles: 58564778 heartbeat IPC: 1.52024 cumulative IPC: 1.53676 (Simulation time: 0 hr 16 min 56 sec) 
Heartbeat CPU 0 instructions: 90000003 cycles: 59609391 heartbeat IPC: 1.50977 cumulative IPC: 1.50983 (Simulation time: 0 hr 17 min 14 sec) 
Heartbeat CPU 1 instructions: 160000000 cycles: 60493769 heartbeat IPC: 2.66282 cumulative IPC: 2.6449 (Simulation time: 0 hr 17 min 29 sec) 
Heartbeat CPU 3 instructions: 80000000 cycles: 63293362 heartbeat IPC: 1.25953 cumulative IPC: 1.26396 (Simulation time: 0 hr 18 min 18 sec) 
Heartbeat CPU 1 instructions: 170000000 cycles: 64284464 heartbeat IPC: 2.63804 cumulative IPC: 2.6445 (Simulation time: 0 hr 18 min 35 sec) 
Heartbeat CPU 2 instructions: 100000000 cycles: 65128098 heartbeat IPC: 1.52362 cumulative IPC: 1.53544 (Simulation time: 0 hr 18 min 50 sec) 
Heartbeat CPU 0 instructions: 100000000 cycles: 66231585 heartbeat IPC: 1.51007 cumulative IPC: 1.50985 (Simulation time: 0 hr 19 min 9 sec) 
Heartbeat CPU 1 instructions: 180000000 cycles: 68068385 heartbeat IPC: 2.64276 cumulative IPC: 2.6444 (Simulation time: 0 hr 19 min 40 sec) 
Heartbeat CPU 3 instructions: 90000003 cycles: 71224349 heartbeat IPC: 1.26088 cumulative IPC: 1.26361 (Simulation time: 0 hr 20 min 35 sec) 
Heartbeat CPU 2 instructions: 110000002 cycles: 71634205 heartbeat IPC: 1.53702 cumulative IPC: 1.53558 (Simulation time: 0 hr 20 min 42 sec) 
Heartbeat CPU 1 instructions: 190000003 cycles: 71798301 heartbeat IPC: 2.68103 cumulative IPC: 2.6463 (Simulation time: 0 hr 20 min 46 sec) 
Heartbeat CPU 0 instructions: 110000001 cycles: 72854465 heartbeat IPC: 1.50992 cumulative IPC: 1.50986 (Simulation time: 0 hr 21 min 4 sec) 
Heartbeat CPU 1 instructions: 200000000 cycles: 75521723 heartbeat IPC: 2.6857 cumulative IPC: 2.64824 (Simulation time: 0 hr 21 min 51 sec) 
Heartbeat CPU 2 instructions: 120000000 cycles: 78165465 heartbeat IPC: 1.5311 cumulative IPC: 1.5352 (Simulation time: 0 hr 22 min 36 sec) 
Heartbeat CPU 3 instructions: 100000000 cycles: 79160290 heartbeat IPC: 1.26009 cumulative IPC: 1.26326 (Simulation time: 0 hr 22 min 54 sec) 
Heartbeat CPU 1 instructions: 210000003 cycles: 79240790 heartbeat IPC: 2.68885 cumulative IPC: 0.126198 (Simulation time: 0 hr 22 min 56 sec) 
Heartbeat CPU 0 instructions: 120000000 cycles: 79477996 heartbeat IPC: 1.50977 cumulative IPC: 1.50985 (Simulation time: 0 hr 23 min 0 sec) 
Heartbeat CPU 1 instructions: 220000000 cycles: 83105119 heartbeat IPC: 2.58777 cumulative IPC: 0.240659 (Simulation time: 0 hr 24 min 3 sec) 
Heartbeat CPU 2 instructions: 130000000 cycles: 84734787 heartbeat IPC: 1.52223 cumulative IPC: 1.5342 (Simulation time: 0 hr 24 min 32 sec) 
Heartbeat CPU 0 instructions: 130000001 cycles: 86100181 heartbeat IPC: 1.51008 cumulative IPC: 1.50987 (Simulation time: 0 hr 24 min 57 sec) 
Heartbeat CPU 1 instructions: 230000002 cycles: 86782561 heartbeat IPC: 2.71928 cumulative IPC: 0.345692 (Simulation time: 0 hr 25 min 9 sec) 
Heartbeat CPU 3 instructions: 110000001 cycles: 87100376 heartbeat IPC: 1.25943 cumulative IPC: 1.26291 (Simulation time: 0 hr 25 min 14 sec) 
Heartbeat CPU 1 instructions: 240000000 cycles: 90467927 heartbeat IPC: 2.71343 cumulative IPC: 0.442146 (Simulation time: 0 hr 26 min 14 sec) 
Heartbeat CPU 2 instructions: 140000000 cycles: 91268423 heartbeat IPC: 1.53054 cumulative IPC: 1.53394 (Simulation time: 0 hr 26 min 28 sec) 
Heartbeat CPU 0 instructions: 140000000 cycles: 92723578 heartbeat IPC: 1.5098 cumulative IPC: 1.50986 (Simulation time: 0 hr 26 min 54 sec) 
Heartbeat CPU 1 instructions: 250000000 cycles: 94155225 heartbeat IPC: 2.71201 cumulative IPC: 0.531038 (Simulation time: 0 hr 27 min 20 sec) 
Heartbeat CPU 3 instructions: 120000000 cycles: 95030647 heartbeat IPC: 1.26099 cumulative IPC: 1.26275 (Simulation time: 0 hr 27 min 35 sec) 
Heartbeat CPU 2 instructions: 150000000 cycles: 97568046 heartbeat IPC: 1.5874 cumulative IPC: 1.53739 (Simulation time: 0 hr 28 min 20 sec) 
Heartbeat CPU 1 instructions: 260000000 cycles: 97846439 heartbeat IPC: 2.70914 cumulative IPC: 0.613206 (Simulation time: 0 hr 28 min 26 sec) 
Heartbeat CPU 0 instructions: 150000003 cycles: 99346651 heartbeat IPC: 1.50987 cumulative IPC: 1.50986 (Simulation time: 0 hr 28 min 51 sec) 
Heartbeat CPU 1 instructions: 270000001 cycles: 101562946 heartbeat IPC: 2.6907 cumulative IPC: 0.689228 (Simulation time: 0 hr 29 min 30 sec) 
Heartbeat CPU 3 instructions: 130000003 cycles: 102967995 heartbeat IPC: 1.25987 cumulative IPC: 1.26253 (Simulation time: 0 hr 29 min 55 sec) 
Heartbeat CPU 2 instructions: 160000000 cycles: 103946998 heartbeat IPC: 1.56766 cumulative IPC: 1.53925 (Simulation time: 0 hr 30 min 12 sec) 
Heartbeat CPU 1 instructions: 280000000 cycles: 105289197 heartbeat IPC: 2.68366 cumulative IPC: 0.759812 (Simulation time: 0 hr 30 min 35 sec) 
Heartbeat CPU 0 instructions: 160000000 cycles: 105969566 heartbeat IPC: 1.50991 cumulative IPC: 1.50987 (Simulation time: 0 hr 30 min 47 sec) 
Heartbeat CPU 1 instructions: 290000001 cycles: 108979886 heartbeat IPC: 2.70952 cumulative IPC: 0.82584 (Simulation time: 0 hr 31 min 39 sec) 
Heartbeat CPU 2 instructions: 170000001 cycles: 110553535 heartbeat IPC: 1.51365 cumulative IPC: 1.53772 (Simulation time: 0 hr 32 min 6 sec) 
Heartbeat CPU 3 instructions: 140000000 cycles: 110793985 heartbeat IPC: 1.27779 cumulative IPC: 1.26361 (Simulation time: 0 hr 32 min 10 sec) 
Heartbeat CPU 0 instructions: 170000000 cycles: 112593266 heartbeat IPC: 1.50973 cumulative IPC: 1.50986 (Simulation time: 0 hr 32 min 42 sec) 
Heartbeat CPU 1 instructions: 300000000 cycles: 112842099 heartbeat IPC: 2.58919 cumulative IPC: 0.886194 (Simulation time: 0 hr 32 min 46 sec) 
Heartbeat CPU 1 instructions: 310000000 cycles: 116605456 heartbeat IPC: 2.6572 cumulative IPC: 0.943352 (Simulation time: 0 hr 33 min 51 sec) 
Heartbeat CPU 2 instructions: 180000000 cycles: 116931600 heartbeat IPC: 1.56787 cumulative IPC: 1.53936 (Simulation time: 0 hr 33 min 58 sec) 
Heartbeat CPU 3 instructions: 150000003 cycles: 118549608 heartbeat IPC: 1.28939 cumulative IPC: 1.26529 (Simulation time: 0 hr 34 min 26 sec) 
Heartbeat CPU 0 instructions: 180000000 cycles: 119216302 heartbeat IPC: 1.50988 cumulative IPC: 1.50986 (Simulation time: 0 hr 34 min 37 sec) 
Heartbeat CPU 1 instructions: 320000000 cycles: 120286378 heartbeat IPC: 2.71671 cumulative IPC: 0.997619 (Simulation time: 0 hr 34 min 56 sec) 
Heartbeat CPU 2 instructions: 190000000 cycles: 123528433 heartbeat IPC: 1.51588 cumulative IPC: 1.53811 (Simulation time: 0 hr 35 min 53 sec) 
Heartbeat CPU 1 instructions: 330000003 cycles: 124012945 heartbeat IPC: 2.68344 cumulative IPC: 1.04828 (Simulation time: 0 hr 36 min 1 sec) 
Heartbeat CPU 0 instructions: 190000001 cycles: 125839351 heartbeat IPC: 1.50988 cumulative IPC: 1.50986 (Simulation time: 0 hr 36 min 32 sec) 
Heartbeat CPU 3 instructions: 160000000 cycles: 126429397 heartbeat IPC: 1.26907 cumulative IPC: 1.26553 (Simulation time: 0 hr 36 min 42 sec) 
Heartbeat CPU 1 instructions: 340000000 cycles: 127754095 heartbeat IPC: 2.67297 cumulative IPC: 1.09586 (Simulation time: 0 hr 37 min 6 sec) 
Heartbeat CPU 2 instructions: 200000000 cycles: 129925724 heartbeat IPC: 1.56316 cumulative IPC: 1.53934 (Simulation time: 0 hr 37 min 43 sec) 
Heartbeat CPU 1 instructions: 350000002 cycles: 131499481 heartbeat IPC: 2.66995 cumulative IPC: 1.14069 (Simulation time: 0 hr 38 min 11 sec) 
Heartbeat CPU 0 instructions: 200000000 cycles: 132463090 heartbeat IPC: 1.50972 cumulative IPC: 1.50985 (Simulation time: 0 hr 38 min 28 sec) 
Heartbeat CPU 3 instructions: 170000003 cycles: 134307666 heartbeat IPC: 1.26931 cumulative IPC: 1.26575 (Simulation time: 0 hr 39 min 0 sec) 
Heartbeat CPU 1 instructions: 360000000 cycles: 135254855 heartbeat IPC: 2.66285 cumulative IPC: 1.18295 (Simulation time: 0 hr 39 min 16 sec) 
Heartbeat CPU 2 instructions: 210000000 cycles: 136404046 heartbeat IPC: 1.54361 cumulative IPC: 0.0733116 (Simulation time: 0 hr 39 min 36 sec) 
Heartbeat CPU 1 instructions: 370000000 cycles: 139017826 heartbeat IPC: 2.65747 cumulative IPC: 1.22286 (Simulation time: 0 hr 40 min 21 sec) 
Heartbeat CPU 0 instructions: 210000001 cycles: 139085922 heartbeat IPC: 1.50993 cumulative IPC: 0.071898 (Simulation time: 0 hr 40 min 22 sec) 
Heartbeat CPU 3 instructions: 180000000 cycles: 142182122 heartbeat IPC: 1.26993 cumulative IPC: 1.26598 (Simulation time: 0 hr 41 min 15 sec) 
Heartbeat CPU 1 instructions: 380000000 cycles: 142789252 heartbeat IPC: 2.65152 cumulative IPC: 1.2606 (Simulation time: 0 hr 41 min 27 sec) 
Heartbeat CPU 2 instructions: 220000000 cycles: 142942211 heartbeat IPC: 1.52948 cumulative IPC: 0.139917 (Simulation time: 0 hr 41 min 29 sec) 
Heartbeat CPU 0 instructions: 220000000 cycles: 145709357 heartbeat IPC: 1.50979 cumulative IPC: 0.13726 (Simulation time: 0 hr 42 min 16 sec) 
Heartbeat CPU 1 instructions: 390000000 cycles: 146608825 heartbeat IPC: 2.61809 cumulative IPC: 1.29597 (Simulation time: 0 hr 42 min 31 sec) 
Heartbeat CPU 2 instructions: 230000000 cycles: 149395931 heartbeat IPC: 1.54949 cumulative IPC: 0.200809 (Simulation time: 0 hr 43 min 20 sec) 
Heartbeat CPU 3 instructions: 190000003 cycles: 150063480 heartbeat IPC: 1.26882 cumulative IPC: 1.26613 (Simulation time: 0 hr 43 min 31 sec) 
Heartbeat CPU 1 instructions: 400000000 cycles: 150303100 heartbeat IPC: 2.70689 cumulative IPC: 1.33064 (Simulation time: 0 hr 43 min 35 sec) 
Heartbeat CPU 0 instructions: 230000002 cycles: 152333214 heartbeat IPC: 1.50969 cumulative IPC: 0.196937 (Simulation time: 0 hr 44 min 11 sec) 
Heartbeat CPU 1 instructions: 410000000 cycles: 154091763 heartbeat IPC: 2.63945 cumulative IPC: 1.36282 (Simulation time: 0 hr 44 min 41 sec) 
Heartbeat CPU 2 instructions: 240000000 cycles: 155922548 heartbeat IPC: 1.53219 cumulative IPC: 0.256538 (Simulation time: 0 hr 45 min 12 sec) 
Heartbeat CPU 3 instructions: 200000000 cycles: 157940409 heartbeat IPC: 1.26953 cumulative IPC: 1.2663 (Simulation time: 0 hr 45 min 47 sec) 

Warmup complete CPU 0 instructions: 238465977 cycles: 157940410 (Simulation time: 0 hr 45 min 47 sec) 
Warmup complete CPU 1 instructions: 419730781 cycles: 157940410 (Simulation time: 0 hr 45 min 47 sec) 
Warmup complete CPU 2 instructions: 243054565 cycles: 157940410 (Simulation time: 0 hr 45 min 47 sec) 
Warmup complete CPU 3 instructions: 200000001 cycles: 157940410 (Simulation time: 0 hr 45 min 47 sec) 

Heartbeat CPU 1 instructions: 420000000 cycles: 158199765 heartbeat IPC: 2.43427 cumulative IPC: 1.03803 (Simulation time: 0 hr 45 min 50 sec) 
Heartbeat CPU 0 instructions: 240000000 cycles: 159245161 heartbeat IPC: 1.44677 cumulative IPC: 1.17572 (Simulation time: 0 hr 46 min 3 sec) 
Heartbeat CPU 0 instructions: 250000001 cycles: 167749997 heartbeat IPC: 1.1758 cumulative IPC: 1.17579 (Simulation time: 0 hr 47 min 43 sec) 
Heartbeat CPU 1 instructions: 430000001 cycles: 168297287 heartbeat IPC: 0.990342 cumulative IPC: 0.991536 (Simulation time: 0 hr 47 min 50 sec) 
Heartbeat CPU 3 instructions: 210000000 cycles: 171689129 heartbeat IPC: 0.72734 cumulative IPC: 0.72734 (Simulation time: 0 hr 48 min 30 sec) 
Heartbeat CPU 2 instructions: 250000000 cycles: 173626844 heartbeat IPC: 0.564835 cumulative IPC: 0.442767 (Simulation time: 0 hr 48 min 54 sec) 
Heartbeat CPU 0 instructions: 260000000 cycles: 176273868 heartbeat IPC: 1.17318 cumulative IPC: 1.17458 (Simulation time: 0 hr 49 min 25 sec) 
Heartbeat CPU 1 instructions: 440000000 cycles: 177734469 heartbeat IPC: 1.05964 cumulative IPC: 1.02401 (Simulation time: 0 hr 49 min 43 sec) 
Heartbeat CPU 0 instructions: 270000001 cycles: 184808222 heartbeat IPC: 1.17173 cumulative IPC: 1.17367 (Simulation time: 0 hr 51 min 6 sec) 
Heartbeat CPU 3 instructions: 220000000 cycles: 185531992 heartbeat IPC: 0.722394 cumulative IPC: 0.724859 (Simulation time: 0 hr 51 min 14 sec) 
Heartbeat CPU 1 instructions: 450000001 cycles: 187894879 heartbeat IPC: 0.984212 cumulative IPC: 1.01051 (Simulation time: 0 hr 51 min 43 sec) 
Heartbeat CPU 0 instructions: 280000000 cycles: 193297754 heartbeat IPC: 1.17792 cumulative IPC: 1.17469 (Simulation time: 0 hr 52 min 44 sec) 
Heartbeat CPU 2 instructions: 260000000 cycles: 195676162 heartbeat IPC: 0.453529 cumulative IPC: 0.449055 (Simulation time: 0 hr 53 min 13 sec) 
Heartbeat CPU 1 instructions: 460000000 cycles: 198162654 heartbeat IPC: 0.973921 cumulative IPC: 1.00117 (Simulation time: 0 hr 53 min 43 sec) 
Heartbeat CPU 3 instructions: 230000002 cycles: 199365698 heartbeat IPC: 0.722872 cumulative IPC: 0.724195 (Simulation time: 0 hr 53 min 57 sec) 
Heartbeat CPU 0 instructions: 290000001 cycles: 201832236 heartbeat IPC: 1.17172 cumulative IPC: 1.17411 (Simulation time: 0 hr 54 min 27 sec) 
Heartbeat CPU 1 instructions: 470000003 cycles: 208772391 heartbeat IPC: 0.942531 cumulative IPC: 0.988929 (Simulation time: 0 hr 55 min 46 sec) 
Heartbeat CPU 0 instructions: 300000000 cycles: 210340066 heartbeat IPC: 1.17539 cumulative IPC: 1.17432 (Simulation time: 0 hr 56 min 6 sec) 
Heartbeat CPU 3 instructions: 240000000 cycles: 213153943 heartbeat IPC: 0.725255 cumulative IPC: 0.72446 (Simulation time: 0 hr 56 min 39 sec) 
Heartbeat CPU 1 instructions: 480000000 cycles: 217690940 heartbeat IPC: 1.12126 cumulative IPC: 1.00868 (Simulation time: 0 hr 57 min 33 sec) 
Heartbeat CPU 0 instructions: 310000000 cycles: 218851168 heartbeat IPC: 1.17494 cumulative IPC: 1.17441 (Simulation time: 0 hr 57 min 47 sec) 
Heartbeat CPU 2 instructions: 270000000 cycles: 219003355 heartbeat IPC: 0.428684 cumulative IPC: 0.441273 (Simulation time: 0 hr 57 min 49 sec) 
Heartbeat CPU 3 instructions: 250000001 cycles: 226971777 heartbeat IPC: 0.723702 cumulative IPC: 0.724308 (Simulation time: 0 hr 59 min 22 sec) 
Heartbeat CPU 0 instructions: 320000000 cycles: 227370398 heartbeat IPC: 1.17382 cumulative IPC: 1.17433 (Simulation time: 0 hr 59 min 27 sec) 
Heartbeat CPU 1 instructions: 490000000 cycles: 228151081 heartbeat IPC: 0.95601 cumulative IPC: 1.00083 (Simulation time: 0 hr 59 min 36 sec) 
Heartbeat CPU 0 instructions: 330000000 cycles: 235933948 heartbeat IPC: 1.16774 cumulative IPC: 1.17361 (Simulation time: 1 hr 0 min 59 sec) 
Heartbeat CPU 1 instructions: 500000000 cycles: 239069806 heartbeat IPC: 0.915858 cumulative IPC: 0.989397 (Simulation time: 1 hr 1 min 29 sec) 
Heartbeat CPU 2 instructions: 280000000 cycles: 241378558 heartbeat IPC: 0.446923 cumulative IPC: 0.442788 (Simulation time: 1 hr 1 min 55 sec) 
Heartbeat CPU 3 instructions: 260000000 cycles: 243966760 heartbeat IPC: 0.588409 cumulative IPC: 0.697461 (Simulation time: 1 hr 2 min 24 sec) 
Heartbeat CPU 0 instructions: 340000000 cycles: 244624746 heartbeat IPC: 1.15064 cumulative IPC: 1.17131 (Simulation time: 1 hr 2 min 30 sec) 
Heartbeat CPU 1 instructions: 510000000 cycles: 248337940 heartbeat IPC: 1.07897 cumulative IPC: 0.998581 (Simulation time: 1 hr 3 min 6 sec) 
Heartbeat CPU 0 instructions: 350000000 cycles: 252801976 heartbeat IPC: 1.22291 cumulative IPC: 1.17576 (Simulation time: 1 hr 3 min 49 sec) 
Heartbeat CPU 1 instructions: 520000000 cycles: 259512259 heartbeat IPC: 0.894909 cumulative IPC: 0.987175 (Simulation time: 1 hr 4 min 51 sec) 
Heartbeat CPU 0 instructions: 360000000 cycles: 260846822 heartbeat IPC: 1.24303 cumulative IPC: 1.18102 (Simulation time: 1 hr 5 min 5 sec) 
Heartbeat CPU 3 instructions: 270000003 cycles: 263156035 heartbeat IPC: 0.521125 cumulative IPC: 0.6653 (Simulation time: 1 hr 5 min 30 sec) 
Heartbeat CPU 2 instructions: 290000000 cycles: 264711122 heartbeat IPC: 0.428586 cumulative IPC: 0.439685 (Simulation time: 1 hr 5 min 43 sec) 
Heartbeat CPU 0 instructions: 370000002 cycles: 268794004 heartbeat IPC: 1.25831 cumulative IPC: 1.18656 (Simulation time: 1 hr 6 min 15 sec) 
Heartbeat CPU 1 instructions: 530000002 cycles: 271513976 heartbeat IPC: 0.833214 cumulative IPC: 0.970906 (Simulation time: 1 hr 6 min 42 sec) 
Heartbeat CPU 0 instructions: 380000000 cycles: 277239129 heartbeat IPC: 1.18411 cumulative IPC: 1.18638 (Simulation time: 1 hr 7 min 43 sec) 
Heartbeat CPU 3 instructions: 280000000 cycles: 280806297 heartbeat IPC: 0.566564 cumulative IPC: 0.651116 (Simulation time: 1 hr 8 min 24 sec) 
Heartbeat CPU 1 instructions: 540000000 cycles: 280913855 heartbeat IPC: 1.06384 cumulative IPC: 0.97801 (Simulation time: 1 hr 8 min 25 sec) 
Heartbeat CPU 0 instructions: 390000000 cycles: 285822636 heartbeat IPC: 1.16502 cumulative IPC: 1.18495 (Simulation time: 1 hr 9 min 16 sec) 
Heartbeat CPU 2 instructions: 300000000 cycles: 287091547 heartbeat IPC: 0.446819 cumulative IPC: 0.440921 (Simulation time: 1 hr 9 min 30 sec) 
Heartbeat CPU 1 instructions: 550000000 cycles: 291721314 heartbeat IPC: 0.925287 cumulative IPC: 0.97375 (Simulation time: 1 hr 10 min 23 sec) 
Heartbeat CPU 0 instructions: 400000000 cycles: 294444542 heartbeat IPC: 1.15984 cumulative IPC: 1.18336 (Simulation time: 1 hr 10 min 54 sec) 
Heartbeat CPU 3 instructions: 290000001 cycles: 295185027 heartbeat IPC: 0.695472 cumulative IPC: 0.655763 (Simulation time: 1 hr 11 min 2 sec) 
Heartbeat CPU 1 instructions: 560000000 cycles: 302804153 heartbeat IPC: 0.902296 cumulative IPC: 0.968284 (Simulation time: 1 hr 12 min 23 sec) 
Heartbeat CPU 0 instructions: 410000001 cycles: 302991284 heartbeat IPC: 1.17004 cumulative IPC: 1.18258 (Simulation time: 1 hr 12 min 26 sec) 
Heartbeat CPU 3 instructions: 300000000 cycles: 309842504 heartbeat IPC: 0.682246 cumulative IPC: 0.658319 (Simulation time: 1 hr 13 min 43 sec) 
Heartbeat CPU 2 instructions: 310000000 cycles: 310152101 heartbeat IPC: 0.433641 cumulative IPC: 0.439818 (Simulation time: 1 hr 13 min 46 sec) 
Heartbeat CPU 0 instructions: 420000000 cycles: 311605077 heartbeat IPC: 1.16093 cumulative IPC: 1.18136 (Simulation time: 1 hr 14 min 3 sec) 
Heartbeat CPU 1 instructions: 570000003 cycles: 311711375 heartbeat IPC: 1.12268 cumulative IPC: 0.977228 (Simulation time: 1 hr 14 min 4 sec) 
Heartbeat CPU 0 instructions: 430000002 cycles: 320199347 heartbeat IPC: 1.16357 cumulative IPC: 1.18042 (Simulation time: 1 hr 15 min 36 sec) 
Heartbeat CPU 1 instructions: 580000000 cycles: 322606739 heartbeat IPC: 0.917821 cumulative IPC: 0.973297 (Simulation time: 1 hr 16 min 3 sec) 
Heartbeat CPU 3 instructions: 310000002 cycles: 323531637 heartbeat IPC: 0.730507 cumulative IPC: 0.664286 (Simulation time: 1 hr 16 min 14 sec) 
Heartbeat CPU 0 instructions: 440000000 cycles: 328794595 heartbeat IPC: 1.16343 cumulative IPC: 1.17957 (Simulation time: 1 hr 17 min 8 sec) 
Heartbeat CPU 2 instructions: 320000000 cycles: 333293049 heartbeat IPC: 0.432134 cumulative IPC: 0.438804 (Simulation time: 1 hr 17 min 49 sec) 
Heartbeat CPU 1 instructions: 590000003 cycles: 333927577 heartbeat IPC: 0.883327 cumulative IPC: 0.967509 (Simulation time: 1 hr 17 min 55 sec) 
Heartbeat CPU 0 instructions: 450000001 cycles: 337319876 heartbeat IPC: 1.17298 cumulative IPC: 1.17925 (Simulation time: 1 hr 18 min 31 sec) 
Heartbeat CPU 1 instructions: 600000000 cycles: 342713006 heartbeat IPC: 1.13825 cumulative IPC: 0.975627 (Simulation time: 1 hr 19 min 27 sec) 
Heartbeat CPU 0 instructions: 460000000 cycles: 345808914 heartbeat IPC: 1.17799 cumulative IPC: 1.1792 (Simulation time: 1 hr 19 min 59 sec) 
Heartbeat CPU 3 instructions: 320000000 cycles: 352244283 heartbeat IPC: 0.348279 cumulative IPC: 0.617589 (Simulation time: 1 hr 21 min 1 sec) 
Heartbeat CPU 1 instructions: 610000003 cycles: 353482035 heartbeat IPC: 0.928589 cumulative IPC: 0.973037 (Simulation time: 1 hr 21 min 14 sec) 
Heartbeat CPU 0 instructions: 470000000 cycles: 354315815 heartbeat IPC: 1.17552 cumulative IPC: 1.17904 (Simulation time: 1 hr 21 min 23 sec) 
Heartbeat CPU 2 instructions: 330000001 cycles: 355301785 heartbeat IPC: 0.454365 cumulative IPC: 0.440539 (Simulation time: 1 hr 21 min 33 sec) 
Heartbeat CPU 1 instructions: 620000000 cycles: 362710170 heartbeat IPC: 1.08364 cumulative IPC: 0.978021 (Simulation time: 1 hr 22 min 48 sec) 
Heartbeat CPU 0 instructions: 480000000 cycles: 362809934 heartbeat IPC: 1.17729 cumulative IPC: 1.17897 (Simulation time: 1 hr 22 min 49 sec) 
Heartbeat CPU 0 instructions: 490000001 cycles: 371335763 heartbeat IPC: 1.17291 cumulative IPC: 1.17872 (Simulation time: 1 hr 24 min 14 sec) 
Heartbeat CPU 1 instructions: 630000001 cycles: 373073773 heartbeat IPC: 0.964915 cumulative IPC: 0.97739 (Simulation time: 1 hr 24 min 32 sec) 
Heartbeat CPU 2 instructions: 340000000 cycles: 378401707 heartbeat IPC: 0.432902 cumulative IPC: 0.439739 (Simulation time: 1 hr 25 min 26 sec) 
Heartbeat CPU 0 instructions: 500000000 cycles: 379821618 heartbeat IPC: 1.17843 cumulative IPC: 1.17871 (Simulation time: 1 hr 25 min 38 sec) 
Heartbeat CPU 3 instructions: 330000000 cycles: 381727167 heartbeat IPC: 0.33918 cumulative IPC: 0.58091 (Simulation time: 1 hr 25 min 59 sec) 
Heartbeat CPU 1 instructions: 640000000 cycles: 383421770 heartbeat IPC: 0.966371 cumulative IPC: 0.976884 (Simulation time: 1 hr 26 min 16 sec) 
Heartbeat CPU 0 instructions: 510000001 cycles: 388338162 heartbeat IPC: 1.17419 cumulative IPC: 1.17854 (Simulation time: 1 hr 27 min 7 sec) 
Heartbeat CPU 1 instructions: 650000003 cycles: 392670471 heartbeat IPC: 1.08123 cumulative IPC: 0.980996 (Simulation time: 1 hr 27 min 52 sec) 
Heartbeat CPU 0 instructions: 520000000 cycles: 396841683 heartbeat IPC: 1.17598 cumulative IPC: 1.17845 (Simulation time: 1 hr 28 min 34 sec) 
Heartbeat CPU 2 instructions: 350000001 cycles: 400568846 heartbeat IPC: 0.451118 cumulative IPC: 0.440779 (Simulation time: 1 hr 29 min 16 sec) 
Heartbeat CPU 1 instructions: 660000000 cycles: 402848990 heartbeat IPC: 0.982461 cumulative IPC: 0.981057 (Simulation time: 1 hr 29 min 43 sec) 
Heartbeat CPU 3 instructions: 340000000 cycles: 404132891 heartbeat IPC: 0.446315 cumulative IPC: 0.568661 (Simulation time: 1 hr 29 min 57 sec) 
Heartbeat CPU 0 instructions: 530000001 cycles: 405334569 heartbeat IPC: 1.17746 cumulative IPC: 1.17842 (Simulation time: 1 hr 30 min 11 sec) 
Heartbeat CPU 1 instructions: 670000002 cycles: 412977338 heartbeat IPC: 0.987328 cumulative IPC: 0.981306 (Simulation time: 1 hr 31 min 36 sec) 
Heartbeat CPU 0 instructions: 540000000 cycles: 413848041 heartbeat IPC: 1.17461 cumulative IPC: 1.17829 (Simulation time: 1 hr 31 min 46 sec) 
Heartbeat CPU 3 instructions: 350000000 cycles: 420184704 heartbeat IPC: 0.622983 cumulative IPC: 0.571986 (Simulation time: 1 hr 32 min 58 sec) 
Heartbeat CPU 0 instructions: 550000002 cycles: 422330323 heartbeat IPC: 1.17893 cumulative IPC: 1.17831 (Simulation time: 1 hr 33 min 21 sec) 
Heartbeat CPU 1 instructions: 680000000 cycles: 423291047 heartbeat IPC: 0.969583 cumulative IPC: 0.98085 (Simulation time: 1 hr 33 min 30 sec) 
Heartbeat CPU 2 instructions: 360000000 cycles: 423643770 heartbeat IPC: 0.433371 cumulative IPC: 0.440135 (Simulation time: 1 hr 33 min 34 sec) 
Heartbeat CPU 0 instructions: 560000000 cycles: 430832139 heartbeat IPC: 1.17622 cumulative IPC: 1.17825 (Simulation time: 1 hr 34 min 57 sec) 
Heartbeat CPU 1 instructions: 690000003 cycles: 432170551 heartbeat IPC: 1.12619 cumulative IPC: 0.985556 (Simulation time: 1 hr 35 min 12 sec) 
Heartbeat CPU 3 instructions: 360000000 cycles: 436265654 heartbeat IPC: 0.621854 cumulative IPC: 0.574867 (Simulation time: 1 hr 35 min 56 sec) 
Heartbeat CPU 0 instructions: 570000000 cycles: 439364617 heartbeat IPC: 1.17199 cumulative IPC: 1.17806 (Simulation time: 1 hr 36 min 35 sec) 
Heartbeat CPU 1 instructions: 700000000 cycles: 442121957 heartbeat IPC: 1.00488 cumulative IPC: 0.986233 (Simulation time: 1 hr 37 min 8 sec) 
Heartbeat CPU 2 instructions: 370000000 cycles: 445679488 heartbeat IPC: 0.453809 cumulative IPC: 0.441182 (Simulation time: 1 hr 37 min 52 sec) 
Heartbeat CPU 0 instructions: 580000000 cycles: 447876496 heartbeat IPC: 1.17483 cumulative IPC: 1.17796 (Simulation time: 1 hr 38 min 18 sec) 
Heartbeat CPU 3 instructions: 370000002 cycles: 448675449 heartbeat IPC: 0.805815 cumulative IPC: 0.584725 (Simulation time: 1 hr 38 min 27 sec) 
Heartbeat CPU 1 instructions: 710000000 cycles: 451920650 heartbeat IPC: 1.02054 cumulative IPC: 0.987377 (Simulation time: 1 hr 39 min 6 sec) 
Heartbeat CPU 0 instructions: 590000000 cycles: 456402505 heartbeat IPC: 1.17288 cumulative IPC: 1.17782 (Simulation time: 1 hr 39 min 59 sec) 
Heartbeat CPU 3 instructions: 380000000 cycles: 461323196 heartbeat IPC: 0.790654 cumulative IPC: 0.59331 (Simulation time: 1 hr 40 min 57 sec) 
Heartbeat CPU 1 instructions: 720000000 cycles: 462171612 heartbeat IPC: 0.975518 cumulative IPC: 0.986977 (Simulation time: 1 hr 41 min 6 sec) 
Heartbeat CPU 0 instructions: 600000000 cycles: 464905757 heartbeat IPC: 1.17602 cumulative IPC: 1.17777 (Simulation time: 1 hr 41 min 40 sec) 
Heartbeat CPU 2 instructions: 380000000 cycles: 468715573 heartbeat IPC: 0.434102 cumulative IPC: 0.440658 (Simulation time: 1 hr 42 min 26 sec) 
Heartbeat CPU 1 instructions: 730000000 cycles: 471125102 heartbeat IPC: 1.11688 cumulative IPC: 0.990691 (Simulation time: 1 hr 42 min 54 sec) 
Heartbeat CPU 0 instructions: 610000000 cycles: 473422763 heartbeat IPC: 1.17412 cumulative IPC: 1.17767 (Simulation time: 1 hr 43 min 21 sec) 
Heartbeat CPU 3 instructions: 390000000 cycles: 474446508 heartbeat IPC: 0.762003 cumulative IPC: 0.600304 (Simulation time: 1 hr 43 min 30 sec) 
Heartbeat CPU 1 instructions: 740000000 cycles: 480973352 heartbeat IPC: 1.01541 cumulative IPC: 0.991444 (Simulation time: 1 hr 44 min 39 sec) 
Heartbeat CPU 0 instructions: 620000000 cycles: 481928183 heartbeat IPC: 1.17572 cumulative IPC: 1.17762 (Simulation time: 1 hr 44 min 49 sec) 
Heartbeat CPU 0 instructions: 630000002 cycles: 490420698 heartbeat IPC: 1.17751 cumulative IPC: 1.17762 (Simulation time: 1 hr 46 min 16 sec) 
Heartbeat CPU 1 instructions: 750000000 cycles: 490712858 heartbeat IPC: 1.02675 cumulative IPC: 0.992478 (Simulation time: 1 hr 46 min 19 sec) 
Heartbeat CPU 2 instructions: 390000000 cycles: 490726287 heartbeat IPC: 0.454324 cumulative IPC: 0.441562 (Simulation time: 1 hr 46 min 19 sec) 
Heartbeat CPU 0 instructions: 640000000 cycles: 498909280 heartbeat IPC: 1.17805 cumulative IPC: 1.17763 (Simulation time: 1 hr 47 min 42 sec) 
Heartbeat CPU 1 instructions: 760000000 cycles: 500410104 heartbeat IPC: 1.03122 cumulative IPC: 0.993575 (Simulation time: 1 hr 47 min 58 sec) 
Heartbeat CPU 3 instructions: 400000000 cycles: 503715124 heartbeat IPC: 0.341663 cumulative IPC: 0.578411 (Simulation time: 1 hr 48 min 31 sec) 
Heartbeat CPU 0 instructions: 650000000 cycles: 507393328 heartbeat IPC: 1.17868 cumulative IPC: 1.17765 (Simulation time: 1 hr 49 min 7 sec) 
Heartbeat CPU 1 instructions: 770000000 cycles: 510142049 heartbeat IPC: 1.02754 cumulative IPC: 0.994513 (Simulation time: 1 hr 49 min 37 sec) 
Heartbeat CPU 2 instructions: 400000000 cycles: 513872256 heartbeat IPC: 0.432041 cumulative IPC: 0.440942 (Simulation time: 1 hr 50 min 15 sec) 
Heartbeat CPU 0 instructions: 660000000 cycles: 515881489 heartbeat IPC: 1.17811 cumulative IPC: 1.17766 (Simulation time: 1 hr 50 min 35 sec) 
Heartbeat CPU 1 instructions: 780000000 cycles: 519697864 heartbeat IPC: 1.04648 cumulative IPC: 0.995886 (Simulation time: 1 hr 51 min 15 sec) 
Heartbeat CPU 0 instructions: 670000003 cycles: 524397814 heartbeat IPC: 1.17422 cumulative IPC: 1.17758 (Simulation time: 1 hr 52 min 3 sec) 
Heartbeat CPU 1 instructions: 790000000 cycles: 529310704 heartbeat IPC: 1.04028 cumulative IPC: 0.997035 (Simulation time: 1 hr 52 min 54 sec) 
Heartbeat CPU 0 instructions: 680000000 cycles: 532885709 heartbeat IPC: 1.17815 cumulative IPC: 1.1776 (Simulation time: 1 hr 53 min 30 sec) 
Heartbeat CPU 3 instructions: 410000003 cycles: 532980653 heartbeat IPC: 0.341699 cumulative IPC: 0.55994 (Simulation time: 1 hr 53 min 31 sec) 
Heartbeat CPU 2 instructions: 410000001 cycles: 535988200 heartbeat IPC: 0.452163 cumulative IPC: 0.441599 (Simulation time: 1 hr 54 min 1 sec) 
Heartbeat CPU 1 instructions: 800000000 cycles: 538888278 heartbeat IPC: 1.04411 cumulative IPC: 0.998219 (Simulation time: 1 hr 54 min 32 sec) 
Heartbeat CPU 0 instructions: 690000003 cycles: 541379264 heartbeat IPC: 1.17736 cumulative IPC: 1.17759 (Simulation time: 1 hr 54 min 57 sec) 
Heartbeat CPU 1 instructions: 810000000 cycles: 548413716 heartbeat IPC: 1.04982 cumulative IPC: 0.999477 (Simulation time: 1 hr 56 min 13 sec) 
Heartbeat CPU 0 instructions: 700000000 cycles: 549898848 heartbeat IPC: 1.17377 cumulative IPC: 1.17751 (Simulation time: 1 hr 56 min 30 sec) 
Heartbeat CPU 3 instructions: 420000000 cycles: 553434093 heartbeat IPC: 0.488915 cumulative IPC: 0.556267 (Simulation time: 1 hr 57 min 10 sec) 
Heartbeat CPU 1 instructions: 820000000 cycles: 557889214 heartbeat IPC: 1.05535 cumulative IPC: 1.0008 (Simulation time: 1 hr 58 min 2 sec) 
Heartbeat CPU 0 instructions: 710000001 cycles: 558405310 heartbeat IPC: 1.17558 cumulative IPC: 1.17747 (Simulation time: 1 hr 58 min 8 sec) 
Heartbeat CPU 2 instructions: 420000000 cycles: 559093283 heartbeat IPC: 0.432805 cumulative IPC: 0.441092 (Simulation time: 1 hr 58 min 16 sec) 
Heartbeat CPU 0 instructions: 720000000 cycles: 566900684 heartbeat IPC: 1.17711 cumulative IPC: 1.17746 (Simulation time: 1 hr 59 min 45 sec) 
Heartbeat CPU 1 instructions: 830000001 cycles: 567354123 heartbeat IPC: 1.05653 cumulative IPC: 1.00209 (Simulation time: 1 hr 59 min 51 sec) 
Heartbeat CPU 3 instructions: 430000000 cycles: 568370151 heartbeat IPC: 0.669521 cumulative IPC: 0.560388 (Simulation time: 2 hr 0 min 2 sec) 
Heartbeat CPU 0 instructions: 730000001 cycles: 575413603 heartbeat IPC: 1.17469 cumulative IPC: 1.1774 (Simulation time: 2 hr 1 min 24 sec) 
Heartbeat CPU 1 instructions: 840000000 cycles: 576994177 heartbeat IPC: 1.03734 cumulative IPC: 1.0029 (Simulation time: 2 hr 1 min 41 sec) 
Heartbeat CPU 2 instructions: 430000001 cycles: 581238245 heartbeat IPC: 0.45157 cumulative IPC: 0.44164 (Simulation time: 2 hr 2 min 30 sec) 
Heartbeat CPU 0 instructions: 740000000 cycles: 583149564 heartbeat IPC: 1.29266 cumulative IPC: 1.1795 (Simulation time: 2 hr 2 min 51 sec) 
Heartbeat CPU 3 instructions: 440000000 cycles: 583156852 heartbeat IPC: 0.676283 cumulative IPC: 0.564418 (Simulation time: 2 hr 2 min 51 sec) 
Heartbeat CPU 1 instructions: 850000003 cycles: 585803267 heartbeat IPC: 1.13519 cumulative IPC: 1.00562 (Simulation time: 2 hr 3 min 22 sec) 
Heartbeat CPU 0 instructions: 750000003 cycles: 589953283 heartbeat IPC: 1.46978 cumulative IPC: 1.18407 (Simulation time: 2 hr 4 min 8 sec) 
Heartbeat CPU 1 instructions: 860000000 cycles: 595420908 heartbeat IPC: 1.03976 cumulative IPC: 1.00637 (Simulation time: 2 hr 5 min 10 sec) 
Heartbeat CPU 3 instructions: 450000003 cycles: 596275963 heartbeat IPC: 0.762247 cumulative IPC: 0.570339 (Simulation time: 2 hr 5 min 19 sec) 
Heartbeat CPU 0 instructions: 760000000 cycles: 597686528 heartbeat IPC: 1.29312 cumulative IPC: 1.18599 (Simulation time: 2 hr 5 min 34 sec) 
Heartbeat CPU 2 instructions: 440000000 cycles: 604543319 heartbeat IPC: 0.429091 cumulative IPC: 0.440986 (Simulation time: 2 hr 6 min 46 sec) 
Heartbeat CPU 1 instructions: 870000002 cycles: 606013679 heartbeat IPC: 0.94404 cumulative IPC: 1.0049 (Simulation time: 2 hr 7 min 1 sec) 
Heartbeat CPU 0 instructions: 770000001 cycles: 606488425 heartbeat IPC: 1.13612 cumulative IPC: 1.18501 (Simulation time: 2 hr 7 min 6 sec) 
Heartbeat CPU 3 instructions: 460000000 cycles: 610240176 heartbeat IPC: 0.716116 cumulative IPC: 0.57484 (Simulation time: 2 hr 7 min 48 sec) 
Heartbeat CPU 0 instructions: 780000000 cycles: 615205860 heartbeat IPC: 1.14713 cumulative IPC: 1.18429 (Simulation time: 2 hr 8 min 40 sec) 
Heartbeat CPU 1 instructions: 880000000 cycles: 616791855 heartbeat IPC: 0.927801 cumulative IPC: 1.00309 (Simulation time: 2 hr 8 min 57 sec) 
Heartbeat CPU 0 instructions: 790000001 cycles: 623023883 heartbeat IPC: 1.2791 cumulative IPC: 1.18588 (Simulation time: 2 hr 10 min 4 sec) 
Heartbeat CPU 3 instructions: 470000000 cycles: 625525848 heartbeat IPC: 0.654207 cumulative IPC: 0.577435 (Simulation time: 2 hr 10 min 28 sec) 
Heartbeat CPU 1 instructions: 890000002 cycles: 626294336 heartbeat IPC: 1.05236 cumulative IPC: 1.00409 (Simulation time: 2 hr 10 min 37 sec) 
Heartbeat CPU 2 instructions: 450000000 cycles: 627062557 heartbeat IPC: 0.444065 cumulative IPC: 0.441133 (Simulation time: 2 hr 10 min 45 sec) 
Heartbeat CPU 0 instructions: 800000000 cycles: 629171499 heartbeat IPC: 1.62665 cumulative IPC: 1.19163 (Simulation time: 2 hr 11 min 5 sec) 
Heartbeat CPU 1 instructions: 900000000 cycles: 635967124 heartbeat IPC: 1.03383 cumulative IPC: 1.00469 (Simulation time: 2 hr 12 min 10 sec) 
Heartbeat CPU 0 instructions: 810000000 cycles: 636540714 heartbeat IPC: 1.357 cumulative IPC: 1.19418 (Simulation time: 2 hr 12 min 15 sec) 
Heartbeat CPU 0 instructions: 820000000 cycles: 644909073 heartbeat IPC: 1.19498 cumulative IPC: 1.19419 (Simulation time: 2 hr 13 min 32 sec) 
Heartbeat CPU 1 instructions: 910000002 cycles: 645983466 heartbeat IPC: 0.998369 cumulative IPC: 1.00456 (Simulation time: 2 hr 13 min 42 sec) 
Heartbeat CPU 2 instructions: 460000000 cycles: 650227471 heartbeat IPC: 0.431687 cumulative IPC: 0.440689 (Simulation time: 2 hr 14 min 21 sec) 
Heartbeat CPU 0 instructions: 830000001 cycles: 653899944 heartbeat IPC: 1.11224 cumulative IPC: 1.19271 (Simulation time: 2 hr 14 min 53 sec) 
Heartbeat CPU 3 instructions: 480000000 cycles: 656099657 heartbeat IPC: 0.327077 cumulative IPC: 0.562069 (Simulation time: 2 hr 15 min 12 sec) 
Heartbeat CPU 1 instructions: 920000000 cycles: 656558980 heartbeat IPC: 0.94558 cumulative IPC: 1.00331 (Simulation time: 2 hr 15 min 16 sec) 
Heartbeat CPU 0 instructions: 840000000 cycles: 662702005 heartbeat IPC: 1.1361 cumulative IPC: 1.19172 (Simulation time: 2 hr 16 min 17 sec) 
Heartbeat CPU 1 instructions: 930000000 cycles: 665834304 heartbeat IPC: 1.07813 cumulative IPC: 1.00468 (Simulation time: 2 hr 16 min 50 sec) 
Heartbeat CPU 0 instructions: 850000002 cycles: 671245596 heartbeat IPC: 1.17047 cumulative IPC: 1.19137 (Simulation time: 2 hr 17 min 44 sec) 
Heartbeat CPU 2 instructions: 470000001 cycles: 672599610 heartbeat IPC: 0.446985 cumulative IPC: 0.440963 (Simulation time: 2 hr 17 min 58 sec) 
Heartbeat CPU 1 instructions: 940000000 cycles: 675488553 heartbeat IPC: 1.03581 cumulative IPC: 1.00526 (Simulation time: 2 hr 18 min 28 sec) 
Heartbeat CPU 0 instructions: 860000000 cycles: 679798009 heartbeat IPC: 1.16926 cumulative IPC: 1.191 (Simulation time: 2 hr 19 min 11 sec) 
Heartbeat CPU 1 instructions: 950000001 cycles: 685093156 heartbeat IPC: 1.04117 cumulative IPC: 1.00591 (Simulation time: 2 hr 20 min 6 sec) 
Heartbeat CPU 3 instructions: 490000003 cycles: 685661058 heartbeat IPC: 0.338279 cumulative IPC: 0.549533 (Simulation time: 2 hr 20 min 12 sec) 
Heartbeat CPU 0 instructions: 870000000 cycles: 688334742 heartbeat IPC: 1.17141 cumulative IPC: 1.19069 (Simulation time: 2 hr 20 min 40 sec) 
Heartbeat CPU 1 instructions: 960000000 cycles: 694740919 heartbeat IPC: 1.03651 cumulative IPC: 1.00646 (Simulation time: 2 hr 21 min 45 sec) 
Heartbeat CPU 2 instructions: 480000000 cycles: 695666587 heartbeat IPC: 0.43352 cumulative IPC: 0.440643 (Simulation time: 2 hr 21 min 56 sec) 
Heartbeat CPU 0 instructions: 880000000 cycles: 696863052 heartbeat IPC: 1.17257 cumulative IPC: 1.1904 (Simulation time: 2 hr 22 min 10 sec) 
Heartbeat CPU 1 instructions: 970000000 cycles: 703758569 heartbeat IPC: 1.10894 cumulative IPC: 1.00815 (Simulation time: 2 hr 23 min 29 sec) 
Heartbeat CPU 3 instructions: 500000000 cycles: 705045643 heartbeat IPC: 0.515874 cumulative IPC: 0.548341 (Simulation time: 2 hr 23 min 43 sec) 
Heartbeat CPU 0 instructions: 890000002 cycles: 705430180 heartbeat IPC: 1.16725 cumulative IPC: 1.19004 (Simulation time: 2 hr 23 min 48 sec) 
Heartbeat CPU 1 instructions: 980000000 cycles: 713391722 heartbeat IPC: 1.03808 cumulative IPC: 1.00867 (Simulation time: 2 hr 25 min 18 sec) 
Heartbeat CPU 0 instructions: 900000000 cycles: 713972319 heartbeat IPC: 1.17067 cumulative IPC: 1.18974 (Simulation time: 2 hr 25 min 25 sec) 
Heartbeat CPU 2 instructions: 490000001 cycles: 718124322 heartbeat IPC: 0.445281 cumulative IPC: 0.440829 (Simulation time: 2 hr 26 min 13 sec) 
Heartbeat CPU 3 instructions: 510000001 cycles: 720408374 heartbeat IPC: 0.650926 cumulative IPC: 0.551143 (Simulation time: 2 hr 26 min 38 sec) 
Heartbeat CPU 0 instructions: 910000001 cycles: 722532348 heartbeat IPC: 1.16822 cumulative IPC: 1.18941 (Simulation time: 2 hr 27 min 1 sec) 
Heartbeat CPU 1 instructions: 990000003 cycles: 723037225 heartbeat IPC: 1.03675 cumulative IPC: 1.00915 (Simulation time: 2 hr 27 min 7 sec) 
Heartbeat CPU 0 instructions: 920000000 cycles: 731094287 heartbeat IPC: 1.16796 cumulative IPC: 1.18909 (Simulation time: 2 hr 28 min 40 sec) 
Heartbeat CPU 1 instructions: 1000000000 cycles: 732029613 heartbeat IPC: 1.11205 cumulative IPC: 1.01076 (Simulation time: 2 hr 28 min 50 sec) 
Heartbeat CPU 3 instructions: 520000000 cycles: 735307611 heartbeat IPC: 0.671175 cumulative IPC: 0.55424 (Simulation time: 2 hr 29 min 29 sec) 
Heartbeat CPU 0 instructions: 930000000 cycles: 739617386 heartbeat IPC: 1.17328 cumulative IPC: 1.18886 (Simulation time: 2 hr 30 min 22 sec) 
Heartbeat CPU 2 instructions: 500000000 cycles: 740304791 heartbeat IPC: 0.450847 cumulative IPC: 0.441211 (Simulation time: 2 hr 30 min 30 sec) 
Heartbeat CPU 1 instructions: 1010000001 cycles: 741514374 heartbeat IPC: 1.05432 cumulative IPC: 1.01147 (Simulation time: 2 hr 30 min 44 sec) 
Heartbeat CPU 3 instructions: 530000000 cycles: 747776745 heartbeat IPC: 0.80198 cumulative IPC: 0.559477 (Simulation time: 2 hr 32 min 3 sec) 
Heartbeat CPU 0 instructions: 940000000 cycles: 748141967 heartbeat IPC: 1.17308 cumulative IPC: 1.18863 (Simulation time: 2 hr 32 min 9 sec) 
Heartbeat CPU 1 instructions: 1020000000 cycles: 752065330 heartbeat IPC: 0.947781 cumulative IPC: 1.01034 (Simulation time: 2 hr 33 min 2 sec) 
Heartbeat CPU 2 instructions: 510000003 cycles: 753951960 heartbeat IPC: 0.732753 cumulative IPC: 0.447886 (Simulation time: 2 hr 33 min 26 sec) 
Heartbeat CPU 0 instructions: 950000001 cycles: 757344000 heartbeat IPC: 1.08672 cumulative IPC: 1.18707 (Simulation time: 2 hr 34 min 7 sec) 
Heartbeat CPU 3 instructions: 540000000 cycles: 762132921 heartbeat IPC: 0.696564 cumulative IPC: 0.562735 (Simulation time: 2 hr 35 min 5 sec) 
Heartbeat CPU 1 instructions: 1030000000 cycles: 763927805 heartbeat IPC: 0.842994 cumulative IPC: 1.00707 (Simulation time: 2 hr 35 min 31 sec) 
Heartbeat CPU 0 instructions: 960000000 cycles: 766637081 heartbeat IPC: 1.07607 cumulative IPC: 1.18538 (Simulation time: 2 hr 36 min 5 sec) 
Heartbeat CPU 2 instructions: 520000000 cycles: 768538246 heartbeat IPC: 0.685575 cumulative IPC: 0.453564 (Simulation time: 2 hr 36 min 28 sec) 
Heartbeat CPU 0 instructions: 970000003 cycles: 775888625 heartbeat IPC: 1.0809 cumulative IPC: 1.18381 (Simulation time: 2 hr 37 min 52 sec) 
Heartbeat CPU 1 instructions: 1040000000 cycles: 776556750 heartbeat IPC: 0.791832 cumulative IPC: 1.00267 (Simulation time: 2 hr 37 min 59 sec) 
Heartbeat CPU 3 instructions: 550000000 cycles: 780311279 heartbeat IPC: 0.550105 cumulative IPC: 0.562366 (Simulation time: 2 hr 38 min 36 sec) 
Heartbeat CPU 0 instructions: 980000000 cycles: 784537228 heartbeat IPC: 1.15626 cumulative IPC: 1.18343 (Simulation time: 2 hr 39 min 20 sec) 
Heartbeat CPU 1 instructions: 1050000003 cycles: 786419136 heartbeat IPC: 1.01395 cumulative IPC: 1.00285 (Simulation time: 2 hr 39 min 39 sec) 
Heartbeat CPU 2 instructions: 530000003 cycles: 789106625 heartbeat IPC: 0.486183 cumulative IPC: 0.454627 (Simulation time: 2 hr 40 min 6 sec) 
Heartbeat CPU 0 instructions: 990000001 cycles: 793108420 heartbeat IPC: 1.1667 cumulative IPC: 1.18321 (Simulation time: 2 hr 40 min 48 sec) 
Heartbeat CPU 1 instructions: 1060000000 cycles: 796226942 heartbeat IPC: 1.0196 cumulative IPC: 1.00311 (Simulation time: 2 hr 41 min 20 sec) 
Heartbeat CPU 0 instructions: 1000000000 cycles: 801670861 heartbeat IPC: 1.16789 cumulative IPC: 1.183 (Simulation time: 2 hr 42 min 16 sec) 
Heartbeat CPU 1 instructions: 1070000001 cycles: 805795138 heartbeat IPC: 1.04513 cumulative IPC: 1.00373 (Simulation time: 2 hr 42 min 59 sec) 
Heartbeat CPU 3 instructions: 560000000 cycles: 809050038 heartbeat IPC: 0.347962 cumulative IPC: 0.552902 (Simulation time: 2 hr 43 min 30 sec) 
Heartbeat CPU 2 instructions: 540000000 cycles: 810159663 heartbeat IPC: 0.474991 cumulative IPC: 0.455285 (Simulation time: 2 hr 43 min 42 sec) 
Heartbeat CPU 0 instructions: 1010000002 cycles: 810197621 heartbeat IPC: 1.17278 cumulative IPC: 1.18287 (Simulation time: 2 hr 43 min 42 sec) 
Heartbeat CPU 1 instructions: 1080000000 cycles: 816384435 heartbeat IPC: 0.94435 cumulative IPC: 1.00277 (Simulation time: 2 hr 44 min 46 sec) 
Heartbeat CPU 0 instructions: 1020000000 cycles: 818742537 heartbeat IPC: 1.17029 cumulative IPC: 1.18271 (Simulation time: 2 hr 45 min 10 sec) 
Heartbeat CPU 1 instructions: 1090000000 cycles: 826902399 heartbeat IPC: 0.950754 cumulative IPC: 1.00195 (Simulation time: 2 hr 46 min 32 sec) 
Heartbeat CPU 0 instructions: 1030000000 cycles: 827263174 heartbeat IPC: 1.17362 cumulative IPC: 1.18259 (Simulation time: 2 hr 46 min 36 sec) 
Heartbeat CPU 2 instructions: 550000001 cycles: 831206147 heartbeat IPC: 0.475139 cumulative IPC: 0.455905 (Simulation time: 2 hr 47 min 17 sec) 
Heartbeat CPU 0 instructions: 1040000000 cycles: 835794277 heartbeat IPC: 1.17218 cumulative IPC: 1.18246 (Simulation time: 2 hr 48 min 3 sec) 
Heartbeat CPU 1 instructions: 1100000000 cycles: 836691289 heartbeat IPC: 1.02157 cumulative IPC: 1.00224 (Simulation time: 2 hr 48 min 12 sec) 
Heartbeat CPU 3 instructions: 570000002 cycles: 838104642 heartbeat IPC: 0.34418 cumulative IPC: 0.543986 (Simulation time: 2 hr 48 min 26 sec) 
Heartbeat CPU 0 instructions: 1050000003 cycles: 844351637 heartbeat IPC: 1.16859 cumulative IPC: 1.18229 (Simulation time: 2 hr 49 min 30 sec) 
Heartbeat CPU 1 instructions: 1110000001 cycles: 846582759 heartbeat IPC: 1.01097 cumulative IPC: 1.00236 (Simulation time: 2 hr 49 min 54 sec) 
Heartbeat CPU 0 instructions: 1060000000 cycles: 852886293 heartbeat IPC: 1.17169 cumulative IPC: 1.18216 (Simulation time: 2 hr 51 min 4 sec) 
Heartbeat CPU 2 instructions: 560000000 cycles: 853705739 heartbeat IPC: 0.444452 cumulative IPC: 0.455535 (Simulation time: 2 hr 51 min 15 sec) 
Heartbeat CPU 1 instructions: 1120000000 cycles: 856445442 heartbeat IPC: 1.01392 cumulative IPC: 1.00253 (Simulation time: 2 hr 51 min 46 sec) 
Heartbeat CPU 3 instructions: 580000000 cycles: 856516184 heartbeat IPC: 0.543137 cumulative IPC: 0.543964 (Simulation time: 2 hr 51 min 47 sec) 
Heartbeat CPU 0 instructions: 1070000000 cycles: 861445602 heartbeat IPC: 1.16832 cumulative IPC: 1.18199 (Simulation time: 2 hr 52 min 41 sec) 
Heartbeat CPU 1 instructions: 1130000002 cycles: 866312786 heartbeat IPC: 1.01344 cumulative IPC: 1.00268 (Simulation time: 2 hr 53 min 36 sec) 
Heartbeat CPU 0 instructions: 1080000000 cycles: 869987033 heartbeat IPC: 1.17076 cumulative IPC: 1.18185 (Simulation time: 2 hr 54 min 17 sec) 
Heartbeat CPU 3 instructions: 590000001 cycles: 872450389 heartbeat IPC: 0.627581 cumulative IPC: 0.545829 (Simulation time: 2 hr 54 min 43 sec) 
Heartbeat CPU 1 instructions: 1140000000 cycles: 876145195 heartbeat IPC: 1.01704 cumulative IPC: 1.00287 (Simulation time: 2 hr 55 min 27 sec) 
Heartbeat CPU 2 instructions: 570000002 cycles: 876258142 heartbeat IPC: 0.443412 cumulative IPC: 0.455154 (Simulation time: 2 hr 55 min 28 sec) 
Heartbeat CPU 0 instructions: 1090000001 cycles: 878535614 heartbeat IPC: 1.16978 cumulative IPC: 1.18171 (Simulation time: 2 hr 55 min 54 sec) 
Heartbeat CPU 1 instructions: 1150000000 cycles: 885923954 heartbeat IPC: 1.02262 cumulative IPC: 1.00314 (Simulation time: 2 hr 57 min 18 sec) 
Heartbeat CPU 0 instructions: 1100000000 cycles: 887084339 heartbeat IPC: 1.16976 cumulative IPC: 1.18157 (Simulation time: 2 hr 57 min 32 sec) 
Heartbeat CPU 3 instructions: 600000000 cycles: 887326337 heartbeat IPC: 0.672226 cumulative IPC: 0.548407 (Simulation time: 2 hr 57 min 35 sec) 
Heartbeat CPU 1 instructions: 1160000000 cycles: 895527731 heartbeat IPC: 1.04126 cumulative IPC: 1.00364 (Simulation time: 2 hr 59 min 14 sec) 
Heartbeat CPU 0 instructions: 1110000000 cycles: 895575522 heartbeat IPC: 1.17769 cumulative IPC: 1.18152 (Simulation time: 2 hr 59 min 15 sec) 
Heartbeat CPU 2 instructions: 580000000 cycles: 899158419 heartbeat IPC: 0.436676 cumulative IPC: 0.454583 (Simulation time: 2 hr 59 min 58 sec) 
Heartbeat CPU 3 instructions: 610000001 cycles: 899699452 heartbeat IPC: 0.808204 cumulative IPC: 0.55274 (Simulation time: 3 hr 0 min 4 sec) 
Heartbeat CPU 0 instructions: 1120000000 cycles: 904068265 heartbeat IPC: 1.17748 cumulative IPC: 1.18148 (Simulation time: 3 hr 0 min 55 sec) 
Heartbeat CPU 1 instructions: 1170000000 cycles: 905502349 heartbeat IPC: 1.00254 cumulative IPC: 1.00362 (Simulation time: 3 hr 1 min 13 sec) 
Heartbeat CPU 3 instructions: 620000000 cycles: 912483924 heartbeat IPC: 0.782199 cumulative IPC: 0.556628 (Simulation time: 3 hr 2 min 37 sec) 
Heartbeat CPU 0 instructions: 1130000003 cycles: 912568783 heartbeat IPC: 1.1764 cumulative IPC: 1.18142 (Simulation time: 3 hr 2 min 38 sec) 
Heartbeat CPU 1 instructions: 1180000000 cycles: 915447553 heartbeat IPC: 1.00551 cumulative IPC: 1.00365 (Simulation time: 3 hr 3 min 11 sec) 
Heartbeat CPU 0 instructions: 1140000000 cycles: 921092129 heartbeat IPC: 1.17325 cumulative IPC: 1.18133 (Simulation time: 3 hr 4 min 20 sec) 
Heartbeat CPU 2 instructions: 590000000 cycles: 921561938 heartbeat IPC: 0.446358 cumulative IPC: 0.454342 (Simulation time: 3 hr 4 min 26 sec) 
Heartbeat CPU 3 instructions: 630000000 cycles: 923788278 heartbeat IPC: 0.884615 cumulative IPC: 0.561469 (Simulation time: 3 hr 4 min 54 sec) 
Heartbeat CPU 1 instructions: 1190000000 cycles: 924653105 heartbeat IPC: 1.0863 cumulative IPC: 1.00464 (Simulation time: 3 hr 5 min 5 sec) 
Heartbeat CPU 0 instructions: 1150000000 cycles: 929826481 heartbeat IPC: 1.1449 cumulative IPC: 1.18092 (Simulation time: 3 hr 6 min 9 sec) 
Heartbeat CPU 3 instructions: 640000000 cycles: 931461297 heartbeat IPC: 1.30327 cumulative IPC: 0.568828 (Simulation time: 3 hr 6 min 30 sec) 
Heartbeat CPU 1 instructions: 1200000000 cycles: 935664535 heartbeat IPC: 0.908147 cumulative IPC: 1.00327 (Simulation time: 3 hr 7 min 22 sec) 
Heartbeat CPU 0 instructions: 1160000000 cycles: 938593445 heartbeat IPC: 1.14065 cumulative IPC: 1.18047 (Simulation time: 3 hr 7 min 57 sec) 
Heartbeat CPU 3 instructions: 650000001 cycles: 939125428 heartbeat IPC: 1.30478 cumulative IPC: 0.576048 (Simulation time: 3 hr 8 min 5 sec) 
Heartbeat CPU 2 instructions: 600000000 cycles: 943525615 heartbeat IPC: 0.455297 cumulative IPC: 0.454369 (Simulation time: 3 hr 9 min 0 sec) 
Heartbeat CPU 1 instructions: 1210000000 cycles: 946826017 heartbeat IPC: 0.895938 cumulative IPC: 1.00175 (Simulation time: 3 hr 9 min 40 sec) 
Heartbeat CPU 3 instructions: 660000000 cycles: 946880484 heartbeat IPC: 1.28948 cumulative IPC: 0.583061 (Simulation time: 3 hr 9 min 41 sec) 
Heartbeat CPU 0 instructions: 1170000003 cycles: 947432832 heartbeat IPC: 1.1313 cumulative IPC: 1.17992 (Simulation time: 3 hr 9 min 47 sec) 
Heartbeat CPU 3 instructions: 670000003 cycles: 954598404 heartbeat IPC: 1.29569 cumulative IPC: 0.589965 (Simulation time: 3 hr 11 min 16 sec) 
Heartbeat CPU 0 instructions: 1180000000 cycles: 956291827 heartbeat IPC: 1.1288 cumulative IPC: 1.17935 (Simulation time: 3 hr 11 min 37 sec) 
Heartbeat CPU 1 instructions: 1220000000 cycles: 958508608 heartbeat IPC: 0.855974 cumulative IPC: 0.999627 (Simulation time: 3 hr 12 min 3 sec) 
Heartbeat CPU 3 instructions: 680000000 cycles: 962336850 heartbeat IPC: 1.29225 cumulative IPC: 0.596721 (Simulation time: 3 hr 12 min 52 sec) 
Heartbeat CPU 0 instructions: 1190000002 cycles: 965134858 heartbeat IPC: 1.13083 cumulative IPC: 1.17882 (Simulation time: 3 hr 13 min 27 sec) 
Heartbeat CPU 2 instructions: 610000000 cycles: 965521105 heartbeat IPC: 0.454639 cumulative IPC: 0.454376 (Simulation time: 3 hr 13 min 31 sec) 
Heartbeat CPU 1 instructions: 1230000000 cycles: 969505911 heartbeat IPC: 0.909314 cumulative IPC: 0.998403 (Simulation time: 3 hr 14 min 19 sec) 
Heartbeat CPU 3 instructions: 690000002 cycles: 970059626 heartbeat IPC: 1.29487 cumulative IPC: 0.60336 (Simulation time: 3 hr 14 min 26 sec) 
Heartbeat CPU 0 instructions: 1200000000 cycles: 974467045 heartbeat IPC: 1.07156 cumulative IPC: 1.17759 (Simulation time: 3 hr 15 min 16 sec) 
Heartbeat CPU 3 instructions: 700000000 cycles: 977717397 heartbeat IPC: 1.30586 cumulative IPC: 0.609922 (Simulation time: 3 hr 15 min 51 sec) 
Heartbeat CPU 1 instructions: 1240000000 cycles: 980029034 heartbeat IPC: 0.950288 cumulative IPC: 0.997787 (Simulation time: 3 hr 16 min 19 sec) 
Heartbeat CPU 0 instructions: 1210000003 cycles: 983819271 heartbeat IPC: 1.06926 cumulative IPC: 1.17636 (Simulation time: 3 hr 17 min 2 sec) 
Heartbeat CPU 3 instructions: 710000000 cycles: 985440881 heartbeat IPC: 1.29475 cumulative IPC: 0.616314 (Simulation time: 3 hr 17 min 20 sec) 
Heartbeat CPU 2 instructions: 620000000 cycles: 986038790 heartbeat IPC: 0.487384 cumulative IPC: 0.455194 (Simulation time: 3 hr 17 min 26 sec) 
Heartbeat CPU 1 instructions: 1250000001 cycles: 991551693 heartbeat IPC: 0.867855 cumulative IPC: 0.995991 (Simulation time: 3 hr 18 min 28 sec) 
Heartbeat CPU 3 instructions: 720000000 cycles: 993371159 heartbeat IPC: 1.26099 cumulative IPC: 0.622433 (Simulation time: 3 hr 18 min 48 sec) 
Heartbeat CPU 0 instructions: 1220000000 cycles: 993430532 heartbeat IPC: 1.04045 cumulative IPC: 1.1748 (Simulation time: 3 hr 18 min 49 sec) 
Heartbeat CPU 3 instructions: 730000002 cycles: 1001322317 heartbeat IPC: 1.25768 cumulative IPC: 0.628422 (Simulation time: 3 hr 20 min 20 sec) 
Heartbeat CPU 0 instructions: 1230000001 cycles: 1002822680 heartbeat IPC: 1.06472 cumulative IPC: 1.17358 (Simulation time: 3 hr 20 min 38 sec) 
Heartbeat CPU 1 instructions: 1260000000 cycles: 1003281904 heartbeat IPC: 0.852499 cumulative IPC: 0.994 (Simulation time: 3 hr 20 min 44 sec) 
Heartbeat CPU 2 instructions: 630000001 cycles: 1006476364 heartbeat IPC: 0.489295 cumulative IPC: 0.456015 (Simulation time: 3 hr 21 min 23 sec) 
Heartbeat CPU 3 instructions: 740000000 cycles: 1009085158 heartbeat IPC: 1.28819 cumulative IPC: 0.63444 (Simulation time: 3 hr 21 min 57 sec) 
Finished CPU 0 instructions: 1000000002 cycles: 852421832 cumulative IPC: 1.17313 (Simulation time: 3 hr 22 min 13 sec) 
Heartbeat CPU 0 instructions: 1240000000 cycles: 1011719601 heartbeat IPC: 1.12398 cumulative IPC: 1.17306 (Simulation time: 3 hr 22 min 30 sec) 
Heartbeat CPU 1 instructions: 1270000002 cycles: 1014708282 heartbeat IPC: 0.875168 cumulative IPC: 0.992415 (Simulation time: 3 hr 23 min 6 sec) 
Heartbeat CPU 3 instructions: 750000001 cycles: 1016812833 heartbeat IPC: 1.29405 cumulative IPC: 0.640374 (Simulation time: 3 hr 23 min 34 sec) 
Heartbeat CPU 0 instructions: 1250000001 cycles: 1020579531 heartbeat IPC: 1.12868 cumulative IPC: 1.1726 (Simulation time: 3 hr 24 min 22 sec) 
Heartbeat CPU 3 instructions: 760000000 cycles: 1024498613 heartbeat IPC: 1.3011 cumulative IPC: 0.646235 (Simulation time: 3 hr 25 min 10 sec) 
Heartbeat CPU 1 instructions: 1280000000 cycles: 1025787091 heartbeat IPC: 0.902624 cumulative IPC: 0.991269 (Simulation time: 3 hr 25 min 27 sec) 
Heartbeat CPU 2 instructions: 640000000 cycles: 1026391626 heartbeat IPC: 0.502127 cumulative IPC: 0.457073 (Simulation time: 3 hr 25 min 35 sec) 
Heartbeat CPU 0 instructions: 1260000000 cycles: 1029427711 heartbeat IPC: 1.13018 cumulative IPC: 1.17217 (Simulation time: 3 hr 26 min 14 sec) 
Heartbeat CPU 3 instructions: 770000003 cycles: 1032265418 heartbeat IPC: 1.28753 cumulative IPC: 0.651931 (Simulation time: 3 hr 26 min 49 sec) 
Heartbeat CPU 1 instructions: 1290000002 cycles: 1036623943 heartbeat IPC: 0.922777 cumulative IPC: 0.990424 (Simulation time: 3 hr 27 min 45 sec) 
Heartbeat CPU 0 instructions: 1270000000 cycles: 1038295119 heartbeat IPC: 1.12773 cumulative IPC: 1.17173 (Simulation time: 3 hr 28 min 6 sec) 
Heartbeat CPU 3 instructions: 780000000 cycles: 1040045513 heartbeat IPC: 1.28533 cumulative IPC: 0.657518 (Simulation time: 3 hr 28 min 28 sec) 
Heartbeat CPU 2 instructions: 650000000 cycles: 1045455655 heartbeat IPC: 0.524548 cumulative IPC: 0.458522 (Simulation time: 3 hr 29 min 35 sec) 
Heartbeat CPU 0 instructions: 1280000000 cycles: 1047151871 heartbeat IPC: 1.12908 cumulative IPC: 1.1713 (Simulation time: 3 hr 29 min 57 sec) 
Heartbeat CPU 3 instructions: 790000002 cycles: 1047752202 heartbeat IPC: 1.29757 cumulative IPC: 0.663062 (Simulation time: 3 hr 30 min 5 sec) 
Heartbeat CPU 1 instructions: 1300000000 cycles: 1047893107 heartbeat IPC: 0.887377 cumulative IPC: 0.989119 (Simulation time: 3 hr 30 min 7 sec) 
Heartbeat CPU 3 instructions: 800000000 cycles: 1055449422 heartbeat IPC: 1.29917 cumulative IPC: 0.668517 (Simulation time: 3 hr 31 min 41 sec) 
Heartbeat CPU 0 instructions: 1290000000 cycles: 1055983166 heartbeat IPC: 1.13234 cumulative IPC: 1.17092 (Simulation time: 3 hr 31 min 47 sec) 
Heartbeat CPU 1 instructions: 1310000000 cycles: 1059276688 heartbeat IPC: 0.878458 cumulative IPC: 0.987722 (Simulation time: 3 hr 32 min 30 sec) 
Heartbeat CPU 3 instructions: 810000000 cycles: 1063200379 heartbeat IPC: 1.29016 cumulative IPC: 0.67384 (Simulation time: 3 hr 33 min 19 sec) 
Heartbeat CPU 0 instructions: 1300000000 cycles: 1064856882 heartbeat IPC: 1.12692 cumulative IPC: 1.17049 (Simulation time: 3 hr 33 min 39 sec) 
Heartbeat CPU 2 instructions: 660000000 cycles: 1065575426 heartbeat IPC: 0.497024 cumulative IPC: 0.459376 (Simulation time: 3 hr 33 min 47 sec) 
Heartbeat CPU 1 instructions: 1320000000 cycles: 1070517010 heartbeat IPC: 0.889654 cumulative IPC: 0.986514 (Simulation time: 3 hr 34 min 51 sec) 
Heartbeat CPU 3 instructions: 820000000 cycles: 1070917611 heartbeat IPC: 1.2958 cumulative IPC: 0.679097 (Simulation time: 3 hr 34 min 56 sec) 
Heartbeat CPU 0 instructions: 1310000000 cycles: 1073732001 heartbeat IPC: 1.12675 cumulative IPC: 1.17006 (Simulation time: 3 hr 35 min 31 sec) 
Heartbeat CPU 3 instructions: 830000001 cycles: 1078672596 heartbeat IPC: 1.28949 cumulative IPC: 0.684238 (Simulation time: 3 hr 36 min 34 sec) 
Heartbeat CPU 1 instructions: 1330000002 cycles: 1081579804 heartbeat IPC: 0.903931 cumulative IPC: 0.985524 (Simulation time: 3 hr 37 min 11 sec) 
Heartbeat CPU 0 instructions: 1320000000 cycles: 1082617372 heartbeat IPC: 1.12545 cumulative IPC: 1.16963 (Simulation time: 3 hr 37 min 24 sec) 
Heartbeat CPU 2 instructions: 670000000 cycles: 1084820757 heartbeat IPC: 0.519607 cumulative IPC: 0.460626 (Simulation time: 3 hr 37 min 51 sec) 
Heartbeat CPU 3 instructions: 840000000 cycles: 1086395776 heartbeat IPC: 1.2948 cumulative IPC: 0.689317 (Simulation time: 3 hr 38 min 12 sec) 
Heartbeat CPU 0 instructions: 1330000002 cycles: 1091474215 heartbeat IPC: 1.12907 cumulative IPC: 1.16925 (Simulation time: 3 hr 39 min 16 sec) 
Heartbeat CPU 1 instructions: 1340000000 cycles: 1093223564 heartbeat IPC: 0.858829 cumulative IPC: 0.983947 (Simulation time: 3 hr 39 min 36 sec) 
Heartbeat CPU 3 instructions: 850000001 cycles: 1094154937 heartbeat IPC: 1.2888 cumulative IPC: 0.694285 (Simulation time: 3 hr 39 min 49 sec) 
Heartbeat CPU 0 instructions: 1340000000 cycles: 1100336525 heartbeat IPC: 1.12837 cumulative IPC: 1.16887 (Simulation time: 3 hr 41 min 7 sec) 
Heartbeat CPU 3 instructions: 860000000 cycles: 1101884448 heartbeat IPC: 1.29374 cumulative IPC: 0.699194 (Simulation time: 3 hr 41 min 26 sec) 
Heartbeat CPU 1 instructions: 1350000002 cycles: 1103477365 heartbeat IPC: 0.975248 cumulative IPC: 0.983853 (Simulation time: 3 hr 41 min 47 sec) 
Heartbeat CPU 2 instructions: 680000000 cycles: 1105050566 heartbeat IPC: 0.49432 cumulative IPC: 0.461346 (Simulation time: 3 hr 42 min 7 sec) 
Heartbeat CPU 0 instructions: 1350000002 cycles: 1109187587 heartbeat IPC: 1.12981 cumulative IPC: 1.1685 (Simulation time: 3 hr 42 min 57 sec) 
Heartbeat CPU 3 instructions: 870000002 cycles: 1109616659 heartbeat IPC: 1.29329 cumulative IPC: 0.704021 (Simulation time: 3 hr 43 min 3 sec) 
Heartbeat CPU 1 instructions: 1360000000 cycles: 1114584120 heartbeat IPC: 0.900353 cumulative IPC: 0.982883 (Simulation time: 3 hr 44 min 6 sec) 
Heartbeat CPU 3 instructions: 880000000 cycles: 1117379701 heartbeat IPC: 1.28815 cumulative IPC: 0.708747 (Simulation time: 3 hr 44 min 41 sec) 
Heartbeat CPU 0 instructions: 1360000000 cycles: 1118056568 heartbeat IPC: 1.12752 cumulative IPC: 1.16812 (Simulation time: 3 hr 44 min 49 sec) 
Heartbeat CPU 2 instructions: 690000001 cycles: 1124782954 heartbeat IPC: 0.506781 cumulative IPC: 0.462273 (Simulation time: 3 hr 46 min 15 sec) 
Heartbeat CPU 3 instructions: 890000000 cycles: 1125156996 heartbeat IPC: 1.28579 cumulative IPC: 0.713387 (Simulation time: 3 hr 46 min 20 sec) 
Heartbeat CPU 1 instructions: 1370000002 cycles: 1126124606 heartbeat IPC: 0.866515 cumulative IPC: 0.981496 (Simulation time: 3 hr 46 min 31 sec) 
Heartbeat CPU 0 instructions: 1370000001 cycles: 1126897070 heartbeat IPC: 1.13116 cumulative IPC: 1.16779 (Simulation time: 3 hr 46 min 40 sec) 
Heartbeat CPU 3 instructions: 900000000 cycles: 1132875929 heartbeat IPC: 1.29552 cumulative IPC: 0.717996 (Simulation time: 3 hr 47 min 57 sec) 
Heartbeat CPU 0 instructions: 1380000000 cycles: 1135757266 heartbeat IPC: 1.12864 cumulative IPC: 1.16743 (Simulation time: 3 hr 48 min 32 sec) 
Heartbeat CPU 1 instructions: 1380000000 cycles: 1136869305 heartbeat IPC: 0.930691 cumulative IPC: 0.980939 (Simulation time: 3 hr 48 min 46 sec) 
Heartbeat CPU 3 instructions: 910000002 cycles: 1140589767 heartbeat IPC: 1.29637 cumulative IPC: 0.722536 (Simulation time: 3 hr 49 min 34 sec) 
Heartbeat CPU 2 instructions: 700000000 cycles: 1144267806 heartbeat IPC: 0.513219 cumulative IPC: 0.46328 (Simulation time: 3 hr 50 min 19 sec) 
Heartbeat CPU 0 instructions: 1390000001 cycles: 1144605927 heartbeat IPC: 1.13011 cumulative IPC: 1.1671 (Simulation time: 3 hr 50 min 23 sec) 
Heartbeat CPU 1 instructions: 1390000000 cycles: 1147592128 heartbeat IPC: 0.93259 cumulative IPC: 0.980415 (Simulation time: 3 hr 51 min 1 sec) 
Heartbeat CPU 3 instructions: 920000000 cycles: 1148342818 heartbeat IPC: 1.28981 cumulative IPC: 0.726977 (Simulation time: 3 hr 51 min 11 sec) 
Heartbeat CPU 0 instructions: 1400000000 cycles: 1153475889 heartbeat IPC: 1.1274 cumulative IPC: 1.16674 (Simulation time: 3 hr 52 min 13 sec) 
Heartbeat CPU 3 instructions: 930000001 cycles: 1156078586 heartbeat IPC: 1.2927 cumulative IPC: 0.731362 (Simulation time: 3 hr 52 min 47 sec) 
Heartbeat CPU 1 instructions: 1400000000 cycles: 1158545888 heartbeat IPC: 0.912929 cumulative IPC: 0.979676 (Simulation time: 3 hr 53 min 19 sec) 
Heartbeat CPU 0 instructions: 1410000002 cycles: 1162342588 heartbeat IPC: 1.12782 cumulative IPC: 1.1664 (Simulation time: 3 hr 54 min 6 sec) 
Heartbeat CPU 3 instructions: 940000000 cycles: 1163816699 heartbeat IPC: 1.2923 cumulative IPC: 0.735677 (Simulation time: 3 hr 54 min 23 sec) 
Heartbeat CPU 2 instructions: 710000000 cycles: 1163944547 heartbeat IPC: 0.508214 cumulative IPC: 0.464159 (Simulation time: 3 hr 54 min 25 sec) 
Heartbeat CPU 1 instructions: 1410000001 cycles: 1169582867 heartbeat IPC: 0.906045 cumulative IPC: 0.978873 (Simulation time: 3 hr 55 min 37 sec) 
Heartbeat CPU 0 instructions: 1420000000 cycles: 1171190275 heartbeat IPC: 1.13024 cumulative IPC: 1.16608 (Simulation time: 3 hr 55 min 57 sec) 
Heartbeat CPU 3 instructions: 950000003 cycles: 1171562308 heartbeat IPC: 1.29105 cumulative IPC: 0.739921 (Simulation time: 3 hr 56 min 1 sec) 
Heartbeat CPU 3 instructions: 960000000 cycles: 1179329783 heartbeat IPC: 1.28742 cumulative IPC: 0.744084 (Simulation time: 3 hr 57 min 39 sec) 
Heartbeat CPU 0 instructions: 1430000000 cycles: 1180090859 heartbeat IPC: 1.12352 cumulative IPC: 1.16571 (Simulation time: 3 hr 57 min 48 sec) 
Finished CPU 1 instructions: 1000000002 cycles: 1022584104 cumulative IPC: 0.977915 (Simulation time: 3 hr 57 min 53 sec) 
Heartbeat CPU 1 instructions: 1420000000 cycles: 1180847307 heartbeat IPC: 0.887749 cumulative IPC: 0.977869 (Simulation time: 3 hr 57 min 57 sec) 
Heartbeat CPU 2 instructions: 720000000 cycles: 1183255121 heartbeat IPC: 0.517851 cumulative IPC: 0.46517 (Simulation time: 3 hr 58 min 27 sec) 
Heartbeat CPU 3 instructions: 970000001 cycles: 1187031868 heartbeat IPC: 1.29835 cumulative IPC: 0.748233 (Simulation time: 3 hr 59 min 15 sec) 
Heartbeat CPU 0 instructions: 1440000000 cycles: 1188948131 heartbeat IPC: 1.12902 cumulative IPC: 1.1654 (Simulation time: 3 hr 59 min 39 sec) 
Heartbeat CPU 1 instructions: 1430000001 cycles: 1192026848 heartbeat IPC: 0.894491 cumulative IPC: 0.976968 (Simulation time: 4 hr 0 min 18 sec) 
Heartbeat CPU 3 instructions: 980000000 cycles: 1194757722 heartbeat IPC: 1.29436 cumulative IPC: 0.752302 (Simulation time: 4 hr 0 min 53 sec) 
Heartbeat CPU 0 instructions: 1450000000 cycles: 1197801250 heartbeat IPC: 1.12955 cumulative IPC: 1.16509 (Simulation time: 4 hr 1 min 30 sec) 
Heartbeat CPU 2 instructions: 730000000 cycles: 1202478922 heartbeat IPC: 0.520189 cumulative IPC: 0.466182 (Simulation time: 4 hr 2 min 30 sec) 
Heartbeat CPU 3 instructions: 990000003 cycles: 1202494032 heartbeat IPC: 1.29261 cumulative IPC: 0.756304 (Simulation time: 4 hr 2 min 30 sec) 
Heartbeat CPU 1 instructions: 1440000000 cycles: 1202765195 heartbeat IPC: 0.931242 cumulative IPC: 0.976498 (Simulation time: 4 hr 2 min 33 sec) 
Heartbeat CPU 0 instructions: 1460000000 cycles: 1206680276 heartbeat IPC: 1.12625 cumulative IPC: 1.16476 (Simulation time: 4 hr 3 min 21 sec) 
Heartbeat CPU 3 instructions: 1000000000 cycles: 1210241548 heartbeat IPC: 1.29074 cumulative IPC: 0.760239 (Simulation time: 4 hr 4 min 5 sec) 
Heartbeat CPU 1 instructions: 1450000001 cycles: 1213821857 heartbeat IPC: 0.904432 cumulative IPC: 0.975743 (Simulation time: 4 hr 4 min 51 sec) 
Heartbeat CPU 0 instructions: 1470000003 cycles: 1215520572 heartbeat IPC: 1.13118 cumulative IPC: 1.16448 (Simulation time: 4 hr 5 min 11 sec) 
Heartbeat CPU 3 instructions: 1010000001 cycles: 1217990003 heartbeat IPC: 1.29058 cumulative IPC: 0.764115 (Simulation time: 4 hr 5 min 41 sec) 
Heartbeat CPU 2 instructions: 740000000 cycles: 1223903083 heartbeat IPC: 0.466763 cumulative IPC: 0.466194 (Simulation time: 4 hr 6 min 56 sec) 
Heartbeat CPU 0 instructions: 1480000000 cycles: 1224353220 heartbeat IPC: 1.13216 cumulative IPC: 1.16422 (Simulation time: 4 hr 7 min 1 sec) 
Heartbeat CPU 1 instructions: 1460000000 cycles: 1224814028 heartbeat IPC: 0.909738 cumulative IPC: 0.975063 (Simulation time: 4 hr 7 min 7 sec) 
Heartbeat CPU 3 instructions: 1020000000 cycles: 1225666466 heartbeat IPC: 1.30268 cumulative IPC: 0.767987 (Simulation time: 4 hr 7 min 18 sec) 
Heartbeat CPU 0 instructions: 1490000002 cycles: 1233186407 heartbeat IPC: 1.13209 cumulative IPC: 1.16395 (Simulation time: 4 hr 8 min 52 sec) 
Heartbeat CPU 3 instructions: 1030000000 cycles: 1233274672 heartbeat IPC: 1.31437 cumulative IPC: 0.771853 (Simulation time: 4 hr 8 min 53 sec) 
Heartbeat CPU 1 instructions: 1470000000 cycles: 1235703439 heartbeat IPC: 0.918323 cumulative IPC: 0.97449 (Simulation time: 4 hr 9 min 24 sec) 
Heartbeat CPU 0 instructions: 1500000000 cycles: 1241987359 heartbeat IPC: 1.13624 cumulative IPC: 1.16373 (Simulation time: 4 hr 10 min 38 sec) 
Heartbeat CPU 3 instructions: 1040000000 cycles: 1243537086 heartbeat IPC: 0.97443 cumulative IPC: 0.773768 (Simulation time: 4 hr 10 min 56 sec) 
Heartbeat CPU 2 instructions: 750000000 cycles: 1245329022 heartbeat IPC: 0.466724 cumulative IPC: 0.466204 (Simulation time: 4 hr 11 min 16 sec) 
Heartbeat CPU 1 instructions: 1480000000 cycles: 1246057908 heartbeat IPC: 0.965767 cumulative IPC: 0.974407 (Simulation time: 4 hr 11 min 24 sec) 
Heartbeat CPU 0 instructions: 1510000000 cycles: 1250593748 heartbeat IPC: 1.16193 cumulative IPC: 1.16371 (Simulation time: 4 hr 12 min 15 sec) 
Heartbeat CPU 1 instructions: 1490000001 cycles: 1256008751 heartbeat IPC: 1.00494 cumulative IPC: 0.974684 (Simulation time: 4 hr 13 min 16 sec) 
Heartbeat CPU 0 instructions: 1520000000 cycles: 1259211259 heartbeat IPC: 1.16043 cumulative IPC: 1.16369 (Simulation time: 4 hr 13 min 51 sec) 
Heartbeat CPU 3 instructions: 1050000001 cycles: 1260014361 heartbeat IPC: 0.606897 cumulative IPC: 0.771273 (Simulation time: 4 hr 13 min 59 sec) 
Heartbeat CPU 1 instructions: 1500000000 cycles: 1265903490 heartbeat IPC: 1.01064 cumulative IPC: 0.975005 (Simulation time: 4 hr 15 min 7 sec) 
Heartbeat CPU 2 instructions: 760000000 cycles: 1267455468 heartbeat IPC: 0.451948 cumulative IPC: 0.46592 (Simulation time: 4 hr 15 min 24 sec) 
Heartbeat CPU 0 instructions: 1530000000 cycles: 1267819576 heartbeat IPC: 1.16167 cumulative IPC: 1.16367 (Simulation time: 4 hr 15 min 29 sec) 
Heartbeat CPU 1 instructions: 1510000002 cycles: 1275894571 heartbeat IPC: 1.00089 cumulative IPC: 0.975236 (Simulation time: 4 hr 16 min 59 sec) 
Heartbeat CPU 0 instructions: 1540000000 cycles: 1276435804 heartbeat IPC: 1.1606 cumulative IPC: 1.16365 (Simulation time: 4 hr 17 min 5 sec) 
Heartbeat CPU 3 instructions: 1060000000 cycles: 1276709229 heartbeat IPC: 0.598986 cumulative IPC: 0.768702 (Simulation time: 4 hr 17 min 8 sec) 
Heartbeat CPU 0 instructions: 1550000001 cycles: 1285050473 heartbeat IPC: 1.16081 cumulative IPC: 1.16363 (Simulation time: 4 hr 18 min 43 sec) 
Heartbeat CPU 1 instructions: 1520000000 cycles: 1286084122 heartbeat IPC: 0.981397 cumulative IPC: 0.975292 (Simulation time: 4 hr 18 min 55 sec) 
Heartbeat CPU 2 instructions: 770000002 cycles: 1287609427 heartbeat IPC: 0.496181 cumulative IPC: 0.46646 (Simulation time: 4 hr 19 min 12 sec) 
Heartbeat CPU 3 instructions: 1070000003 cycles: 1293407189 heartbeat IPC: 0.598876 cumulative IPC: 0.766205 (Simulation time: 4 hr 20 min 17 sec) 
Heartbeat CPU 0 instructions: 1560000000 cycles: 1293657116 heartbeat IPC: 1.16189 cumulative IPC: 1.16361 (Simulation time: 4 hr 20 min 20 sec) 
Heartbeat CPU 1 instructions: 1530000001 cycles: 1296648408 heartbeat IPC: 0.946586 cumulative IPC: 0.975025 (Simulation time: 4 hr 20 min 51 sec) 
Heartbeat CPU 0 instructions: 1570000003 cycles: 1302257086 heartbeat IPC: 1.1628 cumulative IPC: 1.16361 (Simulation time: 4 hr 21 min 55 sec) 
Heartbeat CPU 1 instructions: 1540000000 cycles: 1307616645 heartbeat IPC: 0.911723 cumulative IPC: 0.974422 (Simulation time: 4 hr 22 min 52 sec) 
Heartbeat CPU 2 instructions: 780000000 cycles: 1308949065 heartbeat IPC: 0.468611 cumulative IPC: 0.4665 (Simulation time: 4 hr 23 min 9 sec) 
Heartbeat CPU 3 instructions: 1080000000 cycles: 1310130421 heartbeat IPC: 0.59797 cumulative IPC: 0.763763 (Simulation time: 4 hr 23 min 22 sec) 
Heartbeat CPU 0 instructions: 1580000000 cycles: 1310849032 heartbeat IPC: 1.16388 cumulative IPC: 1.16361 (Simulation time: 4 hr 23 min 30 sec) 
Heartbeat CPU 1 instructions: 1550000001 cycles: 1317291466 heartbeat IPC: 1.03361 cumulative IPC: 0.974915 (Simulation time: 4 hr 24 min 41 sec) 
Heartbeat CPU 0 instructions: 1590000000 cycles: 1318596965 heartbeat IPC: 1.29067 cumulative IPC: 1.16446 (Simulation time: 4 hr 24 min 53 sec) 
Heartbeat CPU 0 instructions: 1600000000 cycles: 1325649009 heartbeat IPC: 1.41803 cumulative IPC: 1.16599 (Simulation time: 4 hr 26 min 11 sec) 
Heartbeat CPU 3 instructions: 1090000000 cycles: 1327150214 heartbeat IPC: 0.587551 cumulative IPC: 0.761198 (Simulation time: 4 hr 26 min 27 sec) 
Heartbeat CPU 1 instructions: 1560000000 cycles: 1327567138 heartbeat IPC: 0.973172 cumulative IPC: 0.9749 (Simulation time: 4 hr 26 min 31 sec) 
Heartbeat CPU 2 instructions: 790000000 cycles: 1328536636 heartbeat IPC: 0.510528 cumulative IPC: 0.467237 (Simulation time: 4 hr 26 min 41 sec) 
Heartbeat CPU 0 instructions: 1610000000 cycles: 1333494749 heartbeat IPC: 1.27458 cumulative IPC: 1.16671 (Simulation time: 4 hr 27 min 31 sec) 
Heartbeat CPU 1 instructions: 1570000001 cycles: 1339575083 heartbeat IPC: 0.832782 cumulative IPC: 0.973456 (Simulation time: 4 hr 28 min 31 sec) 
Heartbeat CPU 0 instructions: 1620000000 cycles: 1342312819 heartbeat IPC: 1.13403 cumulative IPC: 1.16647 (Simulation time: 4 hr 28 min 58 sec) 
Heartbeat CPU 3 instructions: 1100000000 cycles: 1345138030 heartbeat IPC: 0.555932 cumulative IPC: 0.758088 (Simulation time: 4 hr 29 min 26 sec) 
Heartbeat CPU 2 instructions: 800000000 cycles: 1349668021 heartbeat IPC: 0.47323 cumulative IPC: 0.467343 (Simulation time: 4 hr 30 min 10 sec) 
Heartbeat CPU 0 instructions: 1630000000 cycles: 1351104521 heartbeat IPC: 1.13744 cumulative IPC: 1.16626 (Simulation time: 4 hr 30 min 23 sec) 
Heartbeat CPU 1 instructions: 1580000000 cycles: 1353992041 heartbeat IPC: 0.693628 cumulative IPC: 0.970083 (Simulation time: 4 hr 30 min 50 sec) 
Heartbeat CPU 0 instructions: 1640000000 cycles: 1359175337 heartbeat IPC: 1.23903 cumulative IPC: 1.16674 (Simulation time: 4 hr 31 min 42 sec) 
Heartbeat CPU 3 instructions: 1110000001 cycles: 1362860749 heartbeat IPC: 0.564248 cumulative IPC: 0.755237 (Simulation time: 4 hr 32 min 20 sec) 
Heartbeat CPU 0 instructions: 1650000000 cycles: 1365576416 heartbeat IPC: 1.56224 cumulative IPC: 1.16884 (Simulation time: 4 hr 32 min 46 sec) 
Heartbeat CPU 1 instructions: 1590000001 cycles: 1366325073 heartbeat IPC: 0.810831 cumulative IPC: 0.968458 (Simulation time: 4 hr 32 min 54 sec) 
Heartbeat CPU 2 instructions: 810000000 cycles: 1370505992 heartbeat IPC: 0.479893 cumulative IPC: 0.467559 (Simulation time: 4 hr 33 min 37 sec) 
Heartbeat CPU 0 instructions: 1660000000 cycles: 1373343971 heartbeat IPC: 1.28741 cumulative IPC: 1.1696 (Simulation time: 4 hr 34 min 6 sec) 
Heartbeat CPU 1 instructions: 1600000000 cycles: 1377236763 heartbeat IPC: 0.916448 cumulative IPC: 0.967992 (Simulation time: 4 hr 34 min 46 sec) 
Heartbeat CPU 3 instructions: 1120000000 cycles: 1379931416 heartbeat IPC: 0.5858 cumulative IPC: 0.75287 (Simulation time: 4 hr 35 min 13 sec) 
Heartbeat CPU 0 instructions: 1670000001 cycles: 1381996514 heartbeat IPC: 1.15573 cumulative IPC: 1.1695 (Simulation time: 4 hr 35 min 33 sec) 
Heartbeat CPU 1 instructions: 1610000000 cycles: 1388857731 heartbeat IPC: 0.860514 cumulative IPC: 0.966977 (Simulation time: 4 hr 36 min 40 sec) 
Heartbeat CPU 0 instructions: 1680000000 cycles: 1391146787 heartbeat IPC: 1.09286 cumulative IPC: 1.16893 (Simulation time: 4 hr 37 min 2 sec) 
Heartbeat CPU 2 instructions: 820000000 cycles: 1392583768 heartbeat IPC: 0.452944 cumulative IPC: 0.467297 (Simulation time: 4 hr 37 min 16 sec) 
Heartbeat CPU 3 instructions: 1130000002 cycles: 1397511887 heartbeat IPC: 0.568813 cumulative IPC: 0.750259 (Simulation time: 4 hr 38 min 4 sec) 
Heartbeat CPU 0 instructions: 1690000003 cycles: 1400058788 heartbeat IPC: 1.12208 cumulative IPC: 1.1686 (Simulation time: 4 hr 38 min 34 sec) 
Heartbeat CPU 1 instructions: 1620000000 cycles: 1400984899 heartbeat IPC: 0.824595 cumulative IPC: 0.965588 (Simulation time: 4 hr 38 min 44 sec) 
Heartbeat CPU 0 instructions: 1700000000 cycles: 1408604751 heartbeat IPC: 1.17014 cumulative IPC: 1.16861 (Simulation time: 4 hr 40 min 6 sec) 
Heartbeat CPU 1 instructions: 1630000003 cycles: 1411929333 heartbeat IPC: 0.913707 cumulative IPC: 0.965136 (Simulation time: 4 hr 40 min 45 sec) 
Heartbeat CPU 3 instructions: 1140000000 cycles: 1414266267 heartbeat IPC: 0.596859 cumulative IPC: 0.748214 (Simulation time: 4 hr 41 min 11 sec) 
Heartbeat CPU 2 instructions: 830000003 cycles: 1415588376 heartbeat IPC: 0.434696 cumulative IPC: 0.466701 (Simulation time: 4 hr 41 min 26 sec) 
Heartbeat CPU 0 instructions: 1710000002 cycles: 1417223214 heartbeat IPC: 1.1603 cumulative IPC: 1.16855 (Simulation time: 4 hr 41 min 44 sec) 
Heartbeat CPU 1 instructions: 1640000000 cycles: 1422081456 heartbeat IPC: 0.985015 cumulative IPC: 0.965295 (Simulation time: 4 hr 42 min 39 sec) 
Heartbeat CPU 0 instructions: 1720000000 cycles: 1425831130 heartbeat IPC: 1.16172 cumulative IPC: 1.1685 (Simulation time: 4 hr 43 min 22 sec) 
Heartbeat CPU 3 instructions: 1150000003 cycles: 1431014799 heartbeat IPC: 0.597067 cumulative IPC: 0.746225 (Simulation time: 4 hr 44 min 20 sec) 
Heartbeat CPU 1 instructions: 1650000002 cycles: 1432443779 heartbeat IPC: 0.965035 cumulative IPC: 0.965293 (Simulation time: 4 hr 44 min 35 sec) 
Heartbeat CPU 0 instructions: 1730000000 cycles: 1434435130 heartbeat IPC: 1.16225 cumulative IPC: 1.16846 (Simulation time: 4 hr 44 min 58 sec) 
Heartbeat CPU 2 instructions: 840000000 cycles: 1435503198 heartbeat IPC: 0.502138 cumulative IPC: 0.467253 (Simulation time: 4 hr 45 min 10 sec) 
Heartbeat CPU 1 instructions: 1660000000 cycles: 1441633016 heartbeat IPC: 1.08823 cumulative IPC: 0.966173 (Simulation time: 4 hr 46 min 19 sec) 
Heartbeat CPU 0 instructions: 1740000000 cycles: 1443026073 heartbeat IPC: 1.16402 cumulative IPC: 1.16843 (Simulation time: 4 hr 46 min 33 sec) 
Heartbeat CPU 3 instructions: 1160000000 cycles: 1447766262 heartbeat IPC: 0.596963 cumulative IPC: 0.744287 (Simulation time: 4 hr 47 min 27 sec) 
Heartbeat CPU 1 instructions: 1670000000 cycles: 1451462480 heartbeat IPC: 1.01735 cumulative IPC: 0.966562 (Simulation time: 4 hr 48 min 9 sec) 
Heartbeat CPU 0 instructions: 1750000003 cycles: 1451612258 heartbeat IPC: 1.16466 cumulative IPC: 1.16841 (Simulation time: 4 hr 48 min 10 sec) 
[...]
Heartbeat CPU 3 instructions: 1690000002 cycles: 2236938587 heartbeat IPC: 0.771489 cumulative IPC: 0.716691 (Simulation time: 7 hr 18 min 32 sec) 
Heartbeat CPU 0 instructions: 2670000003 cycles: 2237199471 heartbeat IPC: 1.16731 cumulative IPC: 1.16942 (Simulation time: 7 hr 18 min 35 sec) 
Heartbeat CPU 1 instructions: 2460000000 cycles: 2238963822 heartbeat IPC: 0.967679 cumulative IPC: 0.980416 (Simulation time: 7 hr 18 min 56 sec) 
Heartbeat CPU 0 instructions: 2680000000 cycles: 2245744465 heartbeat IPC: 1.17028 cumulative IPC: 1.16943 (Simulation time: 7 hr 20 min 16 sec) 
Heartbeat CPU 2 instructions: 1210000000 cycles: 2248960750 heartbeat IPC: 0.46151 cumulative IPC: 0.462428 (Simulation time: 7 hr 20 min 50 sec) 
Heartbeat CPU 1 instructions: 2470000003 cycles: 2249623173 heartbeat IPC: 0.938144 cumulative IPC: 0.980201 (Simulation time: 7 hr 20 min 58 sec) 
Heartbeat CPU 3 instructions: 1700000000 cycles: 2250733363 heartbeat IPC: 0.724912 cumulative IPC: 0.716746 (Simulation time: 7 hr 21 min 13 sec) 
Heartbeat CPU 0 instructions: 2690000003 cycles: 2254289154 heartbeat IPC: 1.17032 cumulative IPC: 1.16943 (Simulation time: 7 hr 21 min 55 sec) 
Heartbeat CPU 1 instructions: 2480000000 cycles: 2258614778 heartbeat IPC: 1.11215 cumulative IPC: 0.980766 (Simulation time: 7 hr 22 min 46 sec) 
Heartbeat CPU 0 instructions: 2700000000 cycles: 2262821532 heartbeat IPC: 1.17201 cumulative IPC: 1.16944 (Simulation time: 7 hr 23 min 32 sec) 
Heartbeat CPU 3 instructions: 1710000001 cycles: 2264437826 heartbeat IPC: 0.729689 cumulative IPC: 0.71683 (Simulation time: 7 hr 23 min 51 sec) 
Heartbeat CPU 1 instructions: 2490000000 cycles: 2269075842 heartbeat IPC: 0.955926 cumulative IPC: 0.980643 (Simulation time: 7 hr 24 min 47 sec) 
Heartbeat CPU 2 instructions: 1220000000 cycles: 2271239060 heartbeat IPC: 0.448867 cumulative IPC: 0.462285 (Simulation time: 7 hr 25 min 12 sec) 
Heartbeat CPU 0 instructions: 2710000001 cycles: 2271392220 heartbeat IPC: 1.16677 cumulative IPC: 1.16943 (Simulation time: 7 hr 25 min 14 sec) 
Heartbeat CPU 3 instructions: 1720000000 cycles: 2278187578 heartbeat IPC: 0.727286 cumulative IPC: 0.716898 (Simulation time: 7 hr 26 min 30 sec) 
Heartbeat CPU 1 instructions: 2500000000 cycles: 2279894216 heartbeat IPC: 0.924353 cumulative IPC: 0.980356 (Simulation time: 7 hr 26 min 51 sec) 
Heartbeat CPU 0 instructions: 2720000000 cycles: 2279928774 heartbeat IPC: 1.17143 cumulative IPC: 1.16944 (Simulation time: 7 hr 26 min 51 sec) 
Heartbeat CPU 0 instructions: 2730000001 cycles: 2288509607 heartbeat IPC: 1.16539 cumulative IPC: 1.16942 (Simulation time: 7 hr 28 min 33 sec) 
Heartbeat CPU 1 instructions: 2510000000 cycles: 2289083002 heartbeat IPC: 1.08828 cumulative IPC: 0.980821 (Simulation time: 7 hr 28 min 40 sec) 
Heartbeat CPU 3 instructions: 1730000000 cycles: 2291901981 heartbeat IPC: 0.72916 cumulative IPC: 0.716976 (Simulation time: 7 hr 29 min 12 sec) 
Heartbeat CPU 2 instructions: 1230000000 cycles: 2293856903 heartbeat IPC: 0.442129 cumulative IPC: 0.462071 (Simulation time: 7 hr 29 min 32 sec) 
Heartbeat CPU 0 instructions: 2740000000 cycles: 2296388799 heartbeat IPC: 1.26917 cumulative IPC: 1.16979 (Simulation time: 7 hr 30 min 0 sec) 
Heartbeat CPU 1 instructions: 2520000000 cycles: 2299798295 heartbeat IPC: 0.933246 cumulative IPC: 0.980583 (Simulation time: 7 hr 30 min 38 sec) 
Heartbeat CPU 0 instructions: 2750000003 cycles: 2303468711 heartbeat IPC: 1.41245 cumulative IPC: 1.17059 (Simulation time: 7 hr 31 min 20 sec) 
Heartbeat CPU 3 instructions: 1740000000 cycles: 2305619031 heartbeat IPC: 0.72902 cumulative IPC: 0.717053 (Simulation time: 7 hr 31 min 44 sec) 
Heartbeat CPU 1 instructions: 2530000002 cycles: 2311111250 heartbeat IPC: 0.883943 cumulative IPC: 0.980075 (Simulation time: 7 hr 32 min 41 sec) 
Heartbeat CPU 0 instructions: 2760000000 cycles: 2311226854 heartbeat IPC: 1.28897 cumulative IPC: 1.17102 (Simulation time: 7 hr 32 min 42 sec) 
Heartbeat CPU 2 instructions: 1240000000 cycles: 2315076002 heartbeat IPC: 0.471274 cumulative IPC: 0.462162 (Simulation time: 7 hr 33 min 25 sec) 
Heartbeat CPU 3 instructions: 1750000000 cycles: 2319376847 heartbeat IPC: 0.72686 cumulative IPC: 0.717116 (Simulation time: 7 hr 34 min 12 sec) 
Heartbeat CPU 0 instructions: 2770000001 cycles: 2320017967 heartbeat IPC: 1.13751 cumulative IPC: 1.17088 (Simulation time: 7 hr 34 min 19 sec) 
Heartbeat CPU 1 instructions: 2540000000 cycles: 2321039640 heartbeat IPC: 1.00721 cumulative IPC: 0.9802 (Simulation time: 7 hr 34 min 30 sec) 
Finished CPU 2 instructions: 1000000002 cycles: 2164065270 cumulative IPC: 0.462093 (Simulation time: 7 hr 34 min 41 sec) 

CPU 0 Branch Prediction Accuracy: 98.2344% MPKI: 0.683589

CPU 1 Branch Prediction Accuracy: 96.6269% MPKI: 2.76536

CPU 2 Branch Prediction Accuracy: 86.7655% MPKI: 21.2029

CPU 3 Branch Prediction Accuracy: 99.6694% MPKI: 0.045841

ChampSim completed all CPUs

Total Simulation Statistics (not including warmup)

CPU 0 cumulative IPC: 1.17086 instructions: 2533813224 cycles: 2164065270
L1D TOTAL     ACCESS: 1155404850  HIT: 1103670169  MISS:   51734681
L1D LOAD      ACCESS:  978483357  HIT:  927976077  MISS:   50507280
L1D RFO       ACCESS:  176921493  HIT:  175694092  MISS:    1227401
L1D PREFETCH  ACCESS:          0  HIT:          0  MISS:          0
L1D WRITEBACK ACCESS:          0  HIT:          0  MISS:          0
L1I TOTAL     ACCESS:  585682509  HIT:  585682421  MISS:         88
L1I LOAD      ACCESS:  585682509  HIT:  585682421  MISS:         88
L1I RFO       ACCESS:          0  HIT:          0  MISS:          0
L1I PREFETCH  ACCESS:          0  HIT:          0  MISS:          0
L1I WRITEBACK ACCESS:          0  HIT:          0  MISS:          0
L2C TOTAL     ACCESS:  116323607  HIT:   69062967  MISS:   47260640
L2C LOAD      ACCESS:   50490796  HIT:   48487513  MISS:    2003283
L2C RFO       ACCESS:    1209773  HIT:     173426  MISS:    1036347
L2C PREFETCH  ACCESS:   61455718  HIT:   17242679  MISS:   44213039
L2C WRITEBACK ACCESS:    3167320  HIT:    3159349  MISS:       7971

Avg Lookahead Depth:	4.67029
TOTAL: 1.69863e+08	L2C: 1.47532e+08	LLC: 2.23304e+07	GOOD_L2C: 9.33341e+07
Printing all the perceptron weights to: perc_weights_0.csv
LLC TOTAL     ACCESS:   51587198  HIT:    4375143  MISS:   47212055
LLC LOAD      ACCESS:    1718532  HIT:      17674  MISS:    1700858
LLC RFO       ACCESS:    1036347  HIT:          5  MISS:    1036342
LLC PREFETCH  ACCESS:   46067638  HIT:    1594521  MISS:   44473117
LLC WRITEBACK ACCESS:    2764681  HIT:    2762943  MISS:       1738

CPU 1 cumulative IPC: 0.980203 instructions: 2121223594 cycles: 2164065270
L1D TOTAL     ACCESS:  375292117  HIT:  342506608  MISS:   32785509
L1D LOAD      ACCESS:  336922278  HIT:  305329909  MISS:   31592369
L1D RFO       ACCESS:   38369839  HIT:   37176699  MISS:    1193140
L1D PREFETCH  ACCESS:          0  HIT:          0  MISS:          0
L1D WRITEBACK ACCESS:          0  HIT:          0  MISS:          0
L1I TOTAL     ACCESS:  549011147  HIT:  549009757  MISS:       1390
L1I LOAD      ACCESS:  549011147  HIT:  549009757  MISS:       1390
L1I RFO       ACCESS:          0  HIT:          0  MISS:          0
L1I PREFETCH  ACCESS:          0  HIT:          0  MISS:          0
L1I WRITEBACK ACCESS:          0  HIT:          0  MISS:          0
L2C TOTAL     ACCESS:   67281174  HIT:   36363261  MISS:   30917913
L2C LOAD      ACCESS:   31593730  HIT:   26009845  MISS:    5583885
L2C RFO       ACCESS:    1193053  HIT:     232439  MISS:     960614
L2C PREFETCH  ACCESS:   32399671  HIT:    8030074  MISS:   24369597
L2C WRITEBACK ACCESS:    2094720  HIT:    2090903  MISS:       3817

Avg Lookahead Depth:	4.67029
TOTAL: 1.69863e+08	L2C: 1.47532e+08	LLC: 2.23304e+07	GOOD_L2C: 9.33341e+07
Printing all the perceptron weights to: perc_weights_0.csv
LLC TOTAL     ACCESS:   36656088  HIT:    8025151  MISS:   28630937
LLC LOAD      ACCESS:    5230245  HIT:    2478982  MISS:    2751263
LLC RFO       ACCESS:     960454  HIT:     203872  MISS:     756582
LLC PREFETCH  ACCESS:   28733061  HIT:    3613590  MISS:   25119471
LLC WRITEBACK ACCESS:    1732328  HIT:    1728707  MISS:       3621

CPU 2 cumulative IPC: 0.462093 instructions: 1000000002 cycles: 2164065270
L1D TOTAL     ACCESS:  308050950  HIT:  303612122  MISS:    4438828
L1D LOAD      ACCESS:  180192793  HIT:  177931510  MISS:    2261283
L1D RFO       ACCESS:  127858157  HIT:  125680612  MISS:    2177545
L1D PREFETCH  ACCESS:          0  HIT:          0  MISS:          0
L1D WRITEBACK ACCESS:          0  HIT:          0  MISS:          0
L1I TOTAL     ACCESS:  228545730  HIT:  225603400  MISS:    2942330
L1I LOAD      ACCESS:  228545730  HIT:  225603400  MISS:    2942330
L1I RFO       ACCESS:          0  HIT:          0  MISS:          0
L1I PREFETCH  ACCESS:          0  HIT:          0  MISS:          0
L1I WRITEBACK ACCESS:          0  HIT:          0  MISS:          0
L2C TOTAL     ACCESS:   15148974  HIT:   12225505  MISS:    2923469
L2C LOAD      ACCESS:    5203596  HIT:    4230877  MISS:     972719
L2C RFO       ACCESS:    2177484  HIT:    1103701  MISS:    1073783
L2C PREFETCH  ACCESS:    4966211  HIT:    4103016  MISS:     863195
L2C WRITEBACK ACCESS:    2801683  HIT:    2787911  MISS:      13772

Avg Lookahead Depth:	4.67029
TOTAL: 1.69863e+08	L2C: 1.47532e+08	LLC: 2.23304e+07	GOOD_L2C: 9.33341e+07
Printing all the perceptron weights to: perc_weights_0.csv
LLC TOTAL     ACCESS:    4913970  HIT:    2163239  MISS:    2750731
LLC LOAD      ACCESS:     855534  HIT:     276847  MISS:     578687
LLC RFO       ACCESS:    1073732  HIT:     170860  MISS:     902872
LLC PREFETCH  ACCESS:    1504914  HIT:     519488  MISS:     985426
LLC WRITEBACK ACCESS:    1479790  HIT:    1196044  MISS:     283746

CPU 3 cumulative IPC: 0.717126 instructions: 1551906588 cycles: 2164065270
L1D TOTAL     ACCESS:  742247516  HIT:  714031098  MISS:   28216418
L1D LOAD      ACCESS:  647380244  HIT:  619339778  MISS:   28040466
L1D RFO       ACCESS:   94867272  HIT:   94691320  MISS:     175952
L1D PREFETCH  ACCESS:          0  HIT:          0  MISS:          0
L1D WRITEBACK ACCESS:          0  HIT:          0  MISS:          0
L1I TOTAL     ACCESS:  386895658  HIT:  386894753  MISS:        905
L1I LOAD      ACCESS:  386895658  HIT:  386894753  MISS:        905
L1I RFO       ACCESS:          0  HIT:          0  MISS:          0
L1I PREFETCH  ACCESS:          0  HIT:          0  MISS:          0
L1I WRITEBACK ACCESS:          0  HIT:          0  MISS:          0
L2C TOTAL     ACCESS:   71561919  HIT:   49940893  MISS:   21621026
L2C LOAD      ACCESS:   28040368  HIT:   24789808  MISS:    3250560
L2C RFO       ACCESS:     175836  HIT:        981  MISS:     174855
L2C PREFETCH  ACCESS:   34580017  HIT:   16386374  MISS:   18193643
L2C WRITEBACK ACCESS:    8765698  HIT:    8763730  MISS:       1968

Avg Lookahead Depth:	4.67029
TOTAL: 1.69863e+08	L2C: 1.47532e+08	LLC: 2.23304e+07	GOOD_L2C: 9.33341e+07
Printing all the perceptron weights to: perc_weights_0.csv
LLC TOTAL     ACCESS:   33556294  HIT:   16275666  MISS:   17280628
LLC LOAD      ACCESS:    3159895  HIT:    1023439  MISS:    2136456
LLC RFO       ACCESS:     174852  HIT:      91757  MISS:      83095
LLC PREFETCH  ACCESS:   22903768  HIT:    7877721  MISS:   15026047
LLC WRITEBACK ACCESS:    7317779  HIT:    7282749  MISS:      35030

Region of Interest Statistics

CPU 0 cumulative IPC: 1.17313 instructions: 1000000002 cycles: 852421832
L1D TOTAL     ACCESS:  445026701  HIT:  424578477  MISS:   20448224
L1D LOAD      ACCESS:  376225829  HIT:  356241486  MISS:   19984343
L1D RFO       ACCESS:   68800872  HIT:   68336991  MISS:     463881
L1D PREFETCH  ACCESS:          0  HIT:          0  MISS:          0
L1D WRITEBACK ACCESS:          0  HIT:          0  MISS:          0
L1D PREFETCH  REQUESTED:          0  ISSUED:          0  USEFUL:          0  USELESS:          0
L1I TOTAL     ACCESS:  230393729  HIT:  230393641  MISS:         88
L1I LOAD      ACCESS:  230393729  HIT:  230393641  MISS:         88
L1I RFO       ACCESS:          0  HIT:          0  MISS:          0
L1I PREFETCH  ACCESS:          0  HIT:          0  MISS:          0
L1I WRITEBACK ACCESS:          0  HIT:          0  MISS:          0
L1I PREFETCH  REQUESTED:          0  ISSUED:          0  USEFUL:          0  USELESS:          0
L2C TOTAL     ACCESS:   46138190  HIT:   27391753  MISS:   18746437
L2C LOAD      ACCESS:   19978183  HIT:   19151476  MISS:     826707
L2C RFO       ACCESS:     457369  HIT:      63598  MISS:     393771
L2C PREFETCH  ACCESS:   24309040  HIT:    6786081  MISS:   17522959
L2C WRITEBACK ACCESS:    1393598  HIT:    1390598  MISS:       3000
L2C PREFETCH  REQUESTED:   73338038  ISSUED:   72718254  USEFUL:   48364283  USELESS:      12710
LLC TOTAL     ACCESS:   20575733  HIT:    1853757  MISS:   18721976
LLC LOAD      ACCESS:     693608  HIT:       7269  MISS:     686339
LLC RFO       ACCESS:     393771  HIT:          0  MISS:     393771
LLC PREFETCH  ACCESS:   18245427  HIT:     604208  MISS:   17641219
LLC WRITEBACK ACCESS:    1242927  HIT:    1242280  MISS:        647
LLC PREFETCH  REQUESTED:          0  ISSUED:          0  USEFUL:    1141459  USELESS:   94952185
Major fault: 0 Minor fault: 108280

CPU 1 cumulative IPC: 0.977915 instructions: 1000000002 cycles: 1022584104
L1D TOTAL     ACCESS:  176540730  HIT:  161169688  MISS:   15371042
L1D LOAD      ACCESS:  158717839  HIT:  143893433  MISS:   14824406
L1D RFO       ACCESS:   17822891  HIT:   17276255  MISS:     546636
L1D PREFETCH  ACCESS:          0  HIT:          0  MISS:          0
L1D WRITEBACK ACCESS:          0  HIT:          0  MISS:          0
L1D PREFETCH  REQUESTED:          0  ISSUED:          0  USEFUL:          0  USELESS:          0
L1I TOTAL     ACCESS:  258830019  HIT:  258829371  MISS:        648
L1I LOAD      ACCESS:  258830019  HIT:  258829371  MISS:        648
L1I RFO       ACCESS:          0  HIT:          0  MISS:          0
L1I PREFETCH  ACCESS:          0  HIT:          0  MISS:          0
L1I WRITEBACK ACCESS:          0  HIT:          0  MISS:          0
L1I PREFETCH  REQUESTED:          0  ISSUED:          0  USEFUL:          0  USELESS:          0
L2C TOTAL     ACCESS:   31493938  HIT:   17115147  MISS:   14378791
L2C LOAD      ACCESS:   14825041  HIT:   12171005  MISS:    2654036
L2C RFO       ACCESS:     546607  HIT:     107804  MISS:     438803
L2C PREFETCH  ACCESS:   15140210  HIT:    3855980  MISS:   11284230
L2C WRITEBACK ACCESS:     982080  HIT:     980358  MISS:       1722
L2C PREFETCH  REQUESTED:   45449791  ISSUED:   45449769  USEFUL:   24796309  USELESS:    4502399
LLC TOTAL     ACCESS:   17048127  HIT:    3768977  MISS:   13279150
LLC LOAD      ACCESS:    2499048  HIT:    1205766  MISS:    1293282
LLC RFO       ACCESS:     438736  HIT:      86568  MISS:     352168
LLC PREFETCH  ACCESS:   13298602  HIT:    1666693  MISS:   11631909
LLC WRITEBACK ACCESS:     811741  HIT:     809950  MISS:       1791
LLC PREFETCH  REQUESTED:          0  ISSUED:          0  USEFUL:    1141459  USELESS:   94952185
Major fault: 0 Minor fault: 4493

CPU 2 cumulative IPC: 0.462093 instructions: 1000000002 cycles: 2164065270
L1D TOTAL     ACCESS:  308050950  HIT:  303612122  MISS:    4438828
L1D LOAD      ACCESS:  180192793  HIT:  177931510  MISS:    2261283
L1D RFO       ACCESS:  127858157  HIT:  125680612  MISS:    2177545
L1D PREFETCH  ACCESS:          0  HIT:          0  MISS:          0
L1D WRITEBACK ACCESS:          0  HIT:          0  MISS:          0
L1D PREFETCH  REQUESTED:          0  ISSUED:          0  USEFUL:          0  USELESS:          0
L1I TOTAL     ACCESS:  228545730  HIT:  225603400  MISS:    2942330
L1I LOAD      ACCESS:  228545730  HIT:  225603400  MISS:    2942330
L1I RFO       ACCESS:          0  HIT:          0  MISS:          0
L1I PREFETCH  ACCESS:          0  HIT:          0  MISS:          0
L1I WRITEBACK ACCESS:          0  HIT:          0  MISS:          0
L1I PREFETCH  REQUESTED:          0  ISSUED:          0  USEFUL:          0  USELESS:          0
L2C TOTAL     ACCESS:   15148974  HIT:   12225505  MISS:    2923469
L2C LOAD      ACCESS:    5203596  HIT:    4230877  MISS:     972719
L2C RFO       ACCESS:    2177484  HIT:    1103701  MISS:    1073783
L2C PREFETCH  ACCESS:    4966211  HIT:    4103016  MISS:     863195
L2C WRITEBACK ACCESS:    2801683  HIT:    2787911  MISS:      13772
L2C PREFETCH  REQUESTED:    7504929  ISSUED:    7501929  USEFUL:     645457  USELESS:     433584
LLC TOTAL     ACCESS:    4913970  HIT:    2163239  MISS:    2750731
LLC LOAD      ACCESS:     855534  HIT:     276847  MISS:     578687
LLC RFO       ACCESS:    1073732  HIT:     170860  MISS:     902872
LLC PREFETCH  ACCESS:    1504914  HIT:     519488  MISS:     985426
LLC WRITEBACK ACCESS:    1479790  HIT:    1196044  MISS:     283746
LLC PREFETCH  REQUESTED:          0  ISSUED:          0  USEFUL:    1141459  USELESS:   94952185
Major fault: 0 Minor fault: 6650

CPU 3 cumulative IPC: 0.731557 instructions: 1000000000 cycles: 1366946548
L1D TOTAL     ACCESS:  420763754  HIT:  397295295  MISS:   23468459
L1D LOAD      ACCESS:  360666964  HIT:  337373959  MISS:   23293005
L1D RFO       ACCESS:   60096790  HIT:   59921336  MISS:     175454
L1D PREFETCH  ACCESS:          0  HIT:          0  MISS:          0
L1D WRITEBACK ACCESS:          0  HIT:          0  MISS:          0
L1D PREFETCH  REQUESTED:          0  ISSUED:          0  USEFUL:          0  USELESS:          0
L1I TOTAL     ACCESS:  234126221  HIT:  234125493  MISS:        728
L1I LOAD      ACCESS:  234126221  HIT:  234125493  MISS:        728
L1I RFO       ACCESS:          0  HIT:          0  MISS:          0
L1I PREFETCH  ACCESS:          0  HIT:          0  MISS:          0
L1I WRITEBACK ACCESS:          0  HIT:          0  MISS:          0
L1I PREFETCH  REQUESTED:          0  ISSUED:          0  USEFUL:          0  USELESS:          0
L2C TOTAL     ACCESS:   56403125  HIT:   39141473  MISS:   17261652
L2C LOAD      ACCESS:   23293443  HIT:   20381363  MISS:    2912080
L2C RFO       ACCESS:     175430  HIT:        597  MISS:     174833
L2C PREFETCH  ACCESS:   26311478  HIT:   12138617  MISS:   14172861
L2C WRITEBACK ACCESS:    6622774  HIT:    6620896  MISS:       1878
L2C PREFETCH  REQUESTED:   43569869  ISSUED:   43569306  USEFUL:   17255954  USELESS:    2356836
LLC TOTAL     ACCESS:   25185670  HIT:   12006499  MISS:   13179171
LLC LOAD      ACCESS:    2822135  HIT:     916168  MISS:    1905967
LLC RFO       ACCESS:     174830  HIT:      91752  MISS:      83078
LLC PREFETCH  ACCESS:   16996846  HIT:    5841615  MISS:   11155231
LLC WRITEBACK ACCESS:    5191859  HIT:    5156964  MISS:      34895
LLC PREFETCH  REQUESTED:          0  ISSUED:          0  USEFUL:    1141459  USELESS:   94952185
Major fault: 0 Minor fault: 189124

Avg Lookahead Depth:	4.67029
TOTAL: 1.69863e+08	L2C: 1.47532e+08	LLC: 2.23304e+07	GOOD_L2C: 9.33341e+07
Printing all the perceptron weights to: perc_weights_0.csv

Avg Lookahead Depth:	4.67029
TOTAL: 1.69863e+08	L2C: 1.47532e+08	LLC: 2.23304e+07	GOOD_L2C: 9.33341e+07
Printing all the perceptron weights to: perc_weights_0.csv

Avg Lookahead Depth:	4.67029
TOTAL: 1.69863e+08	L2C: 1.47532e+08	LLC: 2.23304e+07	GOOD_L2C: 9.33341e+07
Printing all the perceptron weights to: perc_weights_0.csv

Avg Lookahead Depth:	4.67029
TOTAL: 1.69863e+08	L2C: 1.47532e+08	LLC: 2.23304e+07	GOOD_L2C: 9.33341e+07
Printing all the perceptron weights to: perc_weights_0.csv

DRAM Statistics
 CHANNEL 0
 RQ ROW_BUFFER_HIT:   28896806  ROW_BUFFER_MISS:   18845447
 DBUS_CONGESTED:   55207692
 WQ ROW_BUFFER_HIT:     710462  ROW_BUFFER_MISS:    5556346  FULL:          0

 CHANNEL 1
 RQ ROW_BUFFER_HIT:   28879528  ROW_BUFFER_MISS:   18924957
 DBUS_CONGESTED:   55207692
 WQ ROW_BUFFER_HIT:     709284  ROW_BUFFER_MISS:    5555387  FULL:          0

 AVG_CONGESTED_CYCLE: 12
