Initialize SIGNATURE TABLE
ST_SET: 1
ST_WAY: 256
ST_TAG_BIT: 16
ST_TAG_MASK: ffff

Initialize PATTERN TABLE
PT_SET: 512
PT_WAY: 4
SIG_DELTA_BIT: 7
C_SIG_BIT: 4
C_DELTA_BIT: 4

Initialize PREFETCH FILTER
FILTER_SET: 1024

Initialize PERCEPTRON
PERC_ENTRIES: 4096
PERC_FEATURES: 9

*** ChampSim Multicore Out-of-Order Simulator ***

Warmup Instructions: 200000000
Simulation Instructions: 1000000000
Number of CPUs: 1
LLC sets: 512
LLC ways: 16
Off-chip DRAM Size: 4096 MB Channels: 1 Width: 64-bit Data Rate: 1600 MT/s

CPU 0 runs /scratch/user/djimenez/champsim-traces/speccpu2017/xz/605.mcf_s/605.mcf_s-484B.champsimtrace.xz
Heartbeat CPU 0 instructions: 10000000 cycles: 6837191 heartbeat IPC: 1.46259 cumulative IPC: 1.46259 (Simulation time: 0 hr 0 min 31 sec) 
Heartbeat CPU 0 instructions: 20000000 cycles: 13579295 heartbeat IPC: 1.48322 cumulative IPC: 1.47283 (Simulation time: 0 hr 1 min 2 sec) 
Heartbeat CPU 0 instructions: 30000000 cycles: 20260146 heartbeat IPC: 1.49682 cumulative IPC: 1.48074 (Simulation time: 0 hr 1 min 34 sec) 
Heartbeat CPU 0 instructions: 40000000 cycles: 27097233 heartbeat IPC: 1.46261 cumulative IPC: 1.47617 (Simulation time: 0 hr 2 min 5 sec) 
Heartbeat CPU 0 instructions: 50000003 cycles: 33835289 heartbeat IPC: 1.48411 cumulative IPC: 1.47775 (Simulation time: 0 hr 2 min 37 sec) 
Heartbeat CPU 0 instructions: 60000000 cycles: 40596651 heartbeat IPC: 1.47899 cumulative IPC: 1.47795 (Simulation time: 0 hr 3 min 9 sec) 
Heartbeat CPU 0 instructions: 70000002 cycles: 47154177 heartbeat IPC: 1.52497 cumulative IPC: 1.48449 (Simulation time: 0 hr 3 min 41 sec) 
Heartbeat CPU 0 instructions: 80000000 cycles: 53903509 heartbeat IPC: 1.48163 cumulative IPC: 1.48413 (Simulation time: 0 hr 4 min 13 sec) 
Heartbeat CPU 0 instructions: 90000000 cycles: 60548161 heartbeat IPC: 1.50497 cumulative IPC: 1.48642 (Simulation time: 0 hr 4 min 46 sec) 
Heartbeat CPU 0 instructions: 100000000 cycles: 67285151 heartbeat IPC: 1.48434 cumulative IPC: 1.48621 (Simulation time: 0 hr 5 min 17 sec) 
Heartbeat CPU 0 instructions: 110000001 cycles: 73962259 heartbeat IPC: 1.49765 cumulative IPC: 1.48724 (Simulation time: 0 hr 5 min 49 sec) 
Heartbeat CPU 0 instructions: 120000000 cycles: 80790554 heartbeat IPC: 1.46449 cumulative IPC: 1.48532 (Simulation time: 0 hr 6 min 20 sec) 
Heartbeat CPU 0 instructions: 130000000 cycles: 87620828 heartbeat IPC: 1.46407 cumulative IPC: 1.48367 (Simulation time: 0 hr 6 min 52 sec) 
Heartbeat CPU 0 instructions: 140000000 cycles: 94294063 heartbeat IPC: 1.49852 cumulative IPC: 1.48472 (Simulation time: 0 hr 7 min 23 sec) 
Heartbeat CPU 0 instructions: 150000000 cycles: 101126942 heartbeat IPC: 1.46351 cumulative IPC: 1.48328 (Simulation time: 0 hr 7 min 55 sec) 
Heartbeat CPU 0 instructions: 160000000 cycles: 107962101 heartbeat IPC: 1.46302 cumulative IPC: 1.482 (Simulation time: 0 hr 8 min 26 sec) 
Heartbeat CPU 0 instructions: 170000000 cycles: 114640430 heartbeat IPC: 1.49738 cumulative IPC: 1.4829 (Simulation time: 0 hr 8 min 58 sec) 
Heartbeat CPU 0 instructions: 180000000 cycles: 121384838 heartbeat IPC: 1.48271 cumulative IPC: 1.48289 (Simulation time: 0 hr 9 min 29 sec) 
Heartbeat CPU 0 instructions: 190000002 cycles: 128123755 heartbeat IPC: 1.48392 cumulative IPC: 1.48294 (Simulation time: 0 hr 10 min 0 sec) 
Heartbeat CPU 0 instructions: 200000000 cycles: 134575569 heartbeat IPC: 1.54995 cumulative IPC: 1.48615 (Simulation time: 0 hr 10 min 33 sec) 

Warmup complete CPU 0 instructions: 200000003 cycles: 134575570 (Simulation time: 0 hr 10 min 33 sec) 

Heartbeat CPU 0 instructions: 210000001 cycles: 158658899 heartbeat IPC: 0.415225 cumulative IPC: 0.415225 (Simulation time: 0 hr 11 min 21 sec) 
Heartbeat CPU 0 instructions: 220000000 cycles: 177127553 heartbeat IPC: 0.541458 cumulative IPC: 0.470013 (Simulation time: 0 hr 12 min 3 sec) 
Heartbeat CPU 0 instructions: 230000001 cycles: 196411374 heartbeat IPC: 0.518569 cumulative IPC: 0.485156 (Simulation time: 0 hr 12 min 44 sec) 
Heartbeat CPU 0 instructions: 240000000 cycles: 216354801 heartbeat IPC: 0.501418 cumulative IPC: 0.489122 (Simulation time: 0 hr 13 min 27 sec) 
Heartbeat CPU 0 instructions: 250000000 cycles: 237793979 heartbeat IPC: 0.466436 cumulative IPC: 0.48441 (Simulation time: 0 hr 14 min 13 sec) 
Heartbeat CPU 0 instructions: 260000000 cycles: 254929058 heartbeat IPC: 0.583598 cumulative IPC: 0.498531 (Simulation time: 0 hr 14 min 53 sec) 
Heartbeat CPU 0 instructions: 270000000 cycles: 276801431 heartbeat IPC: 0.457198 cumulative IPC: 0.492175 (Simulation time: 0 hr 15 min 37 sec) 
Heartbeat CPU 0 instructions: 280000000 cycles: 296483596 heartbeat IPC: 0.508074 cumulative IPC: 0.494108 (Simulation time: 0 hr 16 min 21 sec) 
Heartbeat CPU 0 instructions: 290000000 cycles: 318394209 heartbeat IPC: 0.4564 cumulative IPC: 0.489613 (Simulation time: 0 hr 17 min 6 sec) 
Heartbeat CPU 0 instructions: 300000000 cycles: 338470501 heartbeat IPC: 0.4981 cumulative IPC: 0.490449 (Simulation time: 0 hr 17 min 49 sec) 
Heartbeat CPU 0 instructions: 310000003 cycles: 358900582 heartbeat IPC: 0.489474 cumulative IPC: 0.49036 (Simulation time: 0 hr 18 min 33 sec) 
Heartbeat CPU 0 instructions: 320000000 cycles: 381807118 heartbeat IPC: 0.436556 cumulative IPC: 0.485375 (Simulation time: 0 hr 19 min 18 sec) 
Heartbeat CPU 0 instructions: 330000000 cycles: 400176649 heartbeat IPC: 0.54438 cumulative IPC: 0.489456 (Simulation time: 0 hr 19 min 59 sec) 
Heartbeat CPU 0 instructions: 340000000 cycles: 422883050 heartbeat IPC: 0.440404 cumulative IPC: 0.485593 (Simulation time: 0 hr 20 min 46 sec) 
Heartbeat CPU 0 instructions: 350000002 cycles: 444615612 heartbeat IPC: 0.460139 cumulative IPC: 0.483808 (Simulation time: 0 hr 21 min 30 sec) 
Heartbeat CPU 0 instructions: 360000000 cycles: 465746854 heartbeat IPC: 0.473233 cumulative IPC: 0.483134 (Simulation time: 0 hr 22 min 16 sec) 
Heartbeat CPU 0 instructions: 370000000 cycles: 485108870 heartbeat IPC: 0.516475 cumulative IPC: 0.484975 (Simulation time: 0 hr 22 min 58 sec) 
Heartbeat CPU 0 instructions: 380000000 cycles: 505596940 heartbeat IPC: 0.488089 cumulative IPC: 0.485147 (Simulation time: 0 hr 23 min 44 sec) 
Heartbeat CPU 0 instructions: 390000002 cycles: 525602506 heartbeat IPC: 0.499861 cumulative IPC: 0.4859 (Simulation time: 0 hr 24 min 26 sec) 
Heartbeat CPU 0 instructions: 400000000 cycles: 546245585 heartbeat IPC: 0.484424 cumulative IPC: 0.485826 (Simulation time: 0 hr 25 min 10 sec) 
Heartbeat CPU 0 instructions: 410000000 cycles: 564886354 heartbeat IPC: 0.536459 cumulative IPC: 0.488019 (Simulation time: 0 hr 25 min 52 sec) 
Heartbeat CPU 0 instructions: 420000000 cycles: 584453655 heartbeat IPC: 0.511057 cumulative IPC: 0.489021 (Simulation time: 0 hr 26 min 33 sec) 
Heartbeat CPU 0 instructions: 430000001 cycles: 603016229 heartbeat IPC: 0.538718 cumulative IPC: 0.490991 (Simulation time: 0 hr 27 min 15 sec) 
Heartbeat CPU 0 instructions: 440000000 cycles: 623699556 heartbeat IPC: 0.483481 cumulative IPC: 0.490673 (Simulation time: 0 hr 27 min 57 sec) 
Heartbeat CPU 0 instructions: 450000001 cycles: 644908058 heartbeat IPC: 0.471509 cumulative IPC: 0.489877 (Simulation time: 0 hr 28 min 41 sec) 
Heartbeat CPU 0 instructions: 460000000 cycles: 666218119 heartbeat IPC: 0.469262 cumulative IPC: 0.48905 (Simulation time: 0 hr 29 min 25 sec) 
Heartbeat CPU 0 instructions: 470000001 cycles: 686470190 heartbeat IPC: 0.493777 cumulative IPC: 0.489224 (Simulation time: 0 hr 30 min 7 sec) 
Heartbeat CPU 0 instructions: 480000000 cycles: 705270225 heartbeat IPC: 0.531914 cumulative IPC: 0.49063 (Simulation time: 0 hr 30 min 50 sec) 
Heartbeat CPU 0 instructions: 490000001 cycles: 724291924 heartbeat IPC: 0.525715 cumulative IPC: 0.491762 (Simulation time: 0 hr 31 min 32 sec) 
Heartbeat CPU 0 instructions: 500000000 cycles: 744369005 heartbeat IPC: 0.49808 cumulative IPC: 0.49197 (Simulation time: 0 hr 32 min 15 sec) 
Heartbeat CPU 0 instructions: 510000001 cycles: 762655306 heartbeat IPC: 0.546858 cumulative IPC: 0.493568 (Simulation time: 0 hr 32 min 56 sec) 
Heartbeat CPU 0 instructions: 520000000 cycles: 784897316 heartbeat IPC: 0.4496 cumulative IPC: 0.492064 (Simulation time: 0 hr 33 min 42 sec) 
Heartbeat CPU 0 instructions: 530000001 cycles: 803191727 heartbeat IPC: 0.546615 cumulative IPC: 0.493557 (Simulation time: 0 hr 34 min 24 sec) 
Heartbeat CPU 0 instructions: 540000000 cycles: 824854365 heartbeat IPC: 0.461624 cumulative IPC: 0.492555 (Simulation time: 0 hr 35 min 10 sec) 
Heartbeat CPU 0 instructions: 550000000 cycles: 842856176 heartbeat IPC: 0.5555 cumulative IPC: 0.494154 (Simulation time: 0 hr 35 min 51 sec) 
Heartbeat CPU 0 instructions: 560000000 cycles: 865365300 heartbeat IPC: 0.444264 cumulative IPC: 0.492618 (Simulation time: 0 hr 36 min 38 sec) 
Heartbeat CPU 0 instructions: 570000000 cycles: 884387882 heartbeat IPC: 0.525691 cumulative IPC: 0.493457 (Simulation time: 0 hr 37 min 20 sec) 
Heartbeat CPU 0 instructions: 580000000 cycles: 906303981 heartbeat IPC: 0.456286 cumulative IPC: 0.492401 (Simulation time: 0 hr 38 min 5 sec) 
Heartbeat CPU 0 instructions: 590000003 cycles: 925348126 heartbeat IPC: 0.525096 cumulative IPC: 0.493189 (Simulation time: 0 hr 38 min 48 sec) 
Heartbeat CPU 0 instructions: 600000000 cycles: 945478965 heartbeat IPC: 0.49675 cumulative IPC: 0.493277 (Simulation time: 0 hr 39 min 32 sec) 
Heartbeat CPU 0 instructions: 610000001 cycles: 963805949 heartbeat IPC: 0.545644 cumulative IPC: 0.494434 (Simulation time: 0 hr 40 min 13 sec) 
Heartbeat CPU 0 instructions: 620000000 cycles: 983517111 heartbeat IPC: 0.507327 cumulative IPC: 0.494734 (Simulation time: 0 hr 40 min 56 sec) 
Heartbeat CPU 0 instructions: 630000003 cycles: 1002762082 heartbeat IPC: 0.519616 cumulative IPC: 0.495285 (Simulation time: 0 hr 41 min 40 sec) 
Heartbeat CPU 0 instructions: 640000000 cycles: 1021358015 heartbeat IPC: 0.537752 cumulative IPC: 0.496176 (Simulation time: 0 hr 42 min 21 sec) 
Heartbeat CPU 0 instructions: 650000001 cycles: 1039560626 heartbeat IPC: 0.549372 cumulative IPC: 0.497246 (Simulation time: 0 hr 43 min 2 sec) 
Heartbeat CPU 0 instructions: 660000000 cycles: 1057307524 heartbeat IPC: 0.563479 cumulative IPC: 0.49852 (Simulation time: 0 hr 43 min 41 sec) 
Heartbeat CPU 0 instructions: 670000000 cycles: 1078179168 heartbeat IPC: 0.479119 cumulative IPC: 0.498091 (Simulation time: 0 hr 44 min 22 sec) 
Heartbeat CPU 0 instructions: 680000000 cycles: 1098395817 heartbeat IPC: 0.494642 cumulative IPC: 0.498018 (Simulation time: 0 hr 45 min 4 sec) 
Heartbeat CPU 0 instructions: 690000002 cycles: 1118667783 heartbeat IPC: 0.493292 cumulative IPC: 0.497921 (Simulation time: 0 hr 45 min 44 sec) 
Heartbeat CPU 0 instructions: 700000000 cycles: 1141425445 heartbeat IPC: 0.439412 cumulative IPC: 0.496598 (Simulation time: 0 hr 46 min 30 sec) 
Heartbeat CPU 0 instructions: 710000002 cycles: 1161702446 heartbeat IPC: 0.49317 cumulative IPC: 0.496531 (Simulation time: 0 hr 47 min 11 sec) 
Heartbeat CPU 0 instructions: 720000000 cycles: 1181449809 heartbeat IPC: 0.506397 cumulative IPC: 0.496717 (Simulation time: 0 hr 47 min 50 sec) 
Heartbeat CPU 0 instructions: 730000000 cycles: 1201064330 heartbeat IPC: 0.509826 cumulative IPC: 0.496958 (Simulation time: 0 hr 48 min 30 sec) 
Heartbeat CPU 0 instructions: 740000000 cycles: 1222782158 heartbeat IPC: 0.460451 cumulative IPC: 0.496229 (Simulation time: 0 hr 49 min 10 sec) 
Heartbeat CPU 0 instructions: 750000003 cycles: 1241509785 heartbeat IPC: 0.533971 cumulative IPC: 0.496868 (Simulation time: 0 hr 49 min 47 sec) 
Heartbeat CPU 0 instructions: 760000000 cycles: 1258565773 heartbeat IPC: 0.586304 cumulative IPC: 0.498225 (Simulation time: 0 hr 50 min 22 sec) 
Heartbeat CPU 0 instructions: 770000001 cycles: 1278367816 heartbeat IPC: 0.504998 cumulative IPC: 0.498342 (Simulation time: 0 hr 51 min 1 sec) 
Heartbeat CPU 0 instructions: 780000000 cycles: 1297119088 heartbeat IPC: 0.533297 cumulative IPC: 0.498906 (Simulation time: 0 hr 51 min 37 sec) 
Heartbeat CPU 0 instructions: 790000003 cycles: 1315532310 heartbeat IPC: 0.543088 cumulative IPC: 0.499595 (Simulation time: 0 hr 52 min 14 sec) 
Heartbeat CPU 0 instructions: 800000000 cycles: 1336272491 heartbeat IPC: 0.482156 cumulative IPC: 0.499294 (Simulation time: 0 hr 52 min 53 sec) 
Heartbeat CPU 0 instructions: 810000001 cycles: 1357150017 heartbeat IPC: 0.478984 cumulative IPC: 0.498947 (Simulation time: 0 hr 53 min 32 sec) 
Heartbeat CPU 0 instructions: 820000000 cycles: 1380542520 heartbeat IPC: 0.427487 cumulative IPC: 0.497606 (Simulation time: 0 hr 54 min 15 sec) 
Heartbeat CPU 0 instructions: 830000000 cycles: 1400138117 heartbeat IPC: 0.510319 cumulative IPC: 0.497802 (Simulation time: 0 hr 54 min 52 sec) 
Heartbeat CPU 0 instructions: 840000000 cycles: 1422808752 heartbeat IPC: 0.441099 cumulative IPC: 0.496804 (Simulation time: 0 hr 55 min 33 sec) 
Heartbeat CPU 0 instructions: 850000001 cycles: 1441687319 heartbeat IPC: 0.529701 cumulative IPC: 0.49728 (Simulation time: 0 hr 56 min 10 sec) 
Heartbeat CPU 0 instructions: 860000000 cycles: 1462429428 heartbeat IPC: 0.482111 cumulative IPC: 0.497043 (Simulation time: 0 hr 56 min 50 sec) 
Heartbeat CPU 0 instructions: 870000001 cycles: 1481159253 heartbeat IPC: 0.533908 cumulative IPC: 0.497555 (Simulation time: 0 hr 57 min 26 sec) 
Heartbeat CPU 0 instructions: 880000000 cycles: 1503116275 heartbeat IPC: 0.455435 cumulative IPC: 0.49688 (Simulation time: 0 hr 58 min 4 sec) 
Heartbeat CPU 0 instructions: 890000001 cycles: 1521116404 heartbeat IPC: 0.555552 cumulative IPC: 0.497641 (Simulation time: 0 hr 58 min 40 sec) 
Heartbeat CPU 0 instructions: 900000000 cycles: 1540018799 heartbeat IPC: 0.529033 cumulative IPC: 0.498064 (Simulation time: 0 hr 59 min 17 sec) 
Heartbeat CPU 0 instructions: 910000000 cycles: 1559608436 heartbeat IPC: 0.510474 cumulative IPC: 0.498234 (Simulation time: 0 hr 59 min 53 sec) 
Heartbeat CPU 0 instructions: 920000000 cycles: 1580941828 heartbeat IPC: 0.468749 cumulative IPC: 0.497799 (Simulation time: 1 hr 0 min 31 sec) 
Heartbeat CPU 0 instructions: 930000001 cycles: 1602045717 heartbeat IPC: 0.473846 cumulative IPC: 0.497455 (Simulation time: 1 hr 1 min 9 sec) 
Heartbeat CPU 0 instructions: 940000000 cycles: 1619299762 heartbeat IPC: 0.579574 cumulative IPC: 0.498409 (Simulation time: 1 hr 1 min 44 sec) 
Heartbeat CPU 0 instructions: 950000001 cycles: 1640037588 heartbeat IPC: 0.482211 cumulative IPC: 0.498186 (Simulation time: 1 hr 2 min 22 sec) 
Heartbeat CPU 0 instructions: 960000000 cycles: 1659321456 heartbeat IPC: 0.518568 cumulative IPC: 0.498444 (Simulation time: 1 hr 2 min 58 sec) 
Heartbeat CPU 0 instructions: 970000000 cycles: 1677048996 heartbeat IPC: 0.564094 cumulative IPC: 0.499198 (Simulation time: 1 hr 3 min 34 sec) 
Heartbeat CPU 0 instructions: 980000000 cycles: 1696323280 heartbeat IPC: 0.518826 cumulative IPC: 0.49944 (Simulation time: 1 hr 4 min 10 sec) 
Heartbeat CPU 0 instructions: 990000001 cycles: 1716786330 heartbeat IPC: 0.488686 cumulative IPC: 0.499301 (Simulation time: 1 hr 4 min 46 sec) 
Heartbeat CPU 0 instructions: 1000000000 cycles: 1735395865 heartbeat IPC: 0.537359 cumulative IPC: 0.499744 (Simulation time: 1 hr 5 min 21 sec) 
Heartbeat CPU 0 instructions: 1010000001 cycles: 1753987140 heartbeat IPC: 0.537887 cumulative IPC: 0.500182 (Simulation time: 1 hr 5 min 56 sec) 
Heartbeat CPU 0 instructions: 1020000000 cycles: 1772315127 heartbeat IPC: 0.545614 cumulative IPC: 0.50069 (Simulation time: 1 hr 6 min 30 sec) 
Heartbeat CPU 0 instructions: 1030000000 cycles: 1790477338 heartbeat IPC: 0.550594 cumulative IPC: 0.501237 (Simulation time: 1 hr 7 min 5 sec) 
Heartbeat CPU 0 instructions: 1040000000 cycles: 1809712033 heartbeat IPC: 0.519894 cumulative IPC: 0.501452 (Simulation time: 1 hr 7 min 41 sec) 
Heartbeat CPU 0 instructions: 1050000003 cycles: 1830186604 heartbeat IPC: 0.488411 cumulative IPC: 0.501294 (Simulation time: 1 hr 8 min 19 sec) 
Heartbeat CPU 0 instructions: 1060000000 cycles: 1852076379 heartbeat IPC: 0.456834 cumulative IPC: 0.500728 (Simulation time: 1 hr 8 min 57 sec) 
Heartbeat CPU 0 instructions: 1070000001 cycles: 1871499363 heartbeat IPC: 0.514854 cumulative IPC: 0.500886 (Simulation time: 1 hr 9 min 32 sec) 
Heartbeat CPU 0 instructions: 1080000000 cycles: 1891489540 heartbeat IPC: 0.500246 cumulative IPC: 0.500878 (Simulation time: 1 hr 10 min 8 sec) 
Heartbeat CPU 0 instructions: 1090000000 cycles: 1911343904 heartbeat IPC: 0.503668 cumulative IPC: 0.500909 (Simulation time: 1 hr 10 min 45 sec) 
Heartbeat CPU 0 instructions: 1100000000 cycles: 1928282528 heartbeat IPC: 0.590367 cumulative IPC: 0.501754 (Simulation time: 1 hr 11 min 18 sec) 
Heartbeat CPU 0 instructions: 1110000000 cycles: 1951229053 heartbeat IPC: 0.435796 cumulative IPC: 0.500921 (Simulation time: 1 hr 11 min 58 sec) 
Heartbeat CPU 0 instructions: 1120000000 cycles: 1968429409 heartbeat IPC: 0.581383 cumulative IPC: 0.501676 (Simulation time: 1 hr 12 min 32 sec) 
Heartbeat CPU 0 instructions: 1130000001 cycles: 1988906284 heartbeat IPC: 0.488356 cumulative IPC: 0.501529 (Simulation time: 1 hr 13 min 9 sec) 
Heartbeat CPU 0 instructions: 1140000000 cycles: 2006833464 heartbeat IPC: 0.557812 cumulative IPC: 0.502068 (Simulation time: 1 hr 13 min 43 sec) 
Heartbeat CPU 0 instructions: 1150000000 cycles: 2025772211 heartbeat IPC: 0.528018 cumulative IPC: 0.502327 (Simulation time: 1 hr 14 min 19 sec) 
Heartbeat CPU 0 instructions: 1160000000 cycles: 2045039809 heartbeat IPC: 0.519006 cumulative IPC: 0.502496 (Simulation time: 1 hr 14 min 54 sec) 
Heartbeat CPU 0 instructions: 1170000002 cycles: 2068713509 heartbeat IPC: 0.42241 cumulative IPC: 0.501515 (Simulation time: 1 hr 15 min 35 sec) 
Heartbeat CPU 0 instructions: 1180000000 cycles: 2103670772 heartbeat IPC: 0.286064 cumulative IPC: 0.49769 (Simulation time: 1 hr 16 min 31 sec) 
Heartbeat CPU 0 instructions: 1190000000 cycles: 2137625366 heartbeat IPC: 0.294511 cumulative IPC: 0.494246 (Simulation time: 1 hr 17 min 25 sec) 
Heartbeat CPU 0 instructions: 1200000000 cycles: 2176010390 heartbeat IPC: 0.260518 cumulative IPC: 0.489852 (Simulation time: 1 hr 18 min 26 sec) 
Finished CPU 0 instructions: 1000000000 cycles: 2041434837 cumulative IPC: 0.489852 (Simulation time: 1 hr 18 min 26 sec) 

CPU 0 Branch Prediction Accuracy: 98.5984% MPKI: 1.4041

ChampSim completed all CPUs

Region of Interest Statistics

CPU 0 cumulative IPC: 0.489852 instructions: 1000000000 cycles: 2041434837
L1D TOTAL     ACCESS:  495107983  HIT:  466237081  MISS:   28870902
L1D LOAD      ACCESS:  219294319  HIT:  192936140  MISS:   26358179
L1D RFO       ACCESS:  275813664  HIT:  273300941  MISS:    2512723
L1D PREFETCH  ACCESS:          0  HIT:          0  MISS:          0
L1D WRITEBACK ACCESS:          0  HIT:          0  MISS:          0
L1D PREFETCH  REQUESTED:          0  ISSUED:          0  USEFUL:          0  USELESS:          0
L1I TOTAL     ACCESS:  327881496  HIT:  327881496  MISS:          0
L1I LOAD      ACCESS:  327881496  HIT:  327881496  MISS:          0
L1I RFO       ACCESS:          0  HIT:          0  MISS:          0
L1I PREFETCH  ACCESS:          0  HIT:          0  MISS:          0
L1I WRITEBACK ACCESS:          0  HIT:          0  MISS:          0
L1I PREFETCH  REQUESTED:          0  ISSUED:          0  USEFUL:          0  USELESS:          0
L2C TOTAL     ACCESS:   60588506  HIT:   27391063  MISS:   33197443
L2C LOAD      ACCESS:   26357992  HIT:   17341717  MISS:    9016275
L2C RFO       ACCESS:    2512627  HIT:     222048  MISS:    2290579
L2C PREFETCH  ACCESS:   25233811  HIT:    3362035  MISS:   21871776
L2C WRITEBACK ACCESS:    6484076  HIT:    6465263  MISS:      18813
L2C PREFETCH  REQUESTED:   44410481  ISSUED:   44410360  USEFUL:   20868359  USELESS:    5839462
LLC TOTAL     ACCESS:   42868652  HIT:    7401162  MISS:   35467490
LLC LOAD      ACCESS:    3386149  HIT:     258274  MISS:    3127875
LLC RFO       ACCESS:    2274056  HIT:      30730  MISS:    2243326
LLC PREFETCH  ACCESS:   31395967  HIT:    1406968  MISS:   29988999
LLC WRITEBACK ACCESS:    5812480  HIT:    5705190  MISS:     107290
LLC PREFETCH  REQUESTED:          0  ISSUED:          0  USEFUL:     324208  USELESS:   34807968
Major fault: 0 Minor fault: 273262

Avg Lookahead Depth:	4.3389
TOTAL: 4.44105e+07	L2C: 3.65135e+07	LLC: 7.89695e+06	GOOD_L2C: 2.66723e+07
Printing all the perceptron weights to: perc_weights_0.csv

DRAM Statistics
 CHANNEL 0
 RQ ROW_BUFFER_HIT:   30623460  ROW_BUFFER_MISS:    4731989
 DBUS_CONGESTED:   30429118
 WQ ROW_BUFFER_HIT:    3079850  ROW_BUFFER_MISS:    2704446  FULL:          0

 AVG_CONGESTED_CYCLE: 14
