Initialize SIGNATURE TABLE
ST_SET: 1
ST_WAY: 256
ST_TAG_BIT: 16
ST_TAG_MASK: ffff

Initialize PATTERN TABLE
PT_SET: 512
PT_WAY: 4
SIG_DELTA_BIT: 7
C_SIG_BIT: 4
C_DELTA_BIT: 4

Initialize PREFETCH FILTER
FILTER_SET: 1024

Initialize PERCEPTRON
PERC_ENTRIES: 4096
PERC_FEATURES: 9

*** ChampSim Multicore Out-of-Order Simulator ***

Warmup Instructions: 200000000
Simulation Instructions: 1000000000
Number of CPUs: 1
LLC sets: 512
LLC ways: 16
Off-chip DRAM Size: 4096 MB Channels: 1 Width: 64-bit Data Rate: 1600 MT/s

CPU 0 runs /scratch/user/djimenez/champsim-traces/speccpu2017/xz/623.xalancbmk_s/623.xalancbmk_s-10B.champsimtrace.xz
Heartbeat CPU 0 instructions: 10000001 cycles: 4859320 heartbeat IPC: 2.0579 cumulative IPC: 2.0579 (Simulation time: 0 hr 0 min 26 sec) 
Heartbeat CPU 0 instructions: 20000000 cycles: 9646264 heartbeat IPC: 2.08902 cumulative IPC: 2.07334 (Simulation time: 0 hr 0 min 52 sec) 
Heartbeat CPU 0 instructions: 30000000 cycles: 14539308 heartbeat IPC: 2.04372 cumulative IPC: 2.06337 (Simulation time: 0 hr 1 min 20 sec) 
Heartbeat CPU 0 instructions: 40000000 cycles: 19452306 heartbeat IPC: 2.03542 cumulative IPC: 2.05631 (Simulation time: 0 hr 1 min 46 sec) 
Heartbeat CPU 0 instructions: 50000001 cycles: 24349070 heartbeat IPC: 2.04217 cumulative IPC: 2.05347 (Simulation time: 0 hr 2 min 15 sec) 
Heartbeat CPU 0 instructions: 60000000 cycles: 29150290 heartbeat IPC: 2.0828 cumulative IPC: 2.0583 (Simulation time: 0 hr 2 min 44 sec) 
Heartbeat CPU 0 instructions: 70000000 cycles: 34144525 heartbeat IPC: 2.00231 cumulative IPC: 2.05011 (Simulation time: 0 hr 3 min 13 sec) 
Heartbeat CPU 0 instructions: 80000000 cycles: 38932274 heartbeat IPC: 2.08866 cumulative IPC: 2.05485 (Simulation time: 0 hr 3 min 42 sec) 
Heartbeat CPU 0 instructions: 90000001 cycles: 43879284 heartbeat IPC: 2.02142 cumulative IPC: 2.05108 (Simulation time: 0 hr 4 min 9 sec) 
Heartbeat CPU 0 instructions: 100000000 cycles: 48822122 heartbeat IPC: 2.02313 cumulative IPC: 2.04825 (Simulation time: 0 hr 4 min 37 sec) 
Heartbeat CPU 0 instructions: 110000000 cycles: 53861506 heartbeat IPC: 1.98437 cumulative IPC: 2.04227 (Simulation time: 0 hr 5 min 3 sec) 
Heartbeat CPU 0 instructions: 120000000 cycles: 58662610 heartbeat IPC: 2.08285 cumulative IPC: 2.0456 (Simulation time: 0 hr 5 min 29 sec) 
Heartbeat CPU 0 instructions: 130000003 cycles: 63509493 heartbeat IPC: 2.06318 cumulative IPC: 2.04694 (Simulation time: 0 hr 5 min 57 sec) 
Heartbeat CPU 0 instructions: 140000000 cycles: 68511660 heartbeat IPC: 1.99913 cumulative IPC: 2.04345 (Simulation time: 0 hr 6 min 24 sec) 
Heartbeat CPU 0 instructions: 150000000 cycles: 73452828 heartbeat IPC: 2.02381 cumulative IPC: 2.04213 (Simulation time: 0 hr 6 min 50 sec) 
Heartbeat CPU 0 instructions: 160000000 cycles: 78329150 heartbeat IPC: 2.05073 cumulative IPC: 2.04266 (Simulation time: 0 hr 7 min 16 sec) 
Heartbeat CPU 0 instructions: 170000000 cycles: 83094308 heartbeat IPC: 2.09857 cumulative IPC: 2.04587 (Simulation time: 0 hr 7 min 41 sec) 
Heartbeat CPU 0 instructions: 180000000 cycles: 87978114 heartbeat IPC: 2.04758 cumulative IPC: 2.04596 (Simulation time: 0 hr 8 min 6 sec) 
Heartbeat CPU 0 instructions: 190000001 cycles: 92827084 heartbeat IPC: 2.06229 cumulative IPC: 2.04682 (Simulation time: 0 hr 8 min 32 sec) 
Heartbeat CPU 0 instructions: 200000000 cycles: 97773394 heartbeat IPC: 2.02171 cumulative IPC: 2.04555 (Simulation time: 0 hr 8 min 59 sec) 

Warmup complete CPU 0 instructions: 200000001 cycles: 97773395 (Simulation time: 0 hr 8 min 59 sec) 

Heartbeat CPU 0 instructions: 210000001 cycles: 131712775 heartbeat IPC: 0.294643 cumulative IPC: 0.294643 (Simulation time: 0 hr 9 min 51 sec) 
Heartbeat CPU 0 instructions: 220000000 cycles: 164993837 heartbeat IPC: 0.300471 cumulative IPC: 0.297529 (Simulation time: 0 hr 10 min 42 sec) 
Heartbeat CPU 0 instructions: 230000001 cycles: 196122111 heartbeat IPC: 0.321251 cumulative IPC: 0.305037 (Simulation time: 0 hr 11 min 32 sec) 
Heartbeat CPU 0 instructions: 240000000 cycles: 230522027 heartbeat IPC: 0.290698 cumulative IPC: 0.301321 (Simulation time: 0 hr 12 min 24 sec) 
Heartbeat CPU 0 instructions: 250000000 cycles: 264254158 heartbeat IPC: 0.296453 cumulative IPC: 0.300335 (Simulation time: 0 hr 13 min 16 sec) 
Heartbeat CPU 0 instructions: 260000000 cycles: 296147569 heartbeat IPC: 0.313544 cumulative IPC: 0.302459 (Simulation time: 0 hr 14 min 6 sec) 
Heartbeat CPU 0 instructions: 270000000 cycles: 330010719 heartbeat IPC: 0.295306 cumulative IPC: 0.301416 (Simulation time: 0 hr 14 min 58 sec) 
Heartbeat CPU 0 instructions: 280000000 cycles: 363366618 heartbeat IPC: 0.299797 cumulative IPC: 0.301212 (Simulation time: 0 hr 15 min 49 sec) 
Heartbeat CPU 0 instructions: 290000002 cycles: 395601312 heartbeat IPC: 0.310225 cumulative IPC: 0.302188 (Simulation time: 0 hr 16 min 40 sec) 
Heartbeat CPU 0 instructions: 300000000 cycles: 427760184 heartbeat IPC: 0.310956 cumulative IPC: 0.303042 (Simulation time: 0 hr 17 min 30 sec) 
Heartbeat CPU 0 instructions: 310000003 cycles: 461143284 heartbeat IPC: 0.299553 cumulative IPC: 0.302722 (Simulation time: 0 hr 18 min 21 sec) 
Heartbeat CPU 0 instructions: 320000000 cycles: 492851132 heartbeat IPC: 0.315379 cumulative IPC: 0.303738 (Simulation time: 0 hr 19 min 11 sec) 
Heartbeat CPU 0 instructions: 330000001 cycles: 526895645 heartbeat IPC: 0.293733 cumulative IPC: 0.302944 (Simulation time: 0 hr 20 min 2 sec) 
Heartbeat CPU 0 instructions: 340000000 cycles: 558273222 heartbeat IPC: 0.318699 cumulative IPC: 0.304017 (Simulation time: 0 hr 20 min 52 sec) 
Heartbeat CPU 0 instructions: 350000002 cycles: 592203203 heartbeat IPC: 0.294725 cumulative IPC: 0.30338 (Simulation time: 0 hr 21 min 44 sec) 
Heartbeat CPU 0 instructions: 360000000 cycles: 622987177 heartbeat IPC: 0.324844 cumulative IPC: 0.304638 (Simulation time: 0 hr 22 min 33 sec) 
Heartbeat CPU 0 instructions: 370000002 cycles: 655698664 heartbeat IPC: 0.305703 cumulative IPC: 0.3047 (Simulation time: 0 hr 23 min 24 sec) 
Heartbeat CPU 0 instructions: 380000000 cycles: 688125633 heartbeat IPC: 0.308385 cumulative IPC: 0.304903 (Simulation time: 0 hr 24 min 15 sec) 
Heartbeat CPU 0 instructions: 390000000 cycles: 722584209 heartbeat IPC: 0.290204 cumulative IPC: 0.304092 (Simulation time: 0 hr 25 min 7 sec) 
Heartbeat CPU 0 instructions: 400000000 cycles: 756670363 heartbeat IPC: 0.293374 cumulative IPC: 0.303538 (Simulation time: 0 hr 25 min 59 sec) 
Heartbeat CPU 0 instructions: 410000001 cycles: 789357971 heartbeat IPC: 0.305926 cumulative IPC: 0.30365 (Simulation time: 0 hr 26 min 50 sec) 
Heartbeat CPU 0 instructions: 420000000 cycles: 823354271 heartbeat IPC: 0.29415 cumulative IPC: 0.303205 (Simulation time: 0 hr 27 min 42 sec) 
Heartbeat CPU 0 instructions: 430000002 cycles: 857375040 heartbeat IPC: 0.293938 cumulative IPC: 0.30279 (Simulation time: 0 hr 28 min 35 sec) 
Heartbeat CPU 0 instructions: 440000000 cycles: 889586977 heartbeat IPC: 0.310444 cumulative IPC: 0.303102 (Simulation time: 0 hr 29 min 25 sec) 
Heartbeat CPU 0 instructions: 450000002 cycles: 925370670 heartbeat IPC: 0.279457 cumulative IPC: 0.302079 (Simulation time: 0 hr 30 min 19 sec) 
Heartbeat CPU 0 instructions: 460000000 cycles: 958875247 heartbeat IPC: 0.298467 cumulative IPC: 0.301939 (Simulation time: 0 hr 31 min 10 sec) 
Heartbeat CPU 0 instructions: 470000000 cycles: 992608365 heartbeat IPC: 0.296445 cumulative IPC: 0.301732 (Simulation time: 0 hr 32 min 2 sec) 
Heartbeat CPU 0 instructions: 480000000 cycles: 1024607142 heartbeat IPC: 0.312512 cumulative IPC: 0.302104 (Simulation time: 0 hr 32 min 52 sec) 
Heartbeat CPU 0 instructions: 490000000 cycles: 1060318359 heartbeat IPC: 0.280024 cumulative IPC: 0.301285 (Simulation time: 0 hr 33 min 45 sec) 
Heartbeat CPU 0 instructions: 500000000 cycles: 1094778355 heartbeat IPC: 0.290192 cumulative IPC: 0.300901 (Simulation time: 0 hr 34 min 37 sec) 
Heartbeat CPU 0 instructions: 510000000 cycles: 1127988814 heartbeat IPC: 0.30111 cumulative IPC: 0.300908 (Simulation time: 0 hr 35 min 28 sec) 
Heartbeat CPU 0 instructions: 520000000 cycles: 1164353851 heartbeat IPC: 0.274989 cumulative IPC: 0.300024 (Simulation time: 0 hr 36 min 22 sec) 
Heartbeat CPU 0 instructions: 530000003 cycles: 1198698785 heartbeat IPC: 0.291164 cumulative IPC: 0.299748 (Simulation time: 0 hr 37 min 13 sec) 
Heartbeat CPU 0 instructions: 540000000 cycles: 1230772872 heartbeat IPC: 0.311778 cumulative IPC: 0.300088 (Simulation time: 0 hr 38 min 3 sec) 
Heartbeat CPU 0 instructions: 550000002 cycles: 1263347254 heartbeat IPC: 0.30699 cumulative IPC: 0.300281 (Simulation time: 0 hr 38 min 54 sec) 
Heartbeat CPU 0 instructions: 560000000 cycles: 1295202820 heartbeat IPC: 0.313917 cumulative IPC: 0.300644 (Simulation time: 0 hr 39 min 43 sec) 
Heartbeat CPU 0 instructions: 570000002 cycles: 1328938281 heartbeat IPC: 0.296424 cumulative IPC: 0.300528 (Simulation time: 0 hr 40 min 34 sec) 
Heartbeat CPU 0 instructions: 580000000 cycles: 1361984571 heartbeat IPC: 0.302606 cumulative IPC: 0.300583 (Simulation time: 0 hr 41 min 25 sec) 
Heartbeat CPU 0 instructions: 590000002 cycles: 1394919119 heartbeat IPC: 0.303633 cumulative IPC: 0.30066 (Simulation time: 0 hr 42 min 15 sec) 
Heartbeat CPU 0 instructions: 600000000 cycles: 1427172229 heartbeat IPC: 0.310048 cumulative IPC: 0.300888 (Simulation time: 0 hr 43 min 3 sec) 
Heartbeat CPU 0 instructions: 610000002 cycles: 1460745446 heartbeat IPC: 0.297857 cumulative IPC: 0.300813 (Simulation time: 0 hr 43 min 50 sec) 
Heartbeat CPU 0 instructions: 620000000 cycles: 1494716862 heartbeat IPC: 0.294365 cumulative IPC: 0.300656 (Simulation time: 0 hr 44 min 38 sec) 
Heartbeat CPU 0 instructions: 630000000 cycles: 1527341484 heartbeat IPC: 0.306517 cumulative IPC: 0.30079 (Simulation time: 0 hr 45 min 25 sec) 
Heartbeat CPU 0 instructions: 640000000 cycles: 1560959228 heartbeat IPC: 0.297462 cumulative IPC: 0.300714 (Simulation time: 0 hr 46 min 12 sec) 
Heartbeat CPU 0 instructions: 650000001 cycles: 1596292546 heartbeat IPC: 0.283019 cumulative IPC: 0.300296 (Simulation time: 0 hr 47 min 1 sec) 
Heartbeat CPU 0 instructions: 660000000 cycles: 1626003072 heartbeat IPC: 0.336581 cumulative IPC: 0.301002 (Simulation time: 0 hr 47 min 45 sec) 
Heartbeat CPU 0 instructions: 670000003 cycles: 1659138146 heartbeat IPC: 0.301795 cumulative IPC: 0.301019 (Simulation time: 0 hr 48 min 32 sec) 
Heartbeat CPU 0 instructions: 680000000 cycles: 1693497357 heartbeat IPC: 0.291043 cumulative IPC: 0.300804 (Simulation time: 0 hr 49 min 19 sec) 
Heartbeat CPU 0 instructions: 690000000 cycles: 1726764635 heartbeat IPC: 0.300596 cumulative IPC: 0.3008 (Simulation time: 0 hr 50 min 5 sec) 
Heartbeat CPU 0 instructions: 700000000 cycles: 1759643203 heartbeat IPC: 0.30415 cumulative IPC: 0.300866 (Simulation time: 0 hr 50 min 51 sec) 
Heartbeat CPU 0 instructions: 710000001 cycles: 1791534128 heartbeat IPC: 0.313569 cumulative IPC: 0.301105 (Simulation time: 0 hr 51 min 36 sec) 
Heartbeat CPU 0 instructions: 720000000 cycles: 1821899639 heartbeat IPC: 0.329321 cumulative IPC: 0.301602 (Simulation time: 0 hr 52 min 21 sec) 
Heartbeat CPU 0 instructions: 730000002 cycles: 1855609424 heartbeat IPC: 0.29665 cumulative IPC: 0.301507 (Simulation time: 0 hr 53 min 8 sec) 
Heartbeat CPU 0 instructions: 740000000 cycles: 1887871350 heartbeat IPC: 0.309963 cumulative IPC: 0.301659 (Simulation time: 0 hr 53 min 54 sec) 
Heartbeat CPU 0 instructions: 750000001 cycles: 1921238082 heartbeat IPC: 0.2997 cumulative IPC: 0.301624 (Simulation time: 0 hr 54 min 40 sec) 
Heartbeat CPU 0 instructions: 760000000 cycles: 1955440474 heartbeat IPC: 0.292377 cumulative IPC: 0.301453 (Simulation time: 0 hr 55 min 28 sec) 
Heartbeat CPU 0 instructions: 770000002 cycles: 1989767231 heartbeat IPC: 0.291318 cumulative IPC: 0.301269 (Simulation time: 0 hr 56 min 16 sec) 
Heartbeat CPU 0 instructions: 780000000 cycles: 2022015312 heartbeat IPC: 0.310096 cumulative IPC: 0.301417 (Simulation time: 0 hr 57 min 3 sec) 
Heartbeat CPU 0 instructions: 790000000 cycles: 2055040680 heartbeat IPC: 0.302798 cumulative IPC: 0.301441 (Simulation time: 0 hr 57 min 50 sec) 
Heartbeat CPU 0 instructions: 800000000 cycles: 2085665764 heartbeat IPC: 0.32653 cumulative IPC: 0.301827 (Simulation time: 0 hr 58 min 35 sec) 
Heartbeat CPU 0 instructions: 810000000 cycles: 2117687350 heartbeat IPC: 0.312289 cumulative IPC: 0.301993 (Simulation time: 0 hr 59 min 21 sec) 
Heartbeat CPU 0 instructions: 820000000 cycles: 2150275294 heartbeat IPC: 0.306862 cumulative IPC: 0.30207 (Simulation time: 1 hr 0 min 8 sec) 
Heartbeat CPU 0 instructions: 830000000 cycles: 2186356876 heartbeat IPC: 0.27715 cumulative IPC: 0.30164 (Simulation time: 1 hr 0 min 54 sec) 
Heartbeat CPU 0 instructions: 840000000 cycles: 2218561763 heartbeat IPC: 0.310512 cumulative IPC: 0.301775 (Simulation time: 1 hr 1 min 37 sec) 
Heartbeat CPU 0 instructions: 850000000 cycles: 2252925483 heartbeat IPC: 0.291005 cumulative IPC: 0.301603 (Simulation time: 1 hr 2 min 22 sec) 
Heartbeat CPU 0 instructions: 860000000 cycles: 2286089369 heartbeat IPC: 0.301533 cumulative IPC: 0.301602 (Simulation time: 1 hr 3 min 6 sec) 
Heartbeat CPU 0 instructions: 870000002 cycles: 2320086284 heartbeat IPC: 0.294144 cumulative IPC: 0.301488 (Simulation time: 1 hr 3 min 50 sec) 
Heartbeat CPU 0 instructions: 880000000 cycles: 2352202225 heartbeat IPC: 0.311372 cumulative IPC: 0.301629 (Simulation time: 1 hr 4 min 33 sec) 
Heartbeat CPU 0 instructions: 890000000 cycles: 2384727662 heartbeat IPC: 0.307452 cumulative IPC: 0.301711 (Simulation time: 1 hr 5 min 16 sec) 
Heartbeat CPU 0 instructions: 900000000 cycles: 2419201210 heartbeat IPC: 0.290077 cumulative IPC: 0.301539 (Simulation time: 1 hr 6 min 0 sec) 
Heartbeat CPU 0 instructions: 910000001 cycles: 2451242426 heartbeat IPC: 0.312098 cumulative IPC: 0.301682 (Simulation time: 1 hr 6 min 42 sec) 
Heartbeat CPU 0 instructions: 920000000 cycles: 2484957120 heartbeat IPC: 0.296607 cumulative IPC: 0.301611 (Simulation time: 1 hr 7 min 26 sec) 
Heartbeat CPU 0 instructions: 930000001 cycles: 2518717974 heartbeat IPC: 0.296201 cumulative IPC: 0.301535 (Simulation time: 1 hr 8 min 9 sec) 
Heartbeat CPU 0 instructions: 940000000 cycles: 2551146393 heartbeat IPC: 0.308371 cumulative IPC: 0.301626 (Simulation time: 1 hr 8 min 52 sec) 
Heartbeat CPU 0 instructions: 950000001 cycles: 2586919693 heartbeat IPC: 0.279538 cumulative IPC: 0.301308 (Simulation time: 1 hr 9 min 37 sec) 
Heartbeat CPU 0 instructions: 960000000 cycles: 2621694794 heartbeat IPC: 0.287562 cumulative IPC: 0.301119 (Simulation time: 1 hr 10 min 21 sec) 
Heartbeat CPU 0 instructions: 970000000 cycles: 2655322481 heartbeat IPC: 0.297374 cumulative IPC: 0.301069 (Simulation time: 1 hr 11 min 1 sec) 
Heartbeat CPU 0 instructions: 980000000 cycles: 2689888175 heartbeat IPC: 0.289304 cumulative IPC: 0.300913 (Simulation time: 1 hr 11 min 42 sec) 
Heartbeat CPU 0 instructions: 990000000 cycles: 2722284114 heartbeat IPC: 0.308681 cumulative IPC: 0.301008 (Simulation time: 1 hr 12 min 21 sec) 
Heartbeat CPU 0 instructions: 1000000000 cycles: 2757498010 heartbeat IPC: 0.283979 cumulative IPC: 0.300783 (Simulation time: 1 hr 13 min 1 sec) 
Heartbeat CPU 0 instructions: 1010000000 cycles: 2791493383 heartbeat IPC: 0.294158 cumulative IPC: 0.300699 (Simulation time: 1 hr 13 min 41 sec) 
Heartbeat CPU 0 instructions: 1020000000 cycles: 2825784104 heartbeat IPC: 0.291624 cumulative IPC: 0.300585 (Simulation time: 1 hr 14 min 21 sec) 
Heartbeat CPU 0 instructions: 1030000003 cycles: 2859004330 heartbeat IPC: 0.301022 cumulative IPC: 0.300591 (Simulation time: 1 hr 15 min 0 sec) 
Heartbeat CPU 0 instructions: 1040000000 cycles: 2891034186 heartbeat IPC: 0.312209 cumulative IPC: 0.300724 (Simulation time: 1 hr 15 min 39 sec) 
Heartbeat CPU 0 instructions: 1050000000 cycles: 2924749757 heartbeat IPC: 0.296599 cumulative IPC: 0.300675 (Simulation time: 1 hr 16 min 19 sec) 
Heartbeat CPU 0 instructions: 1060000000 cycles: 2958438592 heartbeat IPC: 0.296834 cumulative IPC: 0.300629 (Simulation time: 1 hr 16 min 58 sec) 
Heartbeat CPU 0 instructions: 1070000002 cycles: 2993612049 heartbeat IPC: 0.284305 cumulative IPC: 0.300431 (Simulation time: 1 hr 17 min 39 sec) 
Heartbeat CPU 0 instructions: 1080000000 cycles: 3027929853 heartbeat IPC: 0.291394 cumulative IPC: 0.300325 (Simulation time: 1 hr 18 min 19 sec) 
Heartbeat CPU 0 instructions: 1090000001 cycles: 3060564934 heartbeat IPC: 0.306419 cumulative IPC: 0.300392 (Simulation time: 1 hr 18 min 58 sec) 
Heartbeat CPU 0 instructions: 1100000000 cycles: 3093373760 heartbeat IPC: 0.304796 cumulative IPC: 0.300441 (Simulation time: 1 hr 19 min 37 sec) 
Heartbeat CPU 0 instructions: 1110000000 cycles: 3125259317 heartbeat IPC: 0.313622 cumulative IPC: 0.300579 (Simulation time: 1 hr 20 min 15 sec) 
Heartbeat CPU 0 instructions: 1120000000 cycles: 3158591504 heartbeat IPC: 0.30001 cumulative IPC: 0.300573 (Simulation time: 1 hr 20 min 55 sec) 
Heartbeat CPU 0 instructions: 1130000002 cycles: 3190550215 heartbeat IPC: 0.312904 cumulative IPC: 0.300701 (Simulation time: 1 hr 21 min 33 sec) 
Heartbeat CPU 0 instructions: 1140000000 cycles: 3225662540 heartbeat IPC: 0.2848 cumulative IPC: 0.300522 (Simulation time: 1 hr 22 min 13 sec) 
Heartbeat CPU 0 instructions: 1150000002 cycles: 3254917548 heartbeat IPC: 0.341822 cumulative IPC: 0.300905 (Simulation time: 1 hr 22 min 50 sec) 
Heartbeat CPU 0 instructions: 1160000000 cycles: 3287905106 heartbeat IPC: 0.303145 cumulative IPC: 0.300928 (Simulation time: 1 hr 23 min 30 sec) 
Heartbeat CPU 0 instructions: 1170000000 cycles: 3322050275 heartbeat IPC: 0.292867 cumulative IPC: 0.300843 (Simulation time: 1 hr 24 min 9 sec) 
Heartbeat CPU 0 instructions: 1180000000 cycles: 3355101504 heartbeat IPC: 0.302561 cumulative IPC: 0.30086 (Simulation time: 1 hr 24 min 49 sec) 
Heartbeat CPU 0 instructions: 1190000001 cycles: 3388311125 heartbeat IPC: 0.301118 cumulative IPC: 0.300863 (Simulation time: 1 hr 25 min 28 sec) 
Heartbeat CPU 0 instructions: 1200000000 cycles: 3421505480 heartbeat IPC: 0.301256 cumulative IPC: 0.300867 (Simulation time: 1 hr 26 min 7 sec) 
Finished CPU 0 instructions: 1000000000 cycles: 3323732093 cumulative IPC: 0.300867 (Simulation time: 1 hr 26 min 7 sec) 

CPU 0 Branch Prediction Accuracy: 99.2793% MPKI: 1.70014

ChampSim completed all CPUs

Region of Interest Statistics

CPU 0 cumulative IPC: 0.300867 instructions: 1000000000 cycles: 3323732093
L1D TOTAL     ACCESS:  233842620  HIT:  205696748  MISS:   28145872
L1D LOAD      ACCESS:  187470010  HIT:  159908997  MISS:   27561013
L1D RFO       ACCESS:   46372610  HIT:   45787751  MISS:     584859
L1D PREFETCH  ACCESS:          0  HIT:          0  MISS:          0
L1D WRITEBACK ACCESS:          0  HIT:          0  MISS:          0
L1D PREFETCH  REQUESTED:          0  ISSUED:          0  USEFUL:          0  USELESS:          0
L1I TOTAL     ACCESS:  320844793  HIT:  317419305  MISS:    3425488
L1I LOAD      ACCESS:  320844793  HIT:  317419305  MISS:    3425488
L1I RFO       ACCESS:          0  HIT:          0  MISS:          0
L1I PREFETCH  ACCESS:          0  HIT:          0  MISS:          0
L1I WRITEBACK ACCESS:          0  HIT:          0  MISS:          0
L1I PREFETCH  REQUESTED:          0  ISSUED:          0  USEFUL:          0  USELESS:          0
L2C TOTAL     ACCESS:   49616265  HIT:   15221560  MISS:   34394705
L2C LOAD      ACCESS:   30985850  HIT:    9086513  MISS:   21899337
L2C RFO       ACCESS:     584790  HIT:     283168  MISS:     301622
L2C PREFETCH  ACCESS:   16829623  HIT:    4654639  MISS:   12174984
L2C WRITEBACK ACCESS:    1216002  HIT:    1197240  MISS:      18762
L2C PREFETCH  REQUESTED:   41870202  ISSUED:   41858708  USEFUL:    6680959  USELESS:    8576850
LLC TOTAL     ACCESS:   42918285  HIT:    4601729  MISS:   38316556
LLC LOAD      ACCESS:   18818544  HIT:    1559062  MISS:   17259482
LLC RFO       ACCESS:     300993  HIT:      41098  MISS:     259895
LLC PREFETCH  ACCESS:   23238503  HIT:    2482908  MISS:   20755595
LLC WRITEBACK ACCESS:     560245  HIT:     518661  MISS:      41584
LLC PREFETCH  REQUESTED:          0  ISSUED:          0  USEFUL:     978029  USELESS:   24139071
Major fault: 0 Minor fault: 13314

Avg Lookahead Depth:	1.38039
TOTAL: 4.18702e+07	L2C: 2.81598e+07	LLC: 1.37104e+07	GOOD_L2C: 1.69047e+07
Printing all the perceptron weights to: perc_weights_0.csv

DRAM Statistics
 CHANNEL 0
 RQ ROW_BUFFER_HIT:   30454493  ROW_BUFFER_MISS:    7792376
 DBUS_CONGESTED:   16643732
 WQ ROW_BUFFER_HIT:     101669  ROW_BUFFER_MISS:     366122  FULL:          0

 AVG_CONGESTED_CYCLE: 11
