Initialize SIGNATURE TABLE
ST_SET: 1
ST_WAY: 256
ST_TAG_BIT: 16
ST_TAG_MASK: ffff

Initialize PATTERN TABLE
PT_SET: 512
PT_WAY: 4
SIG_DELTA_BIT: 7
C_SIG_BIT: 4
C_DELTA_BIT: 4

Initialize PREFETCH FILTER
FILTER_SET: 1024

Initialize PERCEPTRON
PERC_ENTRIES: 4096
PERC_FEATURES: 9

*** ChampSim Multicore Out-of-Order Simulator ***

Warmup Instructions: 200000000
Simulation Instructions: 1000000000
Number of CPUs: 1
LLC sets: 512
LLC ways: 16
Off-chip DRAM Size: 4096 MB Channels: 1 Width: 64-bit Data Rate: 1600 MT/s

CPU 0 runs /scratch/user/djimenez/champsim-traces/speccpu2017/xz/623.xalancbmk_s/623.xalancbmk_s-165B.champsimtrace.xz
Heartbeat CPU 0 instructions: 10000001 cycles: 4155848 heartbeat IPC: 2.40625 cumulative IPC: 2.40625 (Simulation time: 0 hr 0 min 20 sec) 
Heartbeat CPU 0 instructions: 20000000 cycles: 8309737 heartbeat IPC: 2.40738 cumulative IPC: 2.40682 (Simulation time: 0 hr 0 min 41 sec) 
Heartbeat CPU 0 instructions: 30000001 cycles: 12456764 heartbeat IPC: 2.41137 cumulative IPC: 2.40833 (Simulation time: 0 hr 1 min 2 sec) 
Heartbeat CPU 0 instructions: 40000000 cycles: 16601402 heartbeat IPC: 2.41276 cumulative IPC: 2.40944 (Simulation time: 0 hr 1 min 22 sec) 
Heartbeat CPU 0 instructions: 50000000 cycles: 20746523 heartbeat IPC: 2.41247 cumulative IPC: 2.41004 (Simulation time: 0 hr 1 min 43 sec) 
Heartbeat CPU 0 instructions: 60000000 cycles: 24889408 heartbeat IPC: 2.41378 cumulative IPC: 2.41066 (Simulation time: 0 hr 2 min 4 sec) 
Heartbeat CPU 0 instructions: 70000000 cycles: 29038236 heartbeat IPC: 2.41032 cumulative IPC: 2.41061 (Simulation time: 0 hr 2 min 25 sec) 
Heartbeat CPU 0 instructions: 80000000 cycles: 33180526 heartbeat IPC: 2.41412 cumulative IPC: 2.41105 (Simulation time: 0 hr 2 min 45 sec) 
Heartbeat CPU 0 instructions: 90000000 cycles: 37331723 heartbeat IPC: 2.40894 cumulative IPC: 2.41082 (Simulation time: 0 hr 3 min 6 sec) 
Heartbeat CPU 0 instructions: 100000000 cycles: 41474305 heartbeat IPC: 2.41395 cumulative IPC: 2.41113 (Simulation time: 0 hr 3 min 27 sec) 
Heartbeat CPU 0 instructions: 110000003 cycles: 45619557 heartbeat IPC: 2.4124 cumulative IPC: 2.41125 (Simulation time: 0 hr 3 min 47 sec) 
Heartbeat CPU 0 instructions: 120000000 cycles: 49774970 heartbeat IPC: 2.4065 cumulative IPC: 2.41085 (Simulation time: 0 hr 4 min 8 sec) 
Heartbeat CPU 0 instructions: 130000001 cycles: 53925034 heartbeat IPC: 2.4096 cumulative IPC: 2.41075 (Simulation time: 0 hr 4 min 29 sec) 
Heartbeat CPU 0 instructions: 140000000 cycles: 58072103 heartbeat IPC: 2.41134 cumulative IPC: 2.4108 (Simulation time: 0 hr 4 min 49 sec) 
Heartbeat CPU 0 instructions: 150000002 cycles: 62217837 heartbeat IPC: 2.41212 cumulative IPC: 2.41088 (Simulation time: 0 hr 5 min 10 sec) 
Heartbeat CPU 0 instructions: 160000000 cycles: 66366775 heartbeat IPC: 2.41025 cumulative IPC: 2.41084 (Simulation time: 0 hr 5 min 31 sec) 
Heartbeat CPU 0 instructions: 170000003 cycles: 70520050 heartbeat IPC: 2.40774 cumulative IPC: 2.41066 (Simulation time: 0 hr 5 min 51 sec) 
Heartbeat CPU 0 instructions: 180000000 cycles: 74672391 heartbeat IPC: 2.40828 cumulative IPC: 2.41053 (Simulation time: 0 hr 6 min 12 sec) 
Heartbeat CPU 0 instructions: 190000001 cycles: 78819990 heartbeat IPC: 2.41103 cumulative IPC: 2.41056 (Simulation time: 0 hr 6 min 33 sec) 
Heartbeat CPU 0 instructions: 200000000 cycles: 82972313 heartbeat IPC: 2.40829 cumulative IPC: 2.41044 (Simulation time: 0 hr 6 min 53 sec) 

Warmup complete CPU 0 instructions: 200000001 cycles: 82972314 (Simulation time: 0 hr 6 min 53 sec) 

Heartbeat CPU 0 instructions: 210000002 cycles: 93772867 heartbeat IPC: 0.925879 cumulative IPC: 0.925879 (Simulation time: 0 hr 7 min 23 sec) 
Heartbeat CPU 0 instructions: 220000000 cycles: 105079632 heartbeat IPC: 0.884426 cumulative IPC: 0.904678 (Simulation time: 0 hr 7 min 53 sec) 
Heartbeat CPU 0 instructions: 230000000 cycles: 117017182 heartbeat IPC: 0.837693 cumulative IPC: 0.88119 (Simulation time: 0 hr 8 min 23 sec) 
Heartbeat CPU 0 instructions: 240000000 cycles: 128784681 heartbeat IPC: 0.849798 cumulative IPC: 0.873127 (Simulation time: 0 hr 8 min 53 sec) 
Heartbeat CPU 0 instructions: 250000001 cycles: 140530310 heartbeat IPC: 0.851381 cumulative IPC: 0.868689 (Simulation time: 0 hr 9 min 24 sec) 
Heartbeat CPU 0 instructions: 260000000 cycles: 152325475 heartbeat IPC: 0.847805 cumulative IPC: 0.865137 (Simulation time: 0 hr 9 min 55 sec) 
Heartbeat CPU 0 instructions: 270000002 cycles: 164128388 heartbeat IPC: 0.847249 cumulative IPC: 0.862536 (Simulation time: 0 hr 10 min 26 sec) 
Heartbeat CPU 0 instructions: 280000000 cycles: 175950912 heartbeat IPC: 0.845843 cumulative IPC: 0.860413 (Simulation time: 0 hr 10 min 56 sec) 
Heartbeat CPU 0 instructions: 290000000 cycles: 187757276 heartbeat IPC: 0.847001 cumulative IPC: 0.858902 (Simulation time: 0 hr 11 min 27 sec) 
Heartbeat CPU 0 instructions: 300000000 cycles: 199571955 heartbeat IPC: 0.846405 cumulative IPC: 0.857636 (Simulation time: 0 hr 11 min 59 sec) 
Heartbeat CPU 0 instructions: 310000003 cycles: 211384579 heartbeat IPC: 0.846552 cumulative IPC: 0.856616 (Simulation time: 0 hr 12 min 30 sec) 
Heartbeat CPU 0 instructions: 320000000 cycles: 223209738 heartbeat IPC: 0.845654 cumulative IPC: 0.855692 (Simulation time: 0 hr 13 min 1 sec) 
Heartbeat CPU 0 instructions: 330000000 cycles: 235011553 heartbeat IPC: 0.847327 cumulative IPC: 0.855042 (Simulation time: 0 hr 13 min 32 sec) 
Heartbeat CPU 0 instructions: 340000000 cycles: 246756179 heartbeat IPC: 0.851453 cumulative IPC: 0.854785 (Simulation time: 0 hr 14 min 3 sec) 
Heartbeat CPU 0 instructions: 350000000 cycles: 258482738 heartbeat IPC: 0.852765 cumulative IPC: 0.85465 (Simulation time: 0 hr 14 min 34 sec) 
Heartbeat CPU 0 instructions: 360000000 cycles: 270296112 heartbeat IPC: 0.846498 cumulative IPC: 0.854136 (Simulation time: 0 hr 15 min 5 sec) 
Heartbeat CPU 0 instructions: 370000001 cycles: 282105066 heartbeat IPC: 0.846815 cumulative IPC: 0.853702 (Simulation time: 0 hr 15 min 36 sec) 
Heartbeat CPU 0 instructions: 380000000 cycles: 293998984 heartbeat IPC: 0.840766 cumulative IPC: 0.852973 (Simulation time: 0 hr 16 min 7 sec) 
Heartbeat CPU 0 instructions: 390000001 cycles: 305938973 heartbeat IPC: 0.837522 cumulative IPC: 0.852145 (Simulation time: 0 hr 16 min 38 sec) 
Heartbeat CPU 0 instructions: 400000000 cycles: 318026865 heartbeat IPC: 0.827274 cumulative IPC: 0.850866 (Simulation time: 0 hr 17 min 9 sec) 
Heartbeat CPU 0 instructions: 410000002 cycles: 330205840 heartbeat IPC: 0.821087 cumulative IPC: 0.849399 (Simulation time: 0 hr 17 min 41 sec) 
Heartbeat CPU 0 instructions: 420000000 cycles: 342407182 heartbeat IPC: 0.819582 cumulative IPC: 0.847997 (Simulation time: 0 hr 18 min 13 sec) 
Heartbeat CPU 0 instructions: 430000000 cycles: 354648108 heartbeat IPC: 0.816932 cumulative IPC: 0.846597 (Simulation time: 0 hr 18 min 44 sec) 
Heartbeat CPU 0 instructions: 440000000 cycles: 366997185 heartbeat IPC: 0.809777 cumulative IPC: 0.844996 (Simulation time: 0 hr 19 min 16 sec) 
Heartbeat CPU 0 instructions: 450000000 cycles: 379390895 heartbeat IPC: 0.806861 cumulative IPC: 0.843402 (Simulation time: 0 hr 19 min 48 sec) 
Heartbeat CPU 0 instructions: 460000000 cycles: 391782755 heartbeat IPC: 0.806981 cumulative IPC: 0.84194 (Simulation time: 0 hr 20 min 20 sec) 
Heartbeat CPU 0 instructions: 470000002 cycles: 404172271 heartbeat IPC: 0.807134 cumulative IPC: 0.840598 (Simulation time: 0 hr 20 min 52 sec) 
Heartbeat CPU 0 instructions: 480000000 cycles: 416600125 heartbeat IPC: 0.804644 cumulative IPC: 0.839259 (Simulation time: 0 hr 21 min 24 sec) 
Heartbeat CPU 0 instructions: 490000000 cycles: 429038490 heartbeat IPC: 0.803964 cumulative IPC: 0.83799 (Simulation time: 0 hr 21 min 56 sec) 
Heartbeat CPU 0 instructions: 500000000 cycles: 441477669 heartbeat IPC: 0.803912 cumulative IPC: 0.836808 (Simulation time: 0 hr 22 min 29 sec) 
Heartbeat CPU 0 instructions: 510000000 cycles: 453935931 heartbeat IPC: 0.80268 cumulative IPC: 0.835661 (Simulation time: 0 hr 23 min 1 sec) 
Heartbeat CPU 0 instructions: 520000000 cycles: 466383900 heartbeat IPC: 0.803344 cumulative IPC: 0.834612 (Simulation time: 0 hr 23 min 33 sec) 
Heartbeat CPU 0 instructions: 530000000 cycles: 478979202 heartbeat IPC: 0.793947 cumulative IPC: 0.833319 (Simulation time: 0 hr 24 min 5 sec) 
Heartbeat CPU 0 instructions: 540000000 cycles: 491651933 heartbeat IPC: 0.789096 cumulative IPC: 0.831948 (Simulation time: 0 hr 24 min 38 sec) 
Heartbeat CPU 0 instructions: 550000000 cycles: 504372076 heartbeat IPC: 0.786155 cumulative IPC: 0.830565 (Simulation time: 0 hr 25 min 11 sec) 
Heartbeat CPU 0 instructions: 560000000 cycles: 517095663 heartbeat IPC: 0.785942 cumulative IPC: 0.829257 (Simulation time: 0 hr 25 min 43 sec) 
Heartbeat CPU 0 instructions: 570000001 cycles: 529840346 heartbeat IPC: 0.784641 cumulative IPC: 0.827985 (Simulation time: 0 hr 26 min 16 sec) 
Heartbeat CPU 0 instructions: 580000000 cycles: 542553819 heartbeat IPC: 0.786567 cumulative IPC: 0.826839 (Simulation time: 0 hr 26 min 48 sec) 
Heartbeat CPU 0 instructions: 590000002 cycles: 555297170 heartbeat IPC: 0.784723 cumulative IPC: 0.825703 (Simulation time: 0 hr 27 min 21 sec) 
Heartbeat CPU 0 instructions: 600000000 cycles: 568045133 heartbeat IPC: 0.784439 cumulative IPC: 0.824618 (Simulation time: 0 hr 27 min 54 sec) 
Heartbeat CPU 0 instructions: 610000000 cycles: 580772011 heartbeat IPC: 0.785739 cumulative IPC: 0.823624 (Simulation time: 0 hr 28 min 26 sec) 
Heartbeat CPU 0 instructions: 620000000 cycles: 593510527 heartbeat IPC: 0.785021 cumulative IPC: 0.822661 (Simulation time: 0 hr 28 min 59 sec) 
Heartbeat CPU 0 instructions: 630000002 cycles: 606238039 heartbeat IPC: 0.7857 cumulative IPC: 0.821762 (Simulation time: 0 hr 29 min 32 sec) 
Heartbeat CPU 0 instructions: 640000000 cycles: 618955715 heartbeat IPC: 0.786307 cumulative IPC: 0.820921 (Simulation time: 0 hr 30 min 4 sec) 
Heartbeat CPU 0 instructions: 650000000 cycles: 631680852 heartbeat IPC: 0.785846 cumulative IPC: 0.820108 (Simulation time: 0 hr 30 min 37 sec) 
Heartbeat CPU 0 instructions: 660000000 cycles: 644387092 heartbeat IPC: 0.787015 cumulative IPC: 0.819359 (Simulation time: 0 hr 31 min 10 sec) 
Heartbeat CPU 0 instructions: 670000000 cycles: 657109683 heartbeat IPC: 0.786003 cumulative IPC: 0.818619 (Simulation time: 0 hr 31 min 42 sec) 
Heartbeat CPU 0 instructions: 680000000 cycles: 670030522 heartbeat IPC: 0.773944 cumulative IPC: 0.817636 (Simulation time: 0 hr 32 min 15 sec) 
Heartbeat CPU 0 instructions: 690000000 cycles: 682984943 heartbeat IPC: 0.771937 cumulative IPC: 0.816649 (Simulation time: 0 hr 32 min 48 sec) 
Heartbeat CPU 0 instructions: 700000000 cycles: 695945477 heartbeat IPC: 0.771573 cumulative IPC: 0.815696 (Simulation time: 0 hr 33 min 21 sec) 
Heartbeat CPU 0 instructions: 710000000 cycles: 708890543 heartbeat IPC: 0.772495 cumulative IPC: 0.814803 (Simulation time: 0 hr 33 min 54 sec) 
Heartbeat CPU 0 instructions: 720000000 cycles: 721844312 heartbeat IPC: 0.771976 cumulative IPC: 0.813935 (Simulation time: 0 hr 34 min 27 sec) 
Heartbeat CPU 0 instructions: 730000001 cycles: 734797286 heartbeat IPC: 0.772024 cumulative IPC: 0.813102 (Simulation time: 0 hr 35 min 0 sec) 
Heartbeat CPU 0 instructions: 740000000 cycles: 747780531 heartbeat IPC: 0.770223 cumulative IPC: 0.812264 (Simulation time: 0 hr 35 min 33 sec) 
Heartbeat CPU 0 instructions: 750000000 cycles: 760773194 heartbeat IPC: 0.769665 cumulative IPC: 0.811448 (Simulation time: 0 hr 36 min 6 sec) 
Heartbeat CPU 0 instructions: 760000000 cycles: 773734960 heartbeat IPC: 0.7715 cumulative IPC: 0.810698 (Simulation time: 0 hr 36 min 39 sec) 
Heartbeat CPU 0 instructions: 770000001 cycles: 786716675 heartbeat IPC: 0.770314 cumulative IPC: 0.809953 (Simulation time: 0 hr 37 min 12 sec) 
Heartbeat CPU 0 instructions: 780000000 cycles: 799691413 heartbeat IPC: 0.770728 cumulative IPC: 0.809243 (Simulation time: 0 hr 37 min 45 sec) 
Heartbeat CPU 0 instructions: 790000002 cycles: 812666805 heartbeat IPC: 0.77069 cumulative IPC: 0.808558 (Simulation time: 0 hr 38 min 18 sec) 
Heartbeat CPU 0 instructions: 800000000 cycles: 825637338 heartbeat IPC: 0.770978 cumulative IPC: 0.807901 (Simulation time: 0 hr 38 min 51 sec) 
Heartbeat CPU 0 instructions: 810000000 cycles: 838596350 heartbeat IPC: 0.771664 cumulative IPC: 0.80728 (Simulation time: 0 hr 39 min 24 sec) 
Heartbeat CPU 0 instructions: 820000000 cycles: 851573383 heartbeat IPC: 0.770592 cumulative IPC: 0.80666 (Simulation time: 0 hr 39 min 57 sec) 
Heartbeat CPU 0 instructions: 830000000 cycles: 864538137 heartbeat IPC: 0.771322 cumulative IPC: 0.806074 (Simulation time: 0 hr 40 min 30 sec) 
Heartbeat CPU 0 instructions: 840000000 cycles: 877498814 heartbeat IPC: 0.771565 cumulative IPC: 0.805511 (Simulation time: 0 hr 41 min 3 sec) 
Heartbeat CPU 0 instructions: 850000000 cycles: 890476864 heartbeat IPC: 0.770532 cumulative IPC: 0.804949 (Simulation time: 0 hr 41 min 36 sec) 
Heartbeat CPU 0 instructions: 860000000 cycles: 903423528 heartbeat IPC: 0.7724 cumulative IPC: 0.804435 (Simulation time: 0 hr 42 min 9 sec) 
Heartbeat CPU 0 instructions: 870000001 cycles: 916359791 heartbeat IPC: 0.773021 cumulative IPC: 0.803948 (Simulation time: 0 hr 42 min 42 sec) 
Heartbeat CPU 0 instructions: 880000000 cycles: 929314714 heartbeat IPC: 0.771907 cumulative IPC: 0.803457 (Simulation time: 0 hr 43 min 15 sec) 
Heartbeat CPU 0 instructions: 890000001 cycles: 942269749 heartbeat IPC: 0.771901 cumulative IPC: 0.802982 (Simulation time: 0 hr 43 min 48 sec) 
Heartbeat CPU 0 instructions: 900000000 cycles: 955226611 heartbeat IPC: 0.771792 cumulative IPC: 0.802518 (Simulation time: 0 hr 44 min 21 sec) 
Heartbeat CPU 0 instructions: 910000002 cycles: 968181135 heartbeat IPC: 0.771931 cumulative IPC: 0.802071 (Simulation time: 0 hr 44 min 54 sec) 
Heartbeat CPU 0 instructions: 920000000 cycles: 981117094 heartbeat IPC: 0.773039 cumulative IPC: 0.801652 (Simulation time: 0 hr 45 min 27 sec) 
Heartbeat CPU 0 instructions: 930000001 cycles: 994051104 heartbeat IPC: 0.773156 cumulative IPC: 0.801248 (Simulation time: 0 hr 46 min 0 sec) 
Heartbeat CPU 0 instructions: 940000000 cycles: 1006967048 heartbeat IPC: 0.774237 cumulative IPC: 0.80087 (Simulation time: 0 hr 46 min 33 sec) 
Heartbeat CPU 0 instructions: 950000002 cycles: 1019904341 heartbeat IPC: 0.772959 cumulative IPC: 0.800485 (Simulation time: 0 hr 47 min 5 sec) 
Heartbeat CPU 0 instructions: 960000000 cycles: 1032820540 heartbeat IPC: 0.774221 cumulative IPC: 0.800128 (Simulation time: 0 hr 47 min 38 sec) 
Heartbeat CPU 0 instructions: 970000000 cycles: 1045723264 heartbeat IPC: 0.77503 cumulative IPC: 0.799791 (Simulation time: 0 hr 48 min 11 sec) 
Heartbeat CPU 0 instructions: 980000000 cycles: 1058634273 heartbeat IPC: 0.774533 cumulative IPC: 0.799457 (Simulation time: 0 hr 48 min 44 sec) 
Heartbeat CPU 0 instructions: 990000002 cycles: 1071543048 heartbeat IPC: 0.774667 cumulative IPC: 0.799134 (Simulation time: 0 hr 49 min 17 sec) 
Heartbeat CPU 0 instructions: 1000000000 cycles: 1084455228 heartbeat IPC: 0.774462 cumulative IPC: 0.798815 (Simulation time: 0 hr 49 min 50 sec) 
Heartbeat CPU 0 instructions: 1010000003 cycles: 1097364463 heartbeat IPC: 0.774639 cumulative IPC: 0.798508 (Simulation time: 0 hr 50 min 23 sec) 
Heartbeat CPU 0 instructions: 1020000000 cycles: 1110260644 heartbeat IPC: 0.775423 cumulative IPC: 0.798218 (Simulation time: 0 hr 50 min 56 sec) 
Heartbeat CPU 0 instructions: 1030000003 cycles: 1123155850 heartbeat IPC: 0.775482 cumulative IPC: 0.797936 (Simulation time: 0 hr 51 min 29 sec) 
Heartbeat CPU 0 instructions: 1040000000 cycles: 1136045039 heartbeat IPC: 0.775844 cumulative IPC: 0.797666 (Simulation time: 0 hr 52 min 2 sec) 
Heartbeat CPU 0 instructions: 1050000003 cycles: 1148941397 heartbeat IPC: 0.775413 cumulative IPC: 0.797396 (Simulation time: 0 hr 52 min 35 sec) 
Heartbeat CPU 0 instructions: 1060000000 cycles: 1161831226 heartbeat IPC: 0.775805 cumulative IPC: 0.797139 (Simulation time: 0 hr 53 min 8 sec) 
Heartbeat CPU 0 instructions: 1070000000 cycles: 1174713249 heartbeat IPC: 0.776276 cumulative IPC: 0.796892 (Simulation time: 0 hr 53 min 41 sec) 
Heartbeat CPU 0 instructions: 1080000000 cycles: 1187592179 heartbeat IPC: 0.776462 cumulative IPC: 0.796654 (Simulation time: 0 hr 54 min 14 sec) 
Heartbeat CPU 0 instructions: 1090000002 cycles: 1200467653 heartbeat IPC: 0.776671 cumulative IPC: 0.796424 (Simulation time: 0 hr 54 min 46 sec) 
Heartbeat CPU 0 instructions: 1100000000 cycles: 1213332703 heartbeat IPC: 0.7773 cumulative IPC: 0.796206 (Simulation time: 0 hr 55 min 19 sec) 
Heartbeat CPU 0 instructions: 1110000003 cycles: 1226201378 heartbeat IPC: 0.777081 cumulative IPC: 0.795991 (Simulation time: 0 hr 55 min 52 sec) 
Heartbeat CPU 0 instructions: 1120000000 cycles: 1239069651 heartbeat IPC: 0.777105 cumulative IPC: 0.795781 (Simulation time: 0 hr 56 min 25 sec) 
Heartbeat CPU 0 instructions: 1130000000 cycles: 1251935397 heartbeat IPC: 0.777258 cumulative IPC: 0.795577 (Simulation time: 0 hr 56 min 58 sec) 
Heartbeat CPU 0 instructions: 1140000000 cycles: 1264790233 heartbeat IPC: 0.777917 cumulative IPC: 0.795385 (Simulation time: 0 hr 57 min 31 sec) 
Heartbeat CPU 0 instructions: 1150000001 cycles: 1277663672 heartbeat IPC: 0.776793 cumulative IPC: 0.795184 (Simulation time: 0 hr 58 min 3 sec) 
Heartbeat CPU 0 instructions: 1160000000 cycles: 1290522117 heartbeat IPC: 0.777699 cumulative IPC: 0.794998 (Simulation time: 0 hr 58 min 36 sec) 
Heartbeat CPU 0 instructions: 1170000000 cycles: 1303380462 heartbeat IPC: 0.777705 cumulative IPC: 0.794816 (Simulation time: 0 hr 59 min 9 sec) 
Heartbeat CPU 0 instructions: 1180000000 cycles: 1316237150 heartbeat IPC: 0.777805 cumulative IPC: 0.794639 (Simulation time: 0 hr 59 min 42 sec) 
Heartbeat CPU 0 instructions: 1190000001 cycles: 1329119645 heartbeat IPC: 0.776247 cumulative IPC: 0.794449 (Simulation time: 1 hr 0 min 15 sec) 
Heartbeat CPU 0 instructions: 1200000000 cycles: 1341988698 heartbeat IPC: 0.777058 cumulative IPC: 0.794271 (Simulation time: 1 hr 0 min 48 sec) 
Finished CPU 0 instructions: 1000000001 cycles: 1259016398 cumulative IPC: 0.794271 (Simulation time: 1 hr 0 min 48 sec) 

CPU 0 Branch Prediction Accuracy: 99.9342% MPKI: 0.169356

ChampSim completed all CPUs

Region of Interest Statistics

CPU 0 cumulative IPC: 0.794271 instructions: 1000000001 cycles: 1259016398
L1D TOTAL     ACCESS:  214284290  HIT:  189017482  MISS:   25266808
L1D LOAD      ACCESS:  195634236  HIT:  170398601  MISS:   25235635
L1D RFO       ACCESS:   18650054  HIT:   18618881  MISS:      31173
L1D PREFETCH  ACCESS:          0  HIT:          0  MISS:          0
L1D WRITEBACK ACCESS:          0  HIT:          0  MISS:          0
L1D PREFETCH  REQUESTED:          0  ISSUED:          0  USEFUL:          0  USELESS:          0
L1I TOTAL     ACCESS:  347197344  HIT:  347197251  MISS:         93
L1I LOAD      ACCESS:  347197344  HIT:  347197251  MISS:         93
L1I RFO       ACCESS:          0  HIT:          0  MISS:          0
L1I PREFETCH  ACCESS:          0  HIT:          0  MISS:          0
L1I WRITEBACK ACCESS:          0  HIT:          0  MISS:          0
L1I PREFETCH  REQUESTED:          0  ISSUED:          0  USEFUL:          0  USELESS:          0
L2C TOTAL     ACCESS:   51608051  HIT:   27299386  MISS:   24308665
L2C LOAD      ACCESS:   25235725  HIT:   23917952  MISS:    1317773
L2C RFO       ACCESS:      31173  HIT:      18828  MISS:      12345
L2C PREFETCH  ACCESS:   26295832  HIT:    3317292  MISS:   22978540
L2C WRITEBACK ACCESS:      45321  HIT:      45314  MISS:          7
L2C PREFETCH  REQUESTED:   34981666  ISSUED:   34981665  USEFUL:   26177505  USELESS:     594348
LLC TOTAL     ACCESS:   25526988  HIT:    5689149  MISS:   19837839
LLC LOAD      ACCESS:     982058  HIT:     210532  MISS:     771526
LLC RFO       ACCESS:      12340  HIT:       3552  MISS:       8788
LLC PREFETCH  ACCESS:   24493613  HIT:    5437983  MISS:   19055630
LLC WRITEBACK ACCESS:      38977  HIT:      37082  MISS:       1895
LLC PREFETCH  REQUESTED:          0  ISSUED:          0  USEFUL:       5965  USELESS:   23029208
Major fault: 0 Minor fault: 3916

Avg Lookahead Depth:	10.3018
TOTAL: 3.49817e+07	L2C: 3.20078e+07	LLC: 2.97383e+06	GOOD_L2C: 2.77363e+07
Printing all the perceptron weights to: perc_weights_0.csv

DRAM Statistics
 CHANNEL 0
 RQ ROW_BUFFER_HIT:   16983401  ROW_BUFFER_MISS:    2808096
 DBUS_CONGESTED:   11121730
 WQ ROW_BUFFER_HIT:       7752  ROW_BUFFER_MISS:      15053  FULL:          0

 AVG_CONGESTED_CYCLE: 12
