Initialize SIGNATURE TABLE
ST_SET: 1
ST_WAY: 256
ST_TAG_BIT: 16
ST_TAG_MASK: ffff

Initialize PATTERN TABLE
PT_SET: 512
PT_WAY: 4
SIG_DELTA_BIT: 7
C_SIG_BIT: 4
C_DELTA_BIT: 4

Initialize PREFETCH FILTER
FILTER_SET: 1024

Initialize PERCEPTRON
PERC_ENTRIES: 4096
PERC_FEATURES: 9

*** ChampSim Multicore Out-of-Order Simulator ***

Warmup Instructions: 200000000
Simulation Instructions: 1000000000
Number of CPUs: 1
LLC sets: 512
LLC ways: 16
Off-chip DRAM Size: 4096 MB Channels: 1 Width: 64-bit Data Rate: 1600 MT/s

CPU 0 runs /scratch/user/djimenez/champsim-traces/speccpu2017/xz/644.nab_s/644.nab_s-12521B.champsimtrace.xz
Heartbeat CPU 0 instructions: 10000000 cycles: 4385990 heartbeat IPC: 2.27999 cumulative IPC: 2.27999 (Simulation time: 0 hr 0 min 30 sec) 
Heartbeat CPU 0 instructions: 20000000 cycles: 8772739 heartbeat IPC: 2.27959 cumulative IPC: 2.27979 (Simulation time: 0 hr 0 min 59 sec) 
Heartbeat CPU 0 instructions: 30000002 cycles: 13160375 heartbeat IPC: 2.27913 cumulative IPC: 2.27957 (Simulation time: 0 hr 1 min 28 sec) 
Heartbeat CPU 0 instructions: 40000000 cycles: 17548058 heartbeat IPC: 2.27911 cumulative IPC: 2.27945 (Simulation time: 0 hr 1 min 56 sec) 
Heartbeat CPU 0 instructions: 50000001 cycles: 21934658 heartbeat IPC: 2.27967 cumulative IPC: 2.2795 (Simulation time: 0 hr 2 min 25 sec) 
Heartbeat CPU 0 instructions: 60000000 cycles: 26321755 heartbeat IPC: 2.27941 cumulative IPC: 2.27948 (Simulation time: 0 hr 2 min 54 sec) 
Heartbeat CPU 0 instructions: 70000001 cycles: 30708095 heartbeat IPC: 2.27981 cumulative IPC: 2.27953 (Simulation time: 0 hr 3 min 23 sec) 
Heartbeat CPU 0 instructions: 80000000 cycles: 35096425 heartbeat IPC: 2.27877 cumulative IPC: 2.27943 (Simulation time: 0 hr 3 min 52 sec) 
Heartbeat CPU 0 instructions: 90000003 cycles: 39482223 heartbeat IPC: 2.28009 cumulative IPC: 2.27951 (Simulation time: 0 hr 4 min 21 sec) 
Heartbeat CPU 0 instructions: 100000000 cycles: 43870833 heartbeat IPC: 2.27863 cumulative IPC: 2.27942 (Simulation time: 0 hr 4 min 50 sec) 
Heartbeat CPU 0 instructions: 110000001 cycles: 48256809 heartbeat IPC: 2.27999 cumulative IPC: 2.27947 (Simulation time: 0 hr 5 min 19 sec) 
Heartbeat CPU 0 instructions: 120000000 cycles: 52644830 heartbeat IPC: 2.27893 cumulative IPC: 2.27943 (Simulation time: 0 hr 5 min 48 sec) 
Heartbeat CPU 0 instructions: 130000000 cycles: 57030839 heartbeat IPC: 2.27998 cumulative IPC: 2.27947 (Simulation time: 0 hr 6 min 18 sec) 
Heartbeat CPU 0 instructions: 140000000 cycles: 61417913 heartbeat IPC: 2.27942 cumulative IPC: 2.27947 (Simulation time: 0 hr 6 min 48 sec) 
Heartbeat CPU 0 instructions: 150000002 cycles: 65803290 heartbeat IPC: 2.28031 cumulative IPC: 2.27952 (Simulation time: 0 hr 7 min 16 sec) 
Heartbeat CPU 0 instructions: 160000000 cycles: 70188905 heartbeat IPC: 2.28018 cumulative IPC: 2.27956 (Simulation time: 0 hr 7 min 44 sec) 
Heartbeat CPU 0 instructions: 170000002 cycles: 74577593 heartbeat IPC: 2.27859 cumulative IPC: 2.27951 (Simulation time: 0 hr 8 min 13 sec) 
Heartbeat CPU 0 instructions: 180000000 cycles: 78964404 heartbeat IPC: 2.27956 cumulative IPC: 2.27951 (Simulation time: 0 hr 8 min 43 sec) 
Heartbeat CPU 0 instructions: 190000000 cycles: 83350779 heartbeat IPC: 2.27979 cumulative IPC: 2.27952 (Simulation time: 0 hr 9 min 12 sec) 
Heartbeat CPU 0 instructions: 200000000 cycles: 87737456 heartbeat IPC: 2.27963 cumulative IPC: 2.27953 (Simulation time: 0 hr 9 min 41 sec) 

Warmup complete CPU 0 instructions: 200000001 cycles: 87737457 (Simulation time: 0 hr 9 min 41 sec) 

Heartbeat CPU 0 instructions: 210000001 cycles: 98441578 heartbeat IPC: 0.93422 cumulative IPC: 0.93422 (Simulation time: 0 hr 10 min 20 sec) 
Heartbeat CPU 0 instructions: 220000000 cycles: 109121162 heartbeat IPC: 0.936366 cumulative IPC: 0.935292 (Simulation time: 0 hr 10 min 59 sec) 
Heartbeat CPU 0 instructions: 230000001 cycles: 119833016 heartbeat IPC: 0.933545 cumulative IPC: 0.934709 (Simulation time: 0 hr 11 min 37 sec) 
Heartbeat CPU 0 instructions: 240000000 cycles: 130556217 heartbeat IPC: 0.932557 cumulative IPC: 0.93417 (Simulation time: 0 hr 12 min 16 sec) 
Heartbeat CPU 0 instructions: 250000000 cycles: 141227169 heartbeat IPC: 0.937124 cumulative IPC: 0.934759 (Simulation time: 0 hr 12 min 55 sec) 
Heartbeat CPU 0 instructions: 260000000 cycles: 151874442 heartbeat IPC: 0.939208 cumulative IPC: 0.935498 (Simulation time: 0 hr 13 min 33 sec) 
Heartbeat CPU 0 instructions: 270000003 cycles: 162517515 heartbeat IPC: 0.939579 cumulative IPC: 0.936078 (Simulation time: 0 hr 14 min 11 sec) 
Heartbeat CPU 0 instructions: 280000000 cycles: 173232118 heartbeat IPC: 0.933305 cumulative IPC: 0.935731 (Simulation time: 0 hr 14 min 50 sec) 
Heartbeat CPU 0 instructions: 290000001 cycles: 183863266 heartbeat IPC: 0.940632 cumulative IPC: 0.936273 (Simulation time: 0 hr 15 min 29 sec) 
Heartbeat CPU 0 instructions: 300000000 cycles: 194576756 heartbeat IPC: 0.933403 cumulative IPC: 0.935985 (Simulation time: 0 hr 16 min 8 sec) 
Heartbeat CPU 0 instructions: 310000000 cycles: 205279262 heartbeat IPC: 0.934361 cumulative IPC: 0.935837 (Simulation time: 0 hr 16 min 48 sec) 
Heartbeat CPU 0 instructions: 320000000 cycles: 215964816 heartbeat IPC: 0.935843 cumulative IPC: 0.935838 (Simulation time: 0 hr 17 min 28 sec) 
Heartbeat CPU 0 instructions: 330000001 cycles: 226614669 heartbeat IPC: 0.93898 cumulative IPC: 0.936079 (Simulation time: 0 hr 18 min 6 sec) 
Heartbeat CPU 0 instructions: 340000000 cycles: 237308893 heartbeat IPC: 0.935084 cumulative IPC: 0.936008 (Simulation time: 0 hr 18 min 45 sec) 
Heartbeat CPU 0 instructions: 350000001 cycles: 248031125 heartbeat IPC: 0.932642 cumulative IPC: 0.935782 (Simulation time: 0 hr 19 min 25 sec) 
Heartbeat CPU 0 instructions: 360000000 cycles: 258749458 heartbeat IPC: 0.932981 cumulative IPC: 0.935607 (Simulation time: 0 hr 20 min 4 sec) 
Heartbeat CPU 0 instructions: 370000000 cycles: 269388165 heartbeat IPC: 0.939964 cumulative IPC: 0.935862 (Simulation time: 0 hr 20 min 43 sec) 
Heartbeat CPU 0 instructions: 380000000 cycles: 280058345 heartbeat IPC: 0.937191 cumulative IPC: 0.935936 (Simulation time: 0 hr 21 min 21 sec) 
Heartbeat CPU 0 instructions: 390000002 cycles: 290779334 heartbeat IPC: 0.93275 cumulative IPC: 0.935768 (Simulation time: 0 hr 22 min 0 sec) 
Heartbeat CPU 0 instructions: 400000000 cycles: 301489716 heartbeat IPC: 0.933673 cumulative IPC: 0.935663 (Simulation time: 0 hr 22 min 39 sec) 
Heartbeat CPU 0 instructions: 410000001 cycles: 312202096 heartbeat IPC: 0.933499 cumulative IPC: 0.935559 (Simulation time: 0 hr 23 min 18 sec) 
Heartbeat CPU 0 instructions: 420000000 cycles: 322910442 heartbeat IPC: 0.933851 cumulative IPC: 0.935482 (Simulation time: 0 hr 23 min 57 sec) 
Heartbeat CPU 0 instructions: 430000003 cycles: 333628418 heartbeat IPC: 0.933012 cumulative IPC: 0.935374 (Simulation time: 0 hr 24 min 36 sec) 
Heartbeat CPU 0 instructions: 440000000 cycles: 344326846 heartbeat IPC: 0.934716 cumulative IPC: 0.935347 (Simulation time: 0 hr 25 min 14 sec) 
Heartbeat CPU 0 instructions: 450000001 cycles: 354998736 heartbeat IPC: 0.937041 cumulative IPC: 0.935414 (Simulation time: 0 hr 25 min 53 sec) 
Heartbeat CPU 0 instructions: 460000000 cycles: 365654055 heartbeat IPC: 0.938498 cumulative IPC: 0.935532 (Simulation time: 0 hr 26 min 31 sec) 
Heartbeat CPU 0 instructions: 470000001 cycles: 376331502 heartbeat IPC: 0.936554 cumulative IPC: 0.93557 (Simulation time: 0 hr 27 min 10 sec) 
Heartbeat CPU 0 instructions: 480000000 cycles: 388474073 heartbeat IPC: 0.823549 cumulative IPC: 0.931047 (Simulation time: 0 hr 27 min 51 sec) 
Heartbeat CPU 0 instructions: 490000000 cycles: 403227839 heartbeat IPC: 0.677793 cumulative IPC: 0.919204 (Simulation time: 0 hr 28 min 36 sec) 
Heartbeat CPU 0 instructions: 500000000 cycles: 416574508 heartbeat IPC: 0.749251 cumulative IPC: 0.912306 (Simulation time: 0 hr 29 min 15 sec) 
Heartbeat CPU 0 instructions: 510000001 cycles: 429925099 heartbeat IPC: 0.749031 cumulative IPC: 0.905936 (Simulation time: 0 hr 29 min 55 sec) 
Heartbeat CPU 0 instructions: 520000000 cycles: 443309467 heartbeat IPC: 0.74714 cumulative IPC: 0.899958 (Simulation time: 0 hr 30 min 34 sec) 
Heartbeat CPU 0 instructions: 530000001 cycles: 457118536 heartbeat IPC: 0.724162 cumulative IPC: 0.893386 (Simulation time: 0 hr 31 min 13 sec) 
Heartbeat CPU 0 instructions: 540000000 cycles: 469350911 heartbeat IPC: 0.817503 cumulative IPC: 0.890954 (Simulation time: 0 hr 31 min 50 sec) 
Heartbeat CPU 0 instructions: 550000003 cycles: 475713010 heartbeat IPC: 1.57181 cumulative IPC: 0.902119 (Simulation time: 0 hr 32 min 22 sec) 
Heartbeat CPU 0 instructions: 560000000 cycles: 482055273 heartbeat IPC: 1.57672 cumulative IPC: 0.912969 (Simulation time: 0 hr 32 min 54 sec) 
Heartbeat CPU 0 instructions: 570000003 cycles: 488408072 heartbeat IPC: 1.57411 cumulative IPC: 0.923452 (Simulation time: 0 hr 33 min 26 sec) 
Heartbeat CPU 0 instructions: 580000000 cycles: 494735071 heartbeat IPC: 1.58053 cumulative IPC: 0.933666 (Simulation time: 0 hr 33 min 58 sec) 
Heartbeat CPU 0 instructions: 590000000 cycles: 501071254 heartbeat IPC: 1.57824 cumulative IPC: 0.943547 (Simulation time: 0 hr 34 min 29 sec) 
Heartbeat CPU 0 instructions: 600000000 cycles: 508602903 heartbeat IPC: 1.32773 cumulative IPC: 0.950423 (Simulation time: 0 hr 35 min 3 sec) 
Heartbeat CPU 0 instructions: 610000002 cycles: 514990244 heartbeat IPC: 1.5656 cumulative IPC: 0.959619 (Simulation time: 0 hr 35 min 35 sec) 
Heartbeat CPU 0 instructions: 620000000 cycles: 521237805 heartbeat IPC: 1.60062 cumulative IPC: 0.968857 (Simulation time: 0 hr 36 min 6 sec) 
Heartbeat CPU 0 instructions: 630000003 cycles: 527482806 heartbeat IPC: 1.60128 cumulative IPC: 0.977839 (Simulation time: 0 hr 36 min 38 sec) 
Heartbeat CPU 0 instructions: 640000000 cycles: 533730952 heartbeat IPC: 1.60047 cumulative IPC: 0.986561 (Simulation time: 0 hr 37 min 9 sec) 
Heartbeat CPU 0 instructions: 650000001 cycles: 542026222 heartbeat IPC: 1.20551 cumulative IPC: 0.990559 (Simulation time: 0 hr 37 min 43 sec) 
Heartbeat CPU 0 instructions: 660000000 cycles: 554181282 heartbeat IPC: 0.822703 cumulative IPC: 0.986185 (Simulation time: 0 hr 38 min 19 sec) 
Heartbeat CPU 0 instructions: 670000002 cycles: 566338934 heartbeat IPC: 0.822527 cumulative IPC: 0.982028 (Simulation time: 0 hr 38 min 55 sec) 
Heartbeat CPU 0 instructions: 680000000 cycles: 577190719 heartbeat IPC: 0.921507 cumulative IPC: 0.980686 (Simulation time: 0 hr 39 min 34 sec) 
Heartbeat CPU 0 instructions: 690000001 cycles: 587946675 heartbeat IPC: 0.929718 cumulative IPC: 0.97959 (Simulation time: 0 hr 40 min 13 sec) 
Heartbeat CPU 0 instructions: 700000000 cycles: 598704306 heartbeat IPC: 0.929573 cumulative IPC: 0.978537 (Simulation time: 0 hr 40 min 52 sec) 
Heartbeat CPU 0 instructions: 710000000 cycles: 609511229 heartbeat IPC: 0.925333 cumulative IPC: 0.977435 (Simulation time: 0 hr 41 min 32 sec) 
Heartbeat CPU 0 instructions: 720000000 cycles: 620336477 heartbeat IPC: 0.923766 cumulative IPC: 0.976344 (Simulation time: 0 hr 42 min 11 sec) 
Heartbeat CPU 0 instructions: 730000003 cycles: 631222322 heartbeat IPC: 0.918624 cumulative IPC: 0.975188 (Simulation time: 0 hr 42 min 51 sec) 
Heartbeat CPU 0 instructions: 740000000 cycles: 642106800 heartbeat IPC: 0.918739 cumulative IPC: 0.97408 (Simulation time: 0 hr 43 min 30 sec) 
Heartbeat CPU 0 instructions: 750000003 cycles: 652951797 heartbeat IPC: 0.922084 cumulative IPC: 0.973082 (Simulation time: 0 hr 44 min 9 sec) 
Heartbeat CPU 0 instructions: 760000000 cycles: 663746119 heartbeat IPC: 0.926413 cumulative IPC: 0.972208 (Simulation time: 0 hr 44 min 49 sec) 
Heartbeat CPU 0 instructions: 770000000 cycles: 674515007 heartbeat IPC: 0.928601 cumulative IPC: 0.971407 (Simulation time: 0 hr 45 min 27 sec) 
Heartbeat CPU 0 instructions: 780000000 cycles: 685267978 heartbeat IPC: 0.929976 cumulative IPC: 0.970662 (Simulation time: 0 hr 45 min 58 sec) 
Heartbeat CPU 0 instructions: 790000002 cycles: 696004684 heartbeat IPC: 0.931385 cumulative IPC: 0.969968 (Simulation time: 0 hr 46 min 29 sec) 
Heartbeat CPU 0 instructions: 800000000 cycles: 706728268 heartbeat IPC: 0.932524 cumulative IPC: 0.96932 (Simulation time: 0 hr 47 min 1 sec) 
Heartbeat CPU 0 instructions: 810000002 cycles: 717461620 heartbeat IPC: 0.931676 cumulative IPC: 0.968678 (Simulation time: 0 hr 47 min 32 sec) 
Heartbeat CPU 0 instructions: 820000000 cycles: 728182509 heartbeat IPC: 0.932758 cumulative IPC: 0.968077 (Simulation time: 0 hr 48 min 3 sec) 
Heartbeat CPU 0 instructions: 830000002 cycles: 738937894 heartbeat IPC: 0.929767 cumulative IPC: 0.967444 (Simulation time: 0 hr 48 min 35 sec) 
Heartbeat CPU 0 instructions: 840000000 cycles: 749693477 heartbeat IPC: 0.929749 cumulative IPC: 0.966832 (Simulation time: 0 hr 49 min 6 sec) 
Heartbeat CPU 0 instructions: 850000003 cycles: 760440486 heartbeat IPC: 0.930492 cumulative IPC: 0.966251 (Simulation time: 0 hr 49 min 38 sec) 
Heartbeat CPU 0 instructions: 860000000 cycles: 771184970 heartbeat IPC: 0.93071 cumulative IPC: 0.965692 (Simulation time: 0 hr 50 min 9 sec) 
Heartbeat CPU 0 instructions: 870000002 cycles: 781929992 heartbeat IPC: 0.930664 cumulative IPC: 0.96515 (Simulation time: 0 hr 50 min 40 sec) 
Heartbeat CPU 0 instructions: 880000000 cycles: 792704255 heartbeat IPC: 0.928138 cumulative IPC: 0.964584 (Simulation time: 0 hr 51 min 12 sec) 
Heartbeat CPU 0 instructions: 890000002 cycles: 803470791 heartbeat IPC: 0.928804 cumulative IPC: 0.964046 (Simulation time: 0 hr 51 min 43 sec) 
Heartbeat CPU 0 instructions: 900000000 cycles: 814226668 heartbeat IPC: 0.929724 cumulative IPC: 0.963538 (Simulation time: 0 hr 52 min 15 sec) 
Heartbeat CPU 0 instructions: 910000001 cycles: 824982915 heartbeat IPC: 0.929692 cumulative IPC: 0.963044 (Simulation time: 0 hr 52 min 46 sec) 
Heartbeat CPU 0 instructions: 920000000 cycles: 835758531 heartbeat IPC: 0.928021 cumulative IPC: 0.96254 (Simulation time: 0 hr 53 min 17 sec) 
Heartbeat CPU 0 instructions: 930000000 cycles: 846515556 heartbeat IPC: 0.929625 cumulative IPC: 0.962073 (Simulation time: 0 hr 53 min 49 sec) 
Heartbeat CPU 0 instructions: 940000000 cycles: 857293633 heartbeat IPC: 0.927809 cumulative IPC: 0.961593 (Simulation time: 0 hr 54 min 20 sec) 
Heartbeat CPU 0 instructions: 950000003 cycles: 868064262 heartbeat IPC: 0.928451 cumulative IPC: 0.961136 (Simulation time: 0 hr 54 min 51 sec) 
Heartbeat CPU 0 instructions: 960000000 cycles: 878804496 heartbeat IPC: 0.931078 cumulative IPC: 0.960728 (Simulation time: 0 hr 55 min 23 sec) 
Heartbeat CPU 0 instructions: 970000002 cycles: 889533923 heartbeat IPC: 0.932016 cumulative IPC: 0.960343 (Simulation time: 0 hr 55 min 54 sec) 
Heartbeat CPU 0 instructions: 980000000 cycles: 900280855 heartbeat IPC: 0.930498 cumulative IPC: 0.959949 (Simulation time: 0 hr 56 min 26 sec) 
Heartbeat CPU 0 instructions: 990000003 cycles: 911023332 heartbeat IPC: 0.930884 cumulative IPC: 0.959569 (Simulation time: 0 hr 56 min 57 sec) 
Heartbeat CPU 0 instructions: 1000000000 cycles: 921745514 heartbeat IPC: 0.932646 cumulative IPC: 0.959223 (Simulation time: 0 hr 57 min 28 sec) 
Heartbeat CPU 0 instructions: 1010000002 cycles: 932494626 heartbeat IPC: 0.93031 cumulative IPC: 0.958855 (Simulation time: 0 hr 57 min 57 sec) 
Heartbeat CPU 0 instructions: 1020000000 cycles: 943247372 heartbeat IPC: 0.929995 cumulative IPC: 0.958493 (Simulation time: 0 hr 58 min 27 sec) 
Heartbeat CPU 0 instructions: 1030000001 cycles: 954030642 heartbeat IPC: 0.927363 cumulative IPC: 0.958105 (Simulation time: 0 hr 58 min 57 sec) 
Heartbeat CPU 0 instructions: 1040000000 cycles: 964813875 heartbeat IPC: 0.927366 cumulative IPC: 0.957727 (Simulation time: 0 hr 59 min 26 sec) 
Heartbeat CPU 0 instructions: 1050000001 cycles: 975577814 heartbeat IPC: 0.929028 cumulative IPC: 0.957379 (Simulation time: 0 hr 59 min 56 sec) 
Heartbeat CPU 0 instructions: 1060000000 cycles: 986317535 heartbeat IPC: 0.931123 cumulative IPC: 0.957066 (Simulation time: 1 hr 0 min 25 sec) 
Heartbeat CPU 0 instructions: 1070000000 cycles: 997039134 heartbeat IPC: 0.932697 cumulative IPC: 0.956778 (Simulation time: 1 hr 0 min 55 sec) 
Heartbeat CPU 0 instructions: 1080000000 cycles: 1007783827 heartbeat IPC: 0.930692 cumulative IPC: 0.956474 (Simulation time: 1 hr 1 min 25 sec) 
Heartbeat CPU 0 instructions: 1090000000 cycles: 1018518099 heartbeat IPC: 0.931596 cumulative IPC: 0.956187 (Simulation time: 1 hr 1 min 56 sec) 
Heartbeat CPU 0 instructions: 1100000000 cycles: 1029214915 heartbeat IPC: 0.934858 cumulative IPC: 0.955944 (Simulation time: 1 hr 2 min 25 sec) 
Heartbeat CPU 0 instructions: 1110000003 cycles: 1039954721 heartbeat IPC: 0.931116 cumulative IPC: 0.955664 (Simulation time: 1 hr 2 min 54 sec) 
Heartbeat CPU 0 instructions: 1120000000 cycles: 1050695836 heartbeat IPC: 0.931002 cumulative IPC: 0.955389 (Simulation time: 1 hr 3 min 22 sec) 
Heartbeat CPU 0 instructions: 1130000002 cycles: 1061465800 heartbeat IPC: 0.928508 cumulative IPC: 0.955092 (Simulation time: 1 hr 3 min 50 sec) 
Heartbeat CPU 0 instructions: 1140000000 cycles: 1072243865 heartbeat IPC: 0.92781 cumulative IPC: 0.954793 (Simulation time: 1 hr 4 min 19 sec) 
Heartbeat CPU 0 instructions: 1150000003 cycles: 1083004577 heartbeat IPC: 0.929307 cumulative IPC: 0.954518 (Simulation time: 1 hr 4 min 48 sec) 
Heartbeat CPU 0 instructions: 1160000000 cycles: 1093771196 heartbeat IPC: 0.928796 cumulative IPC: 0.954242 (Simulation time: 1 hr 5 min 17 sec) 
Heartbeat CPU 0 instructions: 1170000000 cycles: 1104501598 heartbeat IPC: 0.931932 cumulative IPC: 0.954007 (Simulation time: 1 hr 5 min 45 sec) 
Heartbeat CPU 0 instructions: 1180000000 cycles: 1115237343 heartbeat IPC: 0.931468 cumulative IPC: 0.953771 (Simulation time: 1 hr 6 min 14 sec) 
Heartbeat CPU 0 instructions: 1190000001 cycles: 1125994370 heartbeat IPC: 0.929625 cumulative IPC: 0.953521 (Simulation time: 1 hr 6 min 43 sec) 
Heartbeat CPU 0 instructions: 1200000000 cycles: 1136728555 heartbeat IPC: 0.931603 cumulative IPC: 0.953297 (Simulation time: 1 hr 7 min 12 sec) 
Finished CPU 0 instructions: 1000000002 cycles: 1048991106 cumulative IPC: 0.953297 (Simulation time: 1 hr 7 min 12 sec) 

CPU 0 Branch Prediction Accuracy: 99.7735% MPKI: 0.205904

ChampSim completed all CPUs

Region of Interest Statistics

CPU 0 cumulative IPC: 0.953297 instructions: 1000000002 cycles: 1048991106
L1D TOTAL     ACCESS:  262338894  HIT:  253320206  MISS:    9018688
L1D LOAD      ACCESS:  221635938  HIT:  212731606  MISS:    8904332
L1D RFO       ACCESS:   40702956  HIT:   40588600  MISS:     114356
L1D PREFETCH  ACCESS:          0  HIT:          0  MISS:          0
L1D WRITEBACK ACCESS:          0  HIT:          0  MISS:          0
L1D PREFETCH  REQUESTED:          0  ISSUED:          0  USEFUL:          0  USELESS:          0
L1I TOTAL     ACCESS:  322623405  HIT:  322622919  MISS:        486
L1I LOAD      ACCESS:  322623405  HIT:  322622919  MISS:        486
L1I RFO       ACCESS:          0  HIT:          0  MISS:          0
L1I PREFETCH  ACCESS:          0  HIT:          0  MISS:          0
L1I WRITEBACK ACCESS:          0  HIT:          0  MISS:          0
L1I PREFETCH  REQUESTED:          0  ISSUED:          0  USEFUL:          0  USELESS:          0
L2C TOTAL     ACCESS:   22488449  HIT:   18860776  MISS:    3627673
L2C LOAD      ACCESS:    8904808  HIT:    8576183  MISS:     328625
L2C RFO       ACCESS:     114356  HIT:       9448  MISS:     104908
L2C PREFETCH  ACCESS:   10438052  HIT:    7244337  MISS:    3193715
L2C WRITEBACK ACCESS:    3031233  HIT:    3030808  MISS:        425
L2C PREFETCH  REQUESTED:   12719219  ISSUED:   12717890  USEFUL:    2741486  USELESS:     600996
LLC TOTAL     ACCESS:    4894928  HIT:    3174334  MISS:    1720594
LLC LOAD      ACCESS:     285529  HIT:     134787  MISS:     150742
LLC RFO       ACCESS:     104907  HIT:        350  MISS:     104557
LLC PREFETCH  ACCESS:    3530313  HIT:    2080231  MISS:    1450082
LLC WRITEBACK ACCESS:     974179  HIT:     958966  MISS:      15213
LLC PREFETCH  REQUESTED:          0  ISSUED:          0  USEFUL:      17667  USELESS:    1573234
Major fault: 0 Minor fault: 26024

Avg Lookahead Depth:	6.22866
TOTAL: 1.27192e+07	L2C: 1.18558e+07	LLC: 863380	GOOD_L2C: 7.91692e+06
Printing all the perceptron weights to: perc_weights_0.csv

DRAM Statistics
 CHANNEL 0
 RQ ROW_BUFFER_HIT:    1433830  ROW_BUFFER_MISS:     263012
 DBUS_CONGESTED:    1132576
 WQ ROW_BUFFER_HIT:     278432  ROW_BUFFER_MISS:     130329  FULL:          0

 AVG_CONGESTED_CYCLE: 13
