
*** ChampSim Multicore Out-of-Order Simulator ***

Warmup Instructions: 200000000
Simulation Instructions: 1000000000
Number of CPUs: 4
LLC sets: 8192
LLC ways: 16
Off-chip DRAM Size: 8192 MB Channels: 2 Width: 64-bit Data Rate: 1600 MT/s

CPU 0 runs /scratch/user/djimenez/champsim-traces/speccpu2017/xz/602.gcc_s/602.gcc_s-2226B.champsimtrace.xz
CPU 1 runs /scratch/user/djimenez/champsim-traces/speccpu2017/xz/621.wrf_s/621.wrf_s-8065B.champsimtrace.xz
CPU 2 runs /scratch/user/djimenez/champsim-traces/speccpu2017/xz/654.roms_s/654.roms_s-523B.champsimtrace.xz
CPU 3 runs /scratch/user/djimenez/champsim-traces/speccpu2017/xz/654.roms_s/654.roms_s-1007B.champsimtrace.xz
Heartbeat CPU 2 instructions: 10000001 cycles: 4526456 heartbeat IPC: 2.20923 cumulative IPC: 2.20923 (Simulation time: 0 hr 1 min 49 sec) 
Heartbeat CPU 1 instructions: 10000003 cycles: 4748259 heartbeat IPC: 2.10604 cumulative IPC: 2.10604 (Simulation time: 0 hr 1 min 55 sec) 
Heartbeat CPU 3 instructions: 10000002 cycles: 5116799 heartbeat IPC: 1.95435 cumulative IPC: 1.95435 (Simulation time: 0 hr 2 min 3 sec) 
Heartbeat CPU 0 instructions: 10000000 cycles: 5295199 heartbeat IPC: 1.8885 cumulative IPC: 1.8885 (Simulation time: 0 hr 2 min 7 sec) 
Heartbeat CPU 2 instructions: 20000000 cycles: 8766140 heartbeat IPC: 2.35867 cumulative IPC: 2.28151 (Simulation time: 0 hr 3 min 30 sec) 
Heartbeat CPU 1 instructions: 20000000 cycles: 9257013 heartbeat IPC: 2.21791 cumulative IPC: 2.16052 (Simulation time: 0 hr 3 min 42 sec) 
Heartbeat CPU 3 instructions: 20000000 cycles: 10232880 heartbeat IPC: 1.95462 cumulative IPC: 1.95448 (Simulation time: 0 hr 4 min 6 sec) 
Heartbeat CPU 0 instructions: 20000000 cycles: 10589521 heartbeat IPC: 1.88882 cumulative IPC: 1.88866 (Simulation time: 0 hr 4 min 15 sec) 
Heartbeat CPU 1 instructions: 30000000 cycles: 13660559 heartbeat IPC: 2.2709 cumulative IPC: 2.1961 (Simulation time: 0 hr 5 min 31 sec) 
Heartbeat CPU 2 instructions: 30000002 cycles: 14408163 heartbeat IPC: 1.77241 cumulative IPC: 2.08215 (Simulation time: 0 hr 5 min 49 sec) 
Heartbeat CPU 3 instructions: 30000000 cycles: 15349362 heartbeat IPC: 1.95447 cumulative IPC: 1.95448 (Simulation time: 0 hr 6 min 12 sec) 
Heartbeat CPU 0 instructions: 30000000 cycles: 15881942 heartbeat IPC: 1.88949 cumulative IPC: 1.88894 (Simulation time: 0 hr 6 min 32 sec) 
Heartbeat CPU 1 instructions: 40000000 cycles: 18310119 heartbeat IPC: 2.15074 cumulative IPC: 2.18458 (Simulation time: 0 hr 7 min 46 sec) 
Heartbeat CPU 2 instructions: 40000000 cycles: 19123836 heartbeat IPC: 2.12059 cumulative IPC: 2.09163 (Simulation time: 0 hr 8 min 6 sec) 
Heartbeat CPU 3 instructions: 40000000 cycles: 20465809 heartbeat IPC: 1.95448 cumulative IPC: 1.95448 (Simulation time: 0 hr 8 min 39 sec) 
Heartbeat CPU 0 instructions: 40000000 cycles: 21172916 heartbeat IPC: 1.89001 cumulative IPC: 1.88921 (Simulation time: 0 hr 8 min 57 sec) 
Heartbeat CPU 1 instructions: 50000003 cycles: 22775851 heartbeat IPC: 2.23928 cumulative IPC: 2.19531 (Simulation time: 0 hr 9 min 38 sec) 
Heartbeat CPU 2 instructions: 50000001 cycles: 24415951 heartbeat IPC: 1.8896 cumulative IPC: 2.04784 (Simulation time: 0 hr 10 min 19 sec) 
Heartbeat CPU 3 instructions: 50000003 cycles: 25414147 heartbeat IPC: 2.02088 cumulative IPC: 1.96741 (Simulation time: 0 hr 10 min 44 sec) 
Heartbeat CPU 0 instructions: 50000003 cycles: 26468207 heartbeat IPC: 1.88847 cumulative IPC: 1.88906 (Simulation time: 0 hr 11 min 11 sec) 
Heartbeat CPU 1 instructions: 60000000 cycles: 27418317 heartbeat IPC: 2.15403 cumulative IPC: 2.18832 (Simulation time: 0 hr 11 min 35 sec) 
Heartbeat CPU 2 instructions: 60000000 cycles: 29638228 heartbeat IPC: 1.91487 cumulative IPC: 2.02441 (Simulation time: 0 hr 12 min 28 sec) 
Heartbeat CPU 3 instructions: 60000000 cycles: 30223081 heartbeat IPC: 2.07946 cumulative IPC: 1.98524 (Simulation time: 0 hr 12 min 43 sec) 
Heartbeat CPU 0 instructions: 60000000 cycles: 31764050 heartbeat IPC: 1.88827 cumulative IPC: 1.88893 (Simulation time: 0 hr 13 min 21 sec) 
Heartbeat CPU 1 instructions: 70000002 cycles: 31848096 heartbeat IPC: 2.25745 cumulative IPC: 2.19793 (Simulation time: 0 hr 13 min 23 sec) 
Heartbeat CPU 2 instructions: 70000002 cycles: 34703037 heartbeat IPC: 1.97441 cumulative IPC: 2.01711 (Simulation time: 0 hr 14 min 34 sec) 
Heartbeat CPU 3 instructions: 70000003 cycles: 35338799 heartbeat IPC: 1.95476 cumulative IPC: 1.98083 (Simulation time: 0 hr 14 min 50 sec) 
Heartbeat CPU 1 instructions: 80000000 cycles: 36525615 heartbeat IPC: 2.13789 cumulative IPC: 2.19024 (Simulation time: 0 hr 15 min 20 sec) 
Heartbeat CPU 0 instructions: 70000000 cycles: 37054322 heartbeat IPC: 1.89026 cumulative IPC: 1.88912 (Simulation time: 0 hr 15 min 33 sec) 
Heartbeat CPU 2 instructions: 80000000 cycles: 39811635 heartbeat IPC: 1.95748 cumulative IPC: 2.00946 (Simulation time: 0 hr 16 min 41 sec) 
Heartbeat CPU 3 instructions: 80000000 cycles: 40455052 heartbeat IPC: 1.95455 cumulative IPC: 1.9775 (Simulation time: 0 hr 16 min 57 sec) 
Heartbeat CPU 1 instructions: 90000000 cycles: 40961976 heartbeat IPC: 2.2541 cumulative IPC: 2.19716 (Simulation time: 0 hr 17 min 10 sec) 
Heartbeat CPU 0 instructions: 80000000 cycles: 42345671 heartbeat IPC: 1.88988 cumulative IPC: 1.88921 (Simulation time: 0 hr 17 min 44 sec) 
Heartbeat CPU 2 instructions: 90000002 cycles: 44342429 heartbeat IPC: 2.20712 cumulative IPC: 2.02966 (Simulation time: 0 hr 18 min 31 sec) 
Heartbeat CPU 3 instructions: 90000003 cycles: 45571354 heartbeat IPC: 1.95454 cumulative IPC: 1.97492 (Simulation time: 0 hr 19 min 0 sec) 
Heartbeat CPU 1 instructions: 100000000 cycles: 45633147 heartbeat IPC: 2.14079 cumulative IPC: 2.19139 (Simulation time: 0 hr 19 min 2 sec) 
Heartbeat CPU 0 instructions: 90000000 cycles: 47640161 heartbeat IPC: 1.88876 cumulative IPC: 1.88916 (Simulation time: 0 hr 19 min 49 sec) 
Heartbeat CPU 2 instructions: 100000000 cycles: 48461889 heartbeat IPC: 2.4275 cumulative IPC: 2.06348 (Simulation time: 0 hr 20 min 10 sec) 
Heartbeat CPU 1 instructions: 110000003 cycles: 50075570 heartbeat IPC: 2.25102 cumulative IPC: 2.19668 (Simulation time: 0 hr 20 min 50 sec) 
Heartbeat CPU 3 instructions: 100000000 cycles: 50687557 heartbeat IPC: 1.95457 cumulative IPC: 1.97287 (Simulation time: 0 hr 21 min 5 sec) 
Heartbeat CPU 0 instructions: 100000000 cycles: 52934252 heartbeat IPC: 1.8889 cumulative IPC: 1.88914 (Simulation time: 0 hr 22 min 0 sec) 
Heartbeat CPU 2 instructions: 110000002 cycles: 54070928 heartbeat IPC: 1.78284 cumulative IPC: 2.03436 (Simulation time: 0 hr 22 min 27 sec) 
Heartbeat CPU 1 instructions: 120000000 cycles: 54809791 heartbeat IPC: 2.11228 cumulative IPC: 2.18939 (Simulation time: 0 hr 22 min 44 sec) 
Heartbeat CPU 3 instructions: 110000002 cycles: 55803889 heartbeat IPC: 1.95453 cumulative IPC: 1.97119 (Simulation time: 0 hr 23 min 8 sec) 
Heartbeat CPU 0 instructions: 110000001 cycles: 58223858 heartbeat IPC: 1.8905 cumulative IPC: 1.88926 (Simulation time: 0 hr 24 min 8 sec) 
Heartbeat CPU 2 instructions: 120000000 cycles: 58816246 heartbeat IPC: 2.10734 cumulative IPC: 2.04025 (Simulation time: 0 hr 24 min 21 sec) 
Heartbeat CPU 1 instructions: 130000001 cycles: 59764725 heartbeat IPC: 2.01819 cumulative IPC: 2.1752 (Simulation time: 0 hr 24 min 44 sec) 
Heartbeat CPU 3 instructions: 120000000 cycles: 60848594 heartbeat IPC: 1.98228 cumulative IPC: 1.97211 (Simulation time: 0 hr 25 min 10 sec) 
Heartbeat CPU 0 instructions: 120000000 cycles: 63524220 heartbeat IPC: 1.88666 cumulative IPC: 1.88904 (Simulation time: 0 hr 26 min 16 sec) 
Heartbeat CPU 2 instructions: 130000001 cycles: 64098295 heartbeat IPC: 1.8932 cumulative IPC: 2.02814 (Simulation time: 0 hr 26 min 29 sec) 
Heartbeat CPU 1 instructions: 140000000 cycles: 64720623 heartbeat IPC: 2.0178 cumulative IPC: 2.16314 (Simulation time: 0 hr 26 min 43 sec) 
Heartbeat CPU 3 instructions: 130000003 cycles: 65543370 heartbeat IPC: 2.13003 cumulative IPC: 1.98342 (Simulation time: 0 hr 27 min 2 sec) 
Heartbeat CPU 0 instructions: 130000000 cycles: 68818807 heartbeat IPC: 1.88872 cumulative IPC: 1.88902 (Simulation time: 0 hr 28 min 16 sec) 
Heartbeat CPU 2 instructions: 140000000 cycles: 69304298 heartbeat IPC: 1.92086 cumulative IPC: 2.02008 (Simulation time: 0 hr 28 min 26 sec) 
Heartbeat CPU 1 instructions: 150000002 cycles: 69784204 heartbeat IPC: 1.97489 cumulative IPC: 2.14948 (Simulation time: 0 hr 28 min 37 sec) 
Heartbeat CPU 3 instructions: 140000000 cycles: 70659345 heartbeat IPC: 1.95466 cumulative IPC: 1.98134 (Simulation time: 0 hr 28 min 57 sec) 
Heartbeat CPU 1 instructions: 160000000 cycles: 74031729 heartbeat IPC: 2.35431 cumulative IPC: 2.16124 (Simulation time: 0 hr 30 min 16 sec) 
Heartbeat CPU 0 instructions: 140000000 cycles: 74111137 heartbeat IPC: 1.88953 cumulative IPC: 1.88905 (Simulation time: 0 hr 30 min 17 sec) 
Heartbeat CPU 2 instructions: 150000003 cycles: 74404446 heartbeat IPC: 1.96073 cumulative IPC: 2.01601 (Simulation time: 0 hr 30 min 24 sec) 
Heartbeat CPU 3 instructions: 150000000 cycles: 75775765 heartbeat IPC: 1.95449 cumulative IPC: 1.97952 (Simulation time: 0 hr 30 min 56 sec) 
Heartbeat CPU 1 instructions: 170000000 cycles: 79053599 heartbeat IPC: 1.99129 cumulative IPC: 2.15044 (Simulation time: 0 hr 32 min 11 sec) 
Heartbeat CPU 0 instructions: 150000000 cycles: 79402409 heartbeat IPC: 1.8899 cumulative IPC: 1.88911 (Simulation time: 0 hr 32 min 19 sec) 
Heartbeat CPU 2 instructions: 160000000 cycles: 79496455 heartbeat IPC: 1.96386 cumulative IPC: 2.01267 (Simulation time: 0 hr 32 min 21 sec) 
Heartbeat CPU 3 instructions: 160000000 cycles: 80892060 heartbeat IPC: 1.95454 cumulative IPC: 1.97794 (Simulation time: 0 hr 32 min 53 sec) 
Heartbeat CPU 1 instructions: 180000000 cycles: 83945170 heartbeat IPC: 2.04433 cumulative IPC: 2.14426 (Simulation time: 0 hr 34 min 0 sec) 
Heartbeat CPU 2 instructions: 170000001 cycles: 84077566 heartbeat IPC: 2.18288 cumulative IPC: 2.02194 (Simulation time: 0 hr 34 min 3 sec) 
Heartbeat CPU 0 instructions: 160000000 cycles: 84695323 heartbeat IPC: 1.88932 cumulative IPC: 1.88912 (Simulation time: 0 hr 34 min 17 sec) 
Heartbeat CPU 3 instructions: 170000000 cycles: 86008177 heartbeat IPC: 1.95461 cumulative IPC: 1.97656 (Simulation time: 0 hr 34 min 45 sec) 
Heartbeat CPU 2 instructions: 180000000 cycles: 88176070 heartbeat IPC: 2.43991 cumulative IPC: 2.04137 (Simulation time: 0 hr 35 min 34 sec) 
Heartbeat CPU 1 instructions: 190000003 cycles: 88820828 heartbeat IPC: 2.05101 cumulative IPC: 2.13914 (Simulation time: 0 hr 35 min 48 sec) 
Heartbeat CPU 0 instructions: 170000000 cycles: 89989036 heartbeat IPC: 1.88903 cumulative IPC: 1.88912 (Simulation time: 0 hr 36 min 15 sec) 
Heartbeat CPU 3 instructions: 180000000 cycles: 91124496 heartbeat IPC: 1.95453 cumulative IPC: 1.97532 (Simulation time: 0 hr 36 min 41 sec) 
Heartbeat CPU 1 instructions: 200000000 cycles: 93710198 heartbeat IPC: 2.04525 cumulative IPC: 2.13424 (Simulation time: 0 hr 37 min 40 sec) 
Heartbeat CPU 2 instructions: 190000001 cycles: 93792651 heartbeat IPC: 1.78044 cumulative IPC: 2.02575 (Simulation time: 0 hr 37 min 42 sec) 
Heartbeat CPU 0 instructions: 180000000 cycles: 95278515 heartbeat IPC: 1.89055 cumulative IPC: 1.8892 (Simulation time: 0 hr 38 min 16 sec) 
Heartbeat CPU 3 instructions: 190000000 cycles: 96240876 heartbeat IPC: 1.95451 cumulative IPC: 1.97421 (Simulation time: 0 hr 38 min 38 sec) 
Heartbeat CPU 1 instructions: 210000003 cycles: 98326248 heartbeat IPC: 2.16635 cumulative IPC: 0.101702 (Simulation time: 0 hr 39 min 27 sec) 
Heartbeat CPU 2 instructions: 200000000 cycles: 98578503 heartbeat IPC: 2.08949 cumulative IPC: 2.02884 (Simulation time: 0 hr 39 min 33 sec) 
Heartbeat CPU 0 instructions: 190000001 cycles: 100576495 heartbeat IPC: 1.88751 cumulative IPC: 1.88911 (Simulation time: 0 hr 40 min 20 sec) 
Heartbeat CPU 3 instructions: 200000000 cycles: 101098032 heartbeat IPC: 2.05882 cumulative IPC: 1.97828 (Simulation time: 0 hr 40 min 32 sec) 
Heartbeat CPU 1 instructions: 220000000 cycles: 103017201 heartbeat IPC: 2.13176 cumulative IPC: 0.194142 (Simulation time: 0 hr 41 min 17 sec) 
Heartbeat CPU 2 instructions: 210000000 cycles: 103835305 heartbeat IPC: 1.9023 cumulative IPC: 0.0963064 (Simulation time: 0 hr 41 min 36 sec) 
Heartbeat CPU 0 instructions: 200000000 cycles: 105871344 heartbeat IPC: 1.88863 cumulative IPC: 1.88909 (Simulation time: 0 hr 42 min 23 sec) 

Warmup complete CPU 0 instructions: 200000001 cycles: 105871347 (Simulation time: 0 hr 42 min 23 sec) 
Warmup complete CPU 1 instructions: 226368276 cycles: 105871346 (Simulation time: 0 hr 42 min 23 sec) 
Warmup complete CPU 2 instructions: 214317572 cycles: 105871346 (Simulation time: 0 hr 42 min 23 sec) 
Warmup complete CPU 3 instructions: 209784097 cycles: 105871346 (Simulation time: 0 hr 42 min 23 sec) 

Heartbeat CPU 3 instructions: 210000000 cycles: 106275172 heartbeat IPC: 1.93157 cumulative IPC: 0.534644 (Simulation time: 0 hr 42 min 26 sec) 
Heartbeat CPU 1 instructions: 230000000 cycles: 113289752 heartbeat IPC: 0.973468 cumulative IPC: 0.489556 (Simulation time: 0 hr 43 min 15 sec) 
Heartbeat CPU 2 instructions: 220000000 cycles: 117397125 heartbeat IPC: 0.737364 cumulative IPC: 0.493019 (Simulation time: 0 hr 43 min 48 sec) 
Heartbeat CPU 3 instructions: 220000000 cycles: 124970117 heartbeat IPC: 0.534904 cumulative IPC: 0.534898 (Simulation time: 0 hr 44 min 44 sec) 
Heartbeat CPU 1 instructions: 240000000 cycles: 135157801 heartbeat IPC: 0.457288 cumulative IPC: 0.465462 (Simulation time: 0 hr 45 min 53 sec) 
Heartbeat CPU 2 instructions: 230000003 cycles: 138677762 heartbeat IPC: 0.469911 cumulative IPC: 0.478029 (Simulation time: 0 hr 46 min 16 sec) 
Heartbeat CPU 3 instructions: 230000003 cycles: 143699436 heartbeat IPC: 0.533922 cumulative IPC: 0.534415 (Simulation time: 0 hr 46 min 55 sec) 
Heartbeat CPU 1 instructions: 250000001 cycles: 154245855 heartbeat IPC: 0.523888 cumulative IPC: 0.488516 (Simulation time: 0 hr 48 min 16 sec) 
Heartbeat CPU 2 instructions: 240000000 cycles: 161005940 heartbeat IPC: 0.447864 cumulative IPC: 0.465813 (Simulation time: 0 hr 49 min 6 sec) 
Heartbeat CPU 3 instructions: 240000000 cycles: 162351312 heartbeat IPC: 0.536139 cumulative IPC: 0.534984 (Simulation time: 0 hr 49 min 16 sec) 
Heartbeat CPU 1 instructions: 260000000 cycles: 173808187 heartbeat IPC: 0.511186 cumulative IPC: 0.495044 (Simulation time: 0 hr 50 min 35 sec) 
Heartbeat CPU 3 instructions: 250000001 cycles: 181159353 heartbeat IPC: 0.531688 cumulative IPC: 0.534161 (Simulation time: 0 hr 51 min 26 sec) 
Heartbeat CPU 2 instructions: 250000000 cycles: 181609106 heartbeat IPC: 0.485362 cumulative IPC: 0.471131 (Simulation time: 0 hr 51 min 29 sec) 
Heartbeat CPU 1 instructions: 270000000 cycles: 194384432 heartbeat IPC: 0.485997 cumulative IPC: 0.492941 (Simulation time: 0 hr 52 min 57 sec) 
Heartbeat CPU 3 instructions: 260000000 cycles: 199794149 heartbeat IPC: 0.53663 cumulative IPC: 0.534651 (Simulation time: 0 hr 53 min 33 sec) 
Heartbeat CPU 2 instructions: 260000000 cycles: 201684197 heartbeat IPC: 0.49813 cumulative IPC: 0.476788 (Simulation time: 0 hr 53 min 44 sec) 
Heartbeat CPU 1 instructions: 280000000 cycles: 219617108 heartbeat IPC: 0.396312 cumulative IPC: 0.471505 (Simulation time: 0 hr 55 min 25 sec) 
Heartbeat CPU 3 instructions: 270000000 cycles: 228768534 heartbeat IPC: 0.345132 cumulative IPC: 0.48997 (Simulation time: 0 hr 56 min 16 sec) 
Heartbeat CPU 2 instructions: 270000000 cycles: 241124134 heartbeat IPC: 0.25355 cumulative IPC: 0.411692 (Simulation time: 0 hr 57 min 32 sec) 
Heartbeat CPU 1 instructions: 290000002 cycles: 241903881 heartbeat IPC: 0.448697 cumulative IPC: 0.467768 (Simulation time: 0 hr 57 min 36 sec) 
Heartbeat CPU 3 instructions: 280000000 cycles: 258328847 heartbeat IPC: 0.338291 cumulative IPC: 0.460561 (Simulation time: 0 hr 59 min 14 sec) 
Heartbeat CPU 0 instructions: 210000002 cycles: 261707573 heartbeat IPC: 0.0641699 cumulative IPC: 0.0641699 (Simulation time: 0 hr 59 min 38 sec) 
Heartbeat CPU 1 instructions: 300000000 cycles: 262705699 heartbeat IPC: 0.480727 cumulative IPC: 0.469487 (Simulation time: 0 hr 59 min 44 sec) 
Heartbeat CPU 2 instructions: 280000000 cycles: 275708458 heartbeat IPC: 0.289148 cumulative IPC: 0.386738 (Simulation time: 1 hr 1 min 9 sec) 
Heartbeat CPU 3 instructions: 290000000 cycles: 277150970 heartbeat IPC: 0.53129 cumulative IPC: 0.468333 (Simulation time: 1 hr 1 min 21 sec) 
Heartbeat CPU 1 instructions: 310000003 cycles: 286658851 heartbeat IPC: 0.417482 cumulative IPC: 0.462597 (Simulation time: 1 hr 3 min 30 sec) 
Heartbeat CPU 3 instructions: 300000000 cycles: 295984849 heartbeat IPC: 0.530958 cumulative IPC: 0.474537 (Simulation time: 1 hr 5 min 27 sec) 
Heartbeat CPU 2 instructions: 290000002 cycles: 302407548 heartbeat IPC: 0.374545 cumulative IPC: 0.385081 (Simulation time: 1 hr 6 min 24 sec) 
Heartbeat CPU 1 instructions: 320000000 cycles: 306127643 heartbeat IPC: 0.513642 cumulative IPC: 0.467559 (Simulation time: 1 hr 6 min 55 sec) 
Heartbeat CPU 3 instructions: 310000000 cycles: 314714544 heartbeat IPC: 0.533912 cumulative IPC: 0.479862 (Simulation time: 1 hr 7 min 56 sec) 
Heartbeat CPU 2 instructions: 300000000 cycles: 325309717 heartbeat IPC: 0.43664 cumulative IPC: 0.390462 (Simulation time: 1 hr 9 min 13 sec) 
Heartbeat CPU 1 instructions: 330000001 cycles: 328046465 heartbeat IPC: 0.456229 cumulative IPC: 0.466442 (Simulation time: 1 hr 9 min 54 sec) 
Heartbeat CPU 3 instructions: 320000000 cycles: 333510247 heartbeat IPC: 0.532036 cumulative IPC: 0.48417 (Simulation time: 1 hr 11 min 19 sec) 
Heartbeat CPU 2 instructions: 310000003 cycles: 347654043 heartbeat IPC: 0.447541 cumulative IPC: 0.395737 (Simulation time: 1 hr 13 min 39 sec) 
Heartbeat CPU 3 instructions: 330000001 cycles: 352437557 heartbeat IPC: 0.528337 cumulative IPC: 0.48756 (Simulation time: 1 hr 14 min 8 sec) 
Heartbeat CPU 1 instructions: 340000000 cycles: 355594521 heartbeat IPC: 0.363002 cumulative IPC: 0.455031 (Simulation time: 1 hr 14 min 31 sec) 
Heartbeat CPU 1 instructions: 350000002 cycles: 366201406 heartbeat IPC: 0.942784 cumulative IPC: 0.474904 (Simulation time: 1 hr 15 min 58 sec) 
Heartbeat CPU 3 instructions: 340000000 cycles: 372955691 heartbeat IPC: 0.487374 cumulative IPC: 0.487546 (Simulation time: 1 hr 16 min 46 sec) 
Heartbeat CPU 2 instructions: 320000000 cycles: 373262049 heartbeat IPC: 0.390503 cumulative IPC: 0.395236 (Simulation time: 1 hr 16 min 48 sec) 
Heartbeat CPU 1 instructions: 360000000 cycles: 379821268 heartbeat IPC: 0.734222 cumulative IPC: 0.487796 (Simulation time: 1 hr 17 min 30 sec) 
Heartbeat CPU 1 instructions: 370000003 cycles: 394179252 heartbeat IPC: 0.696477 cumulative IPC: 0.498189 (Simulation time: 1 hr 19 min 0 sec) 
Heartbeat CPU 2 instructions: 330000002 cycles: 396000867 heartbeat IPC: 0.439777 cumulative IPC: 0.398727 (Simulation time: 1 hr 19 min 11 sec) 
Heartbeat CPU 3 instructions: 350000003 cycles: 406500081 heartbeat IPC: 0.298113 cumulative IPC: 0.466409 (Simulation time: 1 hr 20 min 18 sec) 
Heartbeat CPU 1 instructions: 380000000 cycles: 408342535 heartbeat IPC: 0.706051 cumulative IPC: 0.507922 (Simulation time: 1 hr 20 min 31 sec) 
Heartbeat CPU 2 instructions: 340000000 cycles: 416541903 heartbeat IPC: 0.48683 cumulative IPC: 0.404552 (Simulation time: 1 hr 21 min 34 sec) 
Heartbeat CPU 0 instructions: 220000000 cycles: 419602983 heartbeat IPC: 0.063333 cumulative IPC: 0.0637487 (Simulation time: 1 hr 21 min 54 sec) 
Heartbeat CPU 1 instructions: 390000001 cycles: 420585033 heartbeat IPC: 0.816827 cumulative IPC: 0.519938 (Simulation time: 1 hr 22 min 1 sec) 
Heartbeat CPU 3 instructions: 360000000 cycles: 429900770 heartbeat IPC: 0.427338 cumulative IPC: 0.463587 (Simulation time: 1 hr 23 min 9 sec) 
Heartbeat CPU 1 instructions: 400000000 cycles: 431254945 heartbeat IPC: 0.937215 cumulative IPC: 0.533622 (Simulation time: 1 hr 23 min 19 sec) 
Heartbeat CPU 1 instructions: 410000000 cycles: 444042085 heartbeat IPC: 0.782036 cumulative IPC: 0.543015 (Simulation time: 1 hr 24 min 51 sec) 
Heartbeat CPU 2 instructions: 350000001 cycles: 451237606 heartbeat IPC: 0.28822 cumulative IPC: 0.392865 (Simulation time: 1 hr 25 min 44 sec) 
Heartbeat CPU 3 instructions: 370000002 cycles: 453328259 heartbeat IPC: 0.426849 cumulative IPC: 0.46111 (Simulation time: 1 hr 26 min 0 sec) 
Heartbeat CPU 1 instructions: 420000000 cycles: 454970794 heartbeat IPC: 0.915021 cumulative IPC: 0.554661 (Simulation time: 1 hr 26 min 12 sec) 
Heartbeat CPU 1 instructions: 430000001 cycles: 471173522 heartbeat IPC: 0.61718 cumulative IPC: 0.557434 (Simulation time: 1 hr 28 min 0 sec) 
Heartbeat CPU 3 instructions: 380000000 cycles: 476682007 heartbeat IPC: 0.428197 cumulative IPC: 0.459037 (Simulation time: 1 hr 28 min 38 sec) 
Heartbeat CPU 2 instructions: 360000000 cycles: 482550013 heartbeat IPC: 0.319362 cumulative IPC: 0.386755 (Simulation time: 1 hr 29 min 20 sec) 
Heartbeat CPU 1 instructions: 440000000 cycles: 486726781 heartbeat IPC: 0.642952 cumulative IPC: 0.560926 (Simulation time: 1 hr 29 min 49 sec) 
Heartbeat CPU 1 instructions: 450000000 cycles: 502292089 heartbeat IPC: 0.642454 cumulative IPC: 0.564127 (Simulation time: 1 hr 31 min 35 sec) 
Heartbeat CPU 3 instructions: 390000002 cycles: 502937824 heartbeat IPC: 0.380868 cumulative IPC: 0.453868 (Simulation time: 1 hr 31 min 39 sec) 
Heartbeat CPU 2 instructions: 370000000 cycles: 507509335 heartbeat IPC: 0.400652 cumulative IPC: 0.387619 (Simulation time: 1 hr 32 min 9 sec) 
Heartbeat CPU 1 instructions: 460000000 cycles: 519870464 heartbeat IPC: 0.568881 cumulative IPC: 0.564329 (Simulation time: 1 hr 33 min 24 sec) 
Heartbeat CPU 3 instructions: 400000000 cycles: 531241783 heartbeat IPC: 0.353307 cumulative IPC: 0.447177 (Simulation time: 1 hr 34 min 38 sec) 
Heartbeat CPU 2 instructions: 380000000 cycles: 532839259 heartbeat IPC: 0.39479 cumulative IPC: 0.388044 (Simulation time: 1 hr 34 min 50 sec) 
Heartbeat CPU 1 instructions: 470000000 cycles: 540499602 heartbeat IPC: 0.484751 cumulative IPC: 0.560552 (Simulation time: 1 hr 35 min 46 sec) 
Heartbeat CPU 3 instructions: 410000000 cycles: 548196768 heartbeat IPC: 0.589797 cumulative IPC: 0.452644 (Simulation time: 1 hr 36 min 41 sec) 
Heartbeat CPU 2 instructions: 390000003 cycles: 557375058 heartbeat IPC: 0.407568 cumulative IPC: 0.389105 (Simulation time: 1 hr 37 min 47 sec) 
Heartbeat CPU 1 instructions: 480000000 cycles: 557442000 heartbeat IPC: 0.590235 cumulative IPC: 0.561666 (Simulation time: 1 hr 37 min 48 sec) 
Heartbeat CPU 3 instructions: 420000000 cycles: 565587872 heartbeat IPC: 0.575007 cumulative IPC: 0.457273 (Simulation time: 1 hr 38 min 53 sec) 
Heartbeat CPU 1 instructions: 490000000 cycles: 570410608 heartbeat IPC: 0.771093 cumulative IPC: 0.567512 (Simulation time: 1 hr 39 min 32 sec) 
Heartbeat CPU 0 instructions: 230000000 cycles: 572000501 heartbeat IPC: 0.0656179 cumulative IPC: 0.0643598 (Simulation time: 1 hr 39 min 46 sec) 
Heartbeat CPU 3 instructions: 430000000 cycles: 581394513 heartbeat IPC: 0.632645 cumulative IPC: 0.463102 (Simulation time: 1 hr 41 min 3 sec) 
Heartbeat CPU 2 instructions: 400000000 cycles: 581498067 heartbeat IPC: 0.414542 cumulative IPC: 0.390395 (Simulation time: 1 hr 41 min 4 sec) 
Heartbeat CPU 1 instructions: 500000000 cycles: 582466294 heartbeat IPC: 0.829484 cumulative IPC: 0.574139 (Simulation time: 1 hr 41 min 12 sec) 
Heartbeat CPU 1 instructions: 510000000 cycles: 596242513 heartbeat IPC: 0.725889 cumulative IPC: 0.578402 (Simulation time: 1 hr 43 min 3 sec) 
Heartbeat CPU 3 instructions: 440000000 cycles: 598433076 heartbeat IPC: 0.586904 cumulative IPC: 0.467385 (Simulation time: 1 hr 43 min 20 sec) 
Heartbeat CPU 2 instructions: 410000002 cycles: 602421988 heartbeat IPC: 0.477922 cumulative IPC: 0.394084 (Simulation time: 1 hr 43 min 54 sec) 
Heartbeat CPU 1 instructions: 520000000 cycles: 607930287 heartbeat IPC: 0.855595 cumulative IPC: 0.584855 (Simulation time: 1 hr 44 min 39 sec) 
Heartbeat CPU 3 instructions: 450000001 cycles: 613833000 heartbeat IPC: 0.649354 cumulative IPC: 0.472902 (Simulation time: 1 hr 45 min 28 sec) 
Heartbeat CPU 1 instructions: 530000003 cycles: 619631113 heartbeat IPC: 0.854641 cumulative IPC: 0.590999 (Simulation time: 1 hr 46 min 16 sec) 
Heartbeat CPU 2 instructions: 420000000 cycles: 622329972 heartbeat IPC: 0.502311 cumulative IPC: 0.398255 (Simulation time: 1 hr 46 min 39 sec) 
Heartbeat CPU 3 instructions: 460000000 cycles: 629717580 heartbeat IPC: 0.629541 cumulative IPC: 0.477651 (Simulation time: 1 hr 47 min 32 sec) 
Heartbeat CPU 1 instructions: 540000000 cycles: 635596261 heartbeat IPC: 0.626364 cumulative IPC: 0.592065 (Simulation time: 1 hr 48 min 13 sec) 
Heartbeat CPU 3 instructions: 470000000 cycles: 646903802 heartbeat IPC: 0.581861 cumulative IPC: 0.480962 (Simulation time: 1 hr 49 min 32 sec) 
Heartbeat CPU 2 instructions: 430000001 cycles: 654830064 heartbeat IPC: 0.307691 cumulative IPC: 0.392894 (Simulation time: 1 hr 50 min 23 sec) 
Heartbeat CPU 1 instructions: 550000000 cycles: 659228803 heartbeat IPC: 0.423145 cumulative IPC: 0.584851 (Simulation time: 1 hr 50 min 51 sec) 
Heartbeat CPU 3 instructions: 480000000 cycles: 664019559 heartbeat IPC: 0.584257 cumulative IPC: 0.484129 (Simulation time: 1 hr 51 min 24 sec) 
Heartbeat CPU 1 instructions: 560000000 cycles: 678028849 heartbeat IPC: 0.531914 cumulative IPC: 0.583112 (Simulation time: 1 hr 53 min 7 sec) 
Heartbeat CPU 3 instructions: 490000003 cycles: 680072793 heartbeat IPC: 0.622928 cumulative IPC: 0.48801 (Simulation time: 1 hr 53 min 20 sec) 
Heartbeat CPU 2 instructions: 440000000 cycles: 687794114 heartbeat IPC: 0.303361 cumulative IPC: 0.387822 (Simulation time: 1 hr 54 min 13 sec) 
Heartbeat CPU 3 instructions: 500000000 cycles: 697109714 heartbeat IPC: 0.58696 cumulative IPC: 0.490861 (Simulation time: 1 hr 55 min 16 sec) 
Heartbeat CPU 1 instructions: 570000002 cycles: 699359590 heartbeat IPC: 0.468807 cumulative IPC: 0.579003 (Simulation time: 1 hr 55 min 33 sec) 
Heartbeat CPU 2 instructions: 450000000 cycles: 713335072 heartbeat IPC: 0.391528 cumulative IPC: 0.387978 (Simulation time: 1 hr 57 min 12 sec) 
Heartbeat CPU 3 instructions: 510000000 cycles: 713645056 heartbeat IPC: 0.604765 cumulative IPC: 0.49396 (Simulation time: 1 hr 57 min 14 sec) 
Heartbeat CPU 0 instructions: 240000000 cycles: 717780240 heartbeat IPC: 0.0685966 cumulative IPC: 0.0653692 (Simulation time: 1 hr 57 min 43 sec) 
Heartbeat CPU 1 instructions: 580000000 cycles: 720345471 heartbeat IPC: 0.476511 cumulative IPC: 0.575503 (Simulation time: 1 hr 58 min 2 sec) 
Heartbeat CPU 3 instructions: 520000000 cycles: 731274346 heartbeat IPC: 0.567238 cumulative IPC: 0.496026 (Simulation time: 1 hr 59 min 12 sec) 
Heartbeat CPU 2 instructions: 460000000 cycles: 739816298 heartbeat IPC: 0.377626 cumulative IPC: 0.387545 (Simulation time: 2 hr 0 min 6 sec) 
Heartbeat CPU 1 instructions: 590000000 cycles: 745639006 heartbeat IPC: 0.395358 cumulative IPC: 0.568381 (Simulation time: 2 hr 0 min 50 sec) 
Heartbeat CPU 3 instructions: 530000000 cycles: 750762786 heartbeat IPC: 0.513125 cumulative IPC: 0.496542 (Simulation time: 2 hr 1 min 25 sec) 
Heartbeat CPU 2 instructions: 470000003 cycles: 765767683 heartbeat IPC: 0.385336 cumulative IPC: 0.387458 (Simulation time: 2 hr 3 min 10 sec) 
Heartbeat CPU 1 instructions: 600000000 cycles: 767184278 heartbeat IPC: 0.464139 cumulative IPC: 0.564985 (Simulation time: 2 hr 3 min 19 sec) 
Heartbeat CPU 3 instructions: 540000000 cycles: 767933099 heartbeat IPC: 0.582401 cumulative IPC: 0.498769 (Simulation time: 2 hr 3 min 24 sec) 
Heartbeat CPU 3 instructions: 550000002 cycles: 784990708 heartbeat IPC: 0.586249 cumulative IPC: 0.500966 (Simulation time: 2 hr 5 min 29 sec) 
Heartbeat CPU 1 instructions: 610000002 cycles: 787612851 heartbeat IPC: 0.489511 cumulative IPC: 0.562723 (Simulation time: 2 hr 5 min 48 sec) 
Heartbeat CPU 2 instructions: 480000000 cycles: 790104780 heartbeat IPC: 0.410895 cumulative IPC: 0.388292 (Simulation time: 2 hr 6 min 6 sec) 
Heartbeat CPU 3 instructions: 560000000 cycles: 802786184 heartbeat IPC: 0.56194 cumulative IPC: 0.502523 (Simulation time: 2 hr 7 min 35 sec) 
Heartbeat CPU 1 instructions: 620000000 cycles: 811585263 heartbeat IPC: 0.417146 cumulative IPC: 0.557778 (Simulation time: 2 hr 8 min 34 sec) 
Heartbeat CPU 2 instructions: 490000003 cycles: 812859388 heartbeat IPC: 0.439472 cumulative IPC: 0.389939 (Simulation time: 2 hr 8 min 42 sec) 
Heartbeat CPU 3 instructions: 570000000 cycles: 820442195 heartbeat IPC: 0.566379 cumulative IPC: 0.504101 (Simulation time: 2 hr 9 min 37 sec) 
Heartbeat CPU 1 instructions: 630000003 cycles: 830990667 heartbeat IPC: 0.515321 cumulative IPC: 0.556642 (Simulation time: 2 hr 10 min 56 sec) 
Heartbeat CPU 2 instructions: 500000000 cycles: 833362260 heartbeat IPC: 0.487736 cumulative IPC: 0.392696 (Simulation time: 2 hr 11 min 13 sec) 
Heartbeat CPU 3 instructions: 580000000 cycles: 837466161 heartbeat IPC: 0.587407 cumulative IPC: 0.50604 (Simulation time: 2 hr 11 min 39 sec) 
Heartbeat CPU 1 instructions: 640000000 cycles: 852826375 heartbeat IPC: 0.457965 cumulative IPC: 0.553757 (Simulation time: 2 hr 13 min 22 sec) 
Heartbeat CPU 3 instructions: 590000002 cycles: 854588815 heartbeat IPC: 0.584022 cumulative IPC: 0.507823 (Simulation time: 2 hr 13 min 35 sec) 
Heartbeat CPU 2 instructions: 510000002 cycles: 867879887 heartbeat IPC: 0.289707 cumulative IPC: 0.38803 (Simulation time: 2 hr 15 min 2 sec) 
Heartbeat CPU 3 instructions: 600000000 cycles: 872628829 heartbeat IPC: 0.554323 cumulative IPC: 0.508917 (Simulation time: 2 hr 15 min 40 sec) 
Heartbeat CPU 1 instructions: 650000000 cycles: 877318683 heartbeat IPC: 0.408291 cumulative IPC: 0.549139 (Simulation time: 2 hr 16 min 18 sec) 
Heartbeat CPU 0 instructions: 250000003 cycles: 877420931 heartbeat IPC: 0.0626407 cumulative IPC: 0.0648047 (Simulation time: 2 hr 16 min 18 sec) 
Heartbeat CPU 3 instructions: 610000002 cycles: 889326418 heartbeat IPC: 0.598889 cumulative IPC: 0.510835 (Simulation time: 2 hr 18 min 58 sec) 
Heartbeat CPU 1 instructions: 660000000 cycles: 898034098 heartbeat IPC: 0.482732 cumulative IPC: 0.547402 (Simulation time: 2 hr 20 min 55 sec) 
Heartbeat CPU 2 instructions: 520000000 cycles: 903158787 heartbeat IPC: 0.283455 cumulative IPC: 0.383403 (Simulation time: 2 hr 21 min 48 sec) 
Heartbeat CPU 3 instructions: 620000000 cycles: 905983748 heartbeat IPC: 0.600336 cumulative IPC: 0.512698 (Simulation time: 2 hr 22 min 8 sec) 
Heartbeat CPU 1 instructions: 670000001 cycles: 923046512 heartbeat IPC: 0.399802 cumulative IPC: 0.542884 (Simulation time: 2 hr 24 min 4 sec) 
Heartbeat CPU 3 instructions: 630000000 cycles: 923093921 heartbeat IPC: 0.584448 cumulative IPC: 0.5142 (Simulation time: 2 hr 24 min 5 sec) 
Heartbeat CPU 2 instructions: 530000000 cycles: 928901878 heartbeat IPC: 0.388454 cumulative IPC: 0.383561 (Simulation time: 2 hr 24 min 46 sec) 
Heartbeat CPU 3 instructions: 640000000 cycles: 939823842 heartbeat IPC: 0.597731 cumulative IPC: 0.515876 (Simulation time: 2 hr 26 min 5 sec) 
Heartbeat CPU 1 instructions: 680000000 cycles: 944056006 heartbeat IPC: 0.475975 cumulative IPC: 0.541207 (Simulation time: 2 hr 26 min 34 sec) 
Heartbeat CPU 2 instructions: 540000000 cycles: 952019693 heartbeat IPC: 0.432567 cumulative IPC: 0.3849 (Simulation time: 2 hr 27 min 41 sec) 
Heartbeat CPU 3 instructions: 650000000 cycles: 956239419 heartbeat IPC: 0.609177 cumulative IPC: 0.517677 (Simulation time: 2 hr 28 min 15 sec) 
Heartbeat CPU 1 instructions: 690000000 cycles: 964756272 heartbeat IPC: 0.483086 cumulative IPC: 0.539807 (Simulation time: 2 hr 29 min 25 sec) 
Heartbeat CPU 3 instructions: 660000000 cycles: 972229434 heartbeat IPC: 0.62539 cumulative IPC: 0.519665 (Simulation time: 2 hr 30 min 20 sec) 
Heartbeat CPU 2 instructions: 550000003 cycles: 973531614 heartbeat IPC: 0.464859 cumulative IPC: 0.386882 (Simulation time: 2 hr 30 min 29 sec) 
Heartbeat CPU 3 instructions: 670000000 cycles: 988719621 heartbeat IPC: 0.606421 cumulative IPC: 0.521285 (Simulation time: 2 hr 32 min 19 sec) 
Heartbeat CPU 1 instructions: 700000000 cycles: 991943554 heartbeat IPC: 0.367819 cumulative IPC: 0.53453 (Simulation time: 2 hr 32 min 40 sec) 
Heartbeat CPU 2 instructions: 560000000 cycles: 998923651 heartbeat IPC: 0.393824 cumulative IPC: 0.38708 (Simulation time: 2 hr 33 min 32 sec) 
Heartbeat CPU 3 instructions: 680000000 cycles: 1006285779 heartbeat IPC: 0.569276 cumulative IPC: 0.522222 (Simulation time: 2 hr 34 min 25 sec) 
Heartbeat CPU 1 instructions: 710000001 cycles: 1014891719 heartbeat IPC: 0.435765 cumulative IPC: 0.532036 (Simulation time: 2 hr 35 min 37 sec) 
Heartbeat CPU 2 instructions: 570000000 cycles: 1021858465 heartbeat IPC: 0.436018 cumulative IPC: 0.388305 (Simulation time: 2 hr 36 min 41 sec) 
Heartbeat CPU 3 instructions: 690000002 cycles: 1023559634 heartbeat IPC: 0.57891 cumulative IPC: 0.523289 (Simulation time: 2 hr 36 min 58 sec) 
Heartbeat CPU 1 instructions: 720000000 cycles: 1027158624 heartbeat IPC: 0.815201 cumulative IPC: 0.535807 (Simulation time: 2 hr 37 min 29 sec) 
Heartbeat CPU 0 instructions: 260000000 cycles: 1037320421 heartbeat IPC: 0.0625393 cumulative IPC: 0.0644158 (Simulation time: 2 hr 39 min 0 sec) 
Heartbeat CPU 3 instructions: 700000000 cycles: 1039109491 heartbeat IPC: 0.643093 cumulative IPC: 0.525285 (Simulation time: 2 hr 39 min 16 sec) 
Heartbeat CPU 2 instructions: 580000000 cycles: 1039654492 heartbeat IPC: 0.561923 cumulative IPC: 0.391614 (Simulation time: 2 hr 39 min 20 sec) 
Heartbeat CPU 1 instructions: 730000002 cycles: 1041219482 heartbeat IPC: 0.711194 cumulative IPC: 0.538443 (Simulation time: 2 hr 39 min 32 sec) 
Heartbeat CPU 3 instructions: 710000001 cycles: 1055289274 heartbeat IPC: 0.618055 cumulative IPC: 0.526866 (Simulation time: 2 hr 41 min 24 sec) 
Heartbeat CPU 1 instructions: 740000000 cycles: 1057669687 heartbeat IPC: 0.607895 cumulative IPC: 0.539643 (Simulation time: 2 hr 41 min 40 sec) 
Heartbeat CPU 3 instructions: 720000000 cycles: 1072632693 heartbeat IPC: 0.576587 cumulative IPC: 0.527758 (Simulation time: 2 hr 43 min 25 sec) 
Heartbeat CPU 2 instructions: 590000003 cycles: 1074145027 heartbeat IPC: 0.289935 cumulative IPC: 0.387992 (Simulation time: 2 hr 43 min 37 sec) 
Heartbeat CPU 1 instructions: 750000001 cycles: 1074630491 heartbeat IPC: 0.589595 cumulative IPC: 0.540518 (Simulation time: 2 hr 43 min 40 sec) 
Heartbeat CPU 1 instructions: 760000000 cycles: 1086999152 heartbeat IPC: 0.808495 cumulative IPC: 0.543896 (Simulation time: 2 hr 45 min 15 sec) 
Heartbeat CPU 3 instructions: 730000002 cycles: 1088552672 heartbeat IPC: 0.628142 cumulative IPC: 0.529384 (Simulation time: 2 hr 45 min 27 sec) 
Heartbeat CPU 1 instructions: 770000001 cycles: 1101253224 heartbeat IPC: 0.701554 cumulative IPC: 0.546154 (Simulation time: 2 hr 47 min 2 sec) 
Heartbeat CPU 3 instructions: 740000000 cycles: 1104428971 heartbeat IPC: 0.62987 cumulative IPC: 0.530982 (Simulation time: 2 hr 47 min 25 sec) 
Heartbeat CPU 2 instructions: 600000000 cycles: 1108192126 heartbeat IPC: 0.293711 cumulative IPC: 0.384789 (Simulation time: 2 hr 47 min 52 sec) 
Heartbeat CPU 1 instructions: 780000000 cycles: 1119664747 heartbeat IPC: 0.543138 cumulative IPC: 0.546099 (Simulation time: 2 hr 49 min 8 sec) 
Heartbeat CPU 3 instructions: 750000003 cycles: 1120942461 heartbeat IPC: 0.605566 cumulative IPC: 0.532195 (Simulation time: 2 hr 49 min 17 sec) 
Heartbeat CPU 2 instructions: 610000003 cycles: 1134413637 heartbeat IPC: 0.381366 cumulative IPC: 0.384702 (Simulation time: 2 hr 50 min 55 sec) 
Heartbeat CPU 1 instructions: 790000000 cycles: 1136715529 heartbeat IPC: 0.586483 cumulative IPC: 0.546767 (Simulation time: 2 hr 51 min 13 sec) 
Heartbeat CPU 3 instructions: 760000000 cycles: 1138166405 heartbeat IPC: 0.580587 cumulative IPC: 0.533003 (Simulation time: 2 hr 51 min 25 sec) 
Heartbeat CPU 1 instructions: 800000000 cycles: 1149162108 heartbeat IPC: 0.803434 cumulative IPC: 0.549829 (Simulation time: 2 hr 52 min 54 sec) 
Heartbeat CPU 3 instructions: 770000000 cycles: 1155110205 heartbeat IPC: 0.590186 cumulative IPC: 0.533926 (Simulation time: 2 hr 53 min 40 sec) 
Heartbeat CPU 2 instructions: 620000000 cycles: 1158181660 heartbeat IPC: 0.420733 cumulative IPC: 0.385516 (Simulation time: 2 hr 54 min 6 sec) 
Heartbeat CPU 1 instructions: 810000000 cycles: 1163723700 heartbeat IPC: 0.686738 cumulative IPC: 0.551714 (Simulation time: 2 hr 54 min 52 sec) 
Heartbeat CPU 3 instructions: 780000000 cycles: 1171154799 heartbeat IPC: 0.623263 cumulative IPC: 0.535272 (Simulation time: 2 hr 55 min 52 sec) 
Heartbeat CPU 2 instructions: 630000003 cycles: 1178634597 heartbeat IPC: 0.488927 cumulative IPC: 0.387488 (Simulation time: 2 hr 56 min 42 sec) 
Heartbeat CPU 1 instructions: 820000000 cycles: 1181647996 heartbeat IPC: 0.557902 cumulative IPC: 0.551817 (Simulation time: 2 hr 57 min 3 sec) 
Heartbeat CPU 0 instructions: 270000000 cycles: 1183748508 heartbeat IPC: 0.0682929 cumulative IPC: 0.0649425 (Simulation time: 2 hr 57 min 17 sec) 
Heartbeat CPU 3 instructions: 790000001 cycles: 1187926785 heartbeat IPC: 0.596232 cumulative IPC: 0.536216 (Simulation time: 2 hr 57 min 45 sec) 
Heartbeat CPU 1 instructions: 830000002 cycles: 1198651777 heartbeat IPC: 0.588105 cumulative IPC: 0.552382 (Simulation time: 2 hr 59 min 7 sec) 
Heartbeat CPU 2 instructions: 640000000 cycles: 1203919659 heartbeat IPC: 0.39549 cumulative IPC: 0.387672 (Simulation time: 2 hr 59 min 50 sec) 
Heartbeat CPU 3 instructions: 800000000 cycles: 1205151523 heartbeat IPC: 0.58056 cumulative IPC: 0.536911 (Simulation time: 3 hr 0 min 1 sec) 
Heartbeat CPU 1 instructions: 840000000 cycles: 1211133411 heartbeat IPC: 0.801177 cumulative IPC: 0.555191 (Simulation time: 3 hr 0 min 50 sec) 
Heartbeat CPU 3 instructions: 810000002 cycles: 1222031125 heartbeat IPC: 0.592431 cumulative IPC: 0.537751 (Simulation time: 3 hr 2 min 15 sec) 
Heartbeat CPU 2 instructions: 650000001 cycles: 1224659827 heartbeat IPC: 0.482156 cumulative IPC: 0.389423 (Simulation time: 3 hr 2 min 36 sec) 
Heartbeat CPU 1 instructions: 850000000 cycles: 1225829523 heartbeat IPC: 0.680452 cumulative IPC: 0.556835 (Simulation time: 3 hr 2 min 45 sec) 
Heartbeat CPU 3 instructions: 820000000 cycles: 1237882408 heartbeat IPC: 0.630864 cumulative IPC: 0.539055 (Simulation time: 3 hr 4 min 18 sec) 
Heartbeat CPU 2 instructions: 660000000 cycles: 1242307981 heartbeat IPC: 0.566631 cumulative IPC: 0.392175 (Simulation time: 3 hr 4 min 49 sec) 
Heartbeat CPU 1 instructions: 860000000 cycles: 1244129783 heartbeat IPC: 0.54644 cumulative IPC: 0.556668 (Simulation time: 3 hr 5 min 1 sec) 
Heartbeat CPU 3 instructions: 830000001 cycles: 1254150061 heartbeat IPC: 0.614717 cumulative IPC: 0.540127 (Simulation time: 3 hr 6 min 11 sec) 
Heartbeat CPU 1 instructions: 870000001 cycles: 1261321813 heartbeat IPC: 0.581665 cumulative IPC: 0.55704 (Simulation time: 3 hr 7 min 9 sec) 
Heartbeat CPU 3 instructions: 840000000 cycles: 1271292297 heartbeat IPC: 0.583354 cumulative IPC: 0.540762 (Simulation time: 3 hr 8 min 40 sec) 
Heartbeat CPU 1 instructions: 880000000 cycles: 1273905333 heartbeat IPC: 0.79469 cumulative IPC: 0.5596 (Simulation time: 3 hr 9 min 1 sec) 
Heartbeat CPU 2 instructions: 670000000 cycles: 1276695953 heartbeat IPC: 0.290799 cumulative IPC: 0.389198 (Simulation time: 3 hr 9 min 26 sec) 
Heartbeat CPU 3 instructions: 850000000 cycles: 1287205882 heartbeat IPC: 0.628394 cumulative IPC: 0.541943 (Simulation time: 3 hr 10 min 57 sec) 
Heartbeat CPU 1 instructions: 890000002 cycles: 1288227183 heartbeat IPC: 0.698234 cumulative IPC: 0.561279 (Simulation time: 3 hr 11 min 5 sec) 
Heartbeat CPU 3 instructions: 860000000 cycles: 1303551142 heartbeat IPC: 0.611798 cumulative IPC: 0.542896 (Simulation time: 3 hr 13 min 4 sec) 
Heartbeat CPU 1 instructions: 900000000 cycles: 1306883800 heartbeat IPC: 0.536003 cumulative IPC: 0.560887 (Simulation time: 3 hr 13 min 29 sec) 
Heartbeat CPU 2 instructions: 680000000 cycles: 1309810401 heartbeat IPC: 0.301983 cumulative IPC: 0.386799 (Simulation time: 3 hr 13 min 49 sec) 
Heartbeat CPU 3 instructions: 870000002 cycles: 1320707525 heartbeat IPC: 0.582874 cumulative IPC: 0.543461 (Simulation time: 3 hr 15 min 10 sec) 
Heartbeat CPU 1 instructions: 910000000 cycles: 1327368238 heartbeat IPC: 0.488175 cumulative IPC: 0.559667 (Simulation time: 3 hr 16 min 5 sec) 
Heartbeat CPU 0 instructions: 280000000 cycles: 1331597553 heartbeat IPC: 0.0676366 cumulative IPC: 0.0652674 (Simulation time: 3 hr 16 min 48 sec) 
Heartbeat CPU 2 instructions: 690000003 cycles: 1334883473 heartbeat IPC: 0.398834 cumulative IPC: 0.387045 (Simulation time: 3 hr 17 min 19 sec) 
Heartbeat CPU 3 instructions: 880000000 cycles: 1336609164 heartbeat IPC: 0.628866 cumulative IPC: 0.544564 (Simulation time: 3 hr 17 min 38 sec) 
Heartbeat CPU 1 instructions: 920000000 cycles: 1342867727 heartbeat IPC: 0.645183 cumulative IPC: 0.560739 (Simulation time: 3 hr 18 min 33 sec) 
Heartbeat CPU 3 instructions: 890000001 cycles: 1352539516 heartbeat IPC: 0.627733 cumulative IPC: 0.545627 (Simulation time: 3 hr 19 min 58 sec) 
Heartbeat CPU 2 instructions: 700000000 cycles: 1357033596 heartbeat IPC: 0.451465 cumulative IPC: 0.388185 (Simulation time: 3 hr 20 min 39 sec) 
Heartbeat CPU 1 instructions: 930000000 cycles: 1358406974 heartbeat IPC: 0.643532 cumulative IPC: 0.561766 (Simulation time: 3 hr 20 min 52 sec) 
Heartbeat CPU 3 instructions: 900000000 cycles: 1368632174 heartbeat IPC: 0.621401 cumulative IPC: 0.546593 (Simulation time: 3 hr 22 min 20 sec) 
Heartbeat CPU 1 instructions: 940000000 cycles: 1373889050 heartbeat IPC: 0.645908 cumulative IPC: 0.562793 (Simulation time: 3 hr 23 min 8 sec) 
Heartbeat CPU 2 instructions: 710000002 cycles: 1377980484 heartbeat IPC: 0.477398 cumulative IPC: 0.389654 (Simulation time: 3 hr 23 min 40 sec) 
Heartbeat CPU 3 instructions: 910000003 cycles: 1385325906 heartbeat IPC: 0.599027 cumulative IPC: 0.547277 (Simulation time: 3 hr 24 min 44 sec) 
Heartbeat CPU 1 instructions: 950000002 cycles: 1391721738 heartbeat IPC: 0.560768 cumulative IPC: 0.562765 (Simulation time: 3 hr 25 min 42 sec) 
Heartbeat CPU 3 instructions: 920000000 cycles: 1400877034 heartbeat IPC: 0.64304 cumulative IPC: 0.548427 (Simulation time: 3 hr 27 min 5 sec) 
Heartbeat CPU 2 instructions: 720000000 cycles: 1401507858 heartbeat IPC: 0.425037 cumulative IPC: 0.390297 (Simulation time: 3 hr 27 min 11 sec) 
Heartbeat CPU 1 instructions: 960000000 cycles: 1408945726 heartbeat IPC: 0.580586 cumulative IPC: 0.563001 (Simulation time: 3 hr 28 min 16 sec) 
Heartbeat CPU 3 instructions: 930000000 cycles: 1416828369 heartbeat IPC: 0.626907 cumulative IPC: 0.549382 (Simulation time: 3 hr 29 min 24 sec) 
Heartbeat CPU 2 instructions: 730000003 cycles: 1423033609 heartbeat IPC: 0.46456 cumulative IPC: 0.39151 (Simulation time: 3 hr 30 min 18 sec) 
Heartbeat CPU 1 instructions: 970000002 cycles: 1426262205 heartbeat IPC: 0.577485 cumulative IPC: 0.563191 (Simulation time: 3 hr 30 min 43 sec) 
Heartbeat CPU 3 instructions: 940000000 cycles: 1432423869 heartbeat IPC: 0.641211 cumulative IPC: 0.550461 (Simulation time: 3 hr 31 min 31 sec) 
Heartbeat CPU 2 instructions: 740000000 cycles: 1442314297 heartbeat IPC: 0.518654 cumulative IPC: 0.393344 (Simulation time: 3 hr 32 min 47 sec) 
Heartbeat CPU 1 instructions: 980000000 cycles: 1442431759 heartbeat IPC: 0.618446 cumulative IPC: 0.563859 (Simulation time: 3 hr 32 min 48 sec) 
Heartbeat CPU 3 instructions: 950000002 cycles: 1448461062 heartbeat IPC: 0.623551 cumulative IPC: 0.551334 (Simulation time: 3 hr 33 min 33 sec) 
Heartbeat CPU 1 instructions: 990000000 cycles: 1457235044 heartbeat IPC: 0.675526 cumulative IPC: 0.565082 (Simulation time: 3 hr 34 min 47 sec) 
Heartbeat CPU 3 instructions: 960000000 cycles: 1464316249 heartbeat IPC: 0.630708 cumulative IPC: 0.552261 (Simulation time: 3 hr 35 min 42 sec) 
Heartbeat CPU 0 instructions: 290000002 cycles: 1469060912 heartbeat IPC: 0.0727467 cumulative IPC: 0.0660216 (Simulation time: 3 hr 36 min 24 sec) 
Heartbeat CPU 1 instructions: 1000000000 cycles: 1471036614 heartbeat IPC: 0.724555 cumulative IPC: 0.566695 (Simulation time: 3 hr 36 min 42 sec) 
Heartbeat CPU 2 instructions: 750000000 cycles: 1472727888 heartbeat IPC: 0.3288 cumulative IPC: 0.391908 (Simulation time: 3 hr 36 min 57 sec) 
Heartbeat CPU 3 instructions: 970000000 cycles: 1480162140 heartbeat IPC: 0.631078 cumulative IPC: 0.55317 (Simulation time: 3 hr 38 min 2 sec) 
Heartbeat CPU 1 instructions: 1010000002 cycles: 1486031362 heartbeat IPC: 0.6669 cumulative IPC: 0.567783 (Simulation time: 3 hr 38 min 58 sec) 
Heartbeat CPU 3 instructions: 980000000 cycles: 1495844941 heartbeat IPC: 0.637641 cumulative IPC: 0.554123 (Simulation time: 3 hr 40 min 24 sec) 
Heartbeat CPU 1 instructions: 1020000000 cycles: 1500154400 heartbeat IPC: 0.708063 cumulative IPC: 0.569204 (Simulation time: 3 hr 41 min 1 sec) 
Heartbeat CPU 2 instructions: 760000000 cycles: 1504332657 heartbeat IPC: 0.316408 cumulative IPC: 0.390202 (Simulation time: 3 hr 41 min 33 sec) 
Heartbeat CPU 3 instructions: 990000001 cycles: 1511885596 heartbeat IPC: 0.623416 cumulative IPC: 0.554913 (Simulation time: 3 hr 42 min 31 sec) 
Heartbeat CPU 1 instructions: 1030000000 cycles: 1514921935 heartbeat IPC: 0.677161 cumulative IPC: 0.570336 (Simulation time: 3 hr 42 min 55 sec) 
Heartbeat CPU 3 instructions: 1000000000 cycles: 1528116446 heartbeat IPC: 0.616111 cumulative IPC: 0.555612 (Simulation time: 3 hr 44 min 40 sec) 
Heartbeat CPU 1 instructions: 1040000000 cycles: 1528974880 heartbeat IPC: 0.711595 cumulative IPC: 0.57173 (Simulation time: 3 hr 44 min 46 sec) 
Heartbeat CPU 2 instructions: 770000002 cycles: 1529007631 heartbeat IPC: 0.405269 cumulative IPC: 0.390463 (Simulation time: 3 hr 44 min 47 sec) 
Heartbeat CPU 3 instructions: 1010000000 cycles: 1543748535 heartbeat IPC: 0.63971 cumulative IPC: 0.556526 (Simulation time: 3 hr 46 min 45 sec) 
Heartbeat CPU 1 instructions: 1050000000 cycles: 1543781849 heartbeat IPC: 0.675358 cumulative IPC: 0.572798 (Simulation time: 3 hr 46 min 45 sec) 
Heartbeat CPU 2 instructions: 780000000 cycles: 1551977593 heartbeat IPC: 0.435351 cumulative IPC: 0.391176 (Simulation time: 3 hr 47 min 49 sec) 
Heartbeat CPU 1 instructions: 1060000000 cycles: 1557782872 heartbeat IPC: 0.714234 cumulative IPC: 0.574162 (Simulation time: 3 hr 48 min 35 sec) 
Heartbeat CPU 3 instructions: 1020000000 cycles: 1559618500 heartbeat IPC: 0.630121 cumulative IPC: 0.557329 (Simulation time: 3 hr 48 min 50 sec) 
Heartbeat CPU 1 instructions: 1070000003 cycles: 1572746658 heartbeat IPC: 0.66828 cumulative IPC: 0.575122 (Simulation time: 3 hr 50 min 36 sec) 
Heartbeat CPU 3 instructions: 1030000003 cycles: 1575216459 heartbeat IPC: 0.64111 cumulative IPC: 0.558219 (Simulation time: 3 hr 50 min 54 sec) 
Heartbeat CPU 2 instructions: 790000002 cycles: 1575651988 heartbeat IPC: 0.422397 cumulative IPC: 0.391679 (Simulation time: 3 hr 50 min 58 sec) 
Heartbeat CPU 1 instructions: 1080000000 cycles: 1586845519 heartbeat IPC: 0.709277 cumulative IPC: 0.576399 (Simulation time: 3 hr 52 min 26 sec) 
Heartbeat CPU 3 instructions: 1040000000 cycles: 1591609729 heartbeat IPC: 0.610006 cumulative IPC: 0.55879 (Simulation time: 3 hr 53 min 3 sec) 
Heartbeat CPU 2 instructions: 800000000 cycles: 1598148855 heartbeat IPC: 0.444506 cumulative IPC: 0.392476 (Simulation time: 3 hr 53 min 56 sec) 
Heartbeat CPU 1 instructions: 1090000002 cycles: 1601908115 heartbeat IPC: 0.663896 cumulative IPC: 0.57728 (Simulation time: 3 hr 54 min 26 sec) 
Heartbeat CPU 0 instructions: 300000000 cycles: 1605588114 heartbeat IPC: 0.0732455 cumulative IPC: 0.0666793 (Simulation time: 3 hr 54 min 56 sec) 
Heartbeat CPU 3 instructions: 1050000003 cycles: 1607118671 heartbeat IPC: 0.64479 cumulative IPC: 0.559679 (Simulation time: 3 hr 55 min 9 sec) 
Heartbeat CPU 1 instructions: 1100000000 cycles: 1616311953 heartbeat IPC: 0.694259 cumulative IPC: 0.578395 (Simulation time: 3 hr 56 min 21 sec) 
Heartbeat CPU 2 instructions: 810000000 cycles: 1619070896 heartbeat IPC: 0.477965 cumulative IPC: 0.393658 (Simulation time: 3 hr 56 min 43 sec) 
Heartbeat CPU 3 instructions: 1060000000 cycles: 1623033659 heartbeat IPC: 0.628338 cumulative IPC: 0.560399 (Simulation time: 3 hr 57 min 14 sec) 
Heartbeat CPU 1 instructions: 1110000000 cycles: 1630944726 heartbeat IPC: 0.683397 cumulative IPC: 0.579403 (Simulation time: 3 hr 58 min 17 sec) 
Heartbeat CPU 2 instructions: 820000000 cycles: 1637945420 heartbeat IPC: 0.529815 cumulative IPC: 0.395335 (Simulation time: 3 hr 59 min 26 sec) 
Heartbeat CPU 3 instructions: 1070000001 cycles: 1638112051 heartbeat IPC: 0.663201 cumulative IPC: 0.56141 (Simulation time: 3 hr 59 min 28 sec) 
Heartbeat CPU 1 instructions: 1120000000 cycles: 1645923938 heartbeat IPC: 0.667592 cumulative IPC: 0.580261 (Simulation time: 4 hr 0 min 30 sec) 
Heartbeat CPU 3 instructions: 1080000000 cycles: 1653865461 heartbeat IPC: 0.634783 cumulative IPC: 0.562157 (Simulation time: 4 hr 1 min 34 sec) 
Heartbeat CPU 1 instructions: 1130000001 cycles: 1660297941 heartbeat IPC: 0.6957 cumulative IPC: 0.581328 (Simulation time: 4 hr 2 min 26 sec) 
Heartbeat CPU 2 instructions: 830000000 cycles: 1668319175 heartbeat IPC: 0.329232 cumulative IPC: 0.39405 (Simulation time: 4 hr 3 min 32 sec) 
Heartbeat CPU 3 instructions: 1090000002 cycles: 1670089727 heartbeat IPC: 0.616361 cumulative IPC: 0.562719 (Simulation time: 4 hr 3 min 45 sec) 
Heartbeat CPU 1 instructions: 1140000000 cycles: 1675440092 heartbeat IPC: 0.660408 cumulative IPC: 0.582091 (Simulation time: 4 hr 4 min 33 sec) 
Heartbeat CPU 3 instructions: 1100000000 cycles: 1685581214 heartbeat IPC: 0.645516 cumulative IPC: 0.563531 (Simulation time: 4 hr 6 min 2 sec) 
Heartbeat CPU 1 instructions: 1150000003 cycles: 1689955093 heartbeat IPC: 0.688943 cumulative IPC: 0.58307 (Simulation time: 4 hr 6 min 42 sec) 
Heartbeat CPU 2 instructions: 840000000 cycles: 1700559615 heartbeat IPC: 0.310169 cumulative IPC: 0.392354 (Simulation time: 4 hr 8 min 7 sec) 
Heartbeat CPU 3 instructions: 1110000002 cycles: 1700944846 heartbeat IPC: 0.650888 cumulative IPC: 0.564373 (Simulation time: 4 hr 8 min 10 sec) 
Heartbeat CPU 1 instructions: 1160000000 cycles: 1705215689 heartbeat IPC: 0.655282 cumulative IPC: 0.583759 (Simulation time: 4 hr 8 min 42 sec) 
Heartbeat CPU 3 instructions: 1120000000 cycles: 1716966397 heartbeat IPC: 0.624159 cumulative IPC: 0.564967 (Simulation time: 4 hr 10 min 13 sec) 
Heartbeat CPU 1 instructions: 1170000002 cycles: 1720449736 heartbeat IPC: 0.656425 cumulative IPC: 0.584445 (Simulation time: 4 hr 10 min 40 sec) 
Heartbeat CPU 2 instructions: 850000002 cycles: 1724962323 heartbeat IPC: 0.409791 cumulative IPC: 0.392617 (Simulation time: 4 hr 11 min 17 sec) 
Heartbeat CPU 3 instructions: 1130000001 cycles: 1733024235 heartbeat IPC: 0.622749 cumulative IPC: 0.565537 (Simulation time: 4 hr 12 min 28 sec) 
Heartbeat CPU 1 instructions: 1180000000 cycles: 1734748518 heartbeat IPC: 0.69936 cumulative IPC: 0.585453 (Simulation time: 4 hr 12 min 42 sec) 
Heartbeat CPU 0 instructions: 310000003 cycles: 1740949025 heartbeat IPC: 0.0738766 cumulative IPC: 0.0672751 (Simulation time: 4 hr 13 min 28 sec) 
Heartbeat CPU 2 instructions: 860000000 cycles: 1746676073 heartbeat IPC: 0.460538 cumulative IPC: 0.393516 (Simulation time: 4 hr 14 min 15 sec) 
Heartbeat CPU 3 instructions: 1140000000 cycles: 1749197901 heartbeat IPC: 0.618289 cumulative IPC: 0.566057 (Simulation time: 4 hr 14 min 35 sec) 
Heartbeat CPU 1 instructions: 1190000002 cycles: 1750099232 heartbeat IPC: 0.651436 cumulative IPC: 0.586069 (Simulation time: 4 hr 14 min 42 sec) 
Heartbeat CPU 1 instructions: 1200000000 cycles: 1764489466 heartbeat IPC: 0.694916 cumulative IPC: 0.587014 (Simulation time: 4 hr 16 min 40 sec) 
Heartbeat CPU 3 instructions: 1150000000 cycles: 1764938564 heartbeat IPC: 0.635297 cumulative IPC: 0.566714 (Simulation time: 4 hr 16 min 43 sec) 
Heartbeat CPU 2 instructions: 870000003 cycles: 1766624875 heartbeat IPC: 0.501283 cumulative IPC: 0.39481 (Simulation time: 4 hr 16 min 56 sec) 
Heartbeat CPU 1 instructions: 1210000002 cycles: 1780050174 heartbeat IPC: 0.642644 cumulative IPC: 0.587531 (Simulation time: 4 hr 18 min 38 sec) 
Heartbeat CPU 3 instructions: 1160000000 cycles: 1781155829 heartbeat IPC: 0.616627 cumulative IPC: 0.567197 (Simulation time: 4 hr 18 min 46 sec) 
Heartbeat CPU 2 instructions: 880000000 cycles: 1788925392 heartbeat IPC: 0.44842 cumulative IPC: 0.395521 (Simulation time: 4 hr 19 min 45 sec) 
Heartbeat CPU 1 instructions: 1220000000 cycles: 1794433075 heartbeat IPC: 0.69527 cumulative IPC: 0.588449 (Simulation time: 4 hr 20 min 27 sec) 
Heartbeat CPU 3 instructions: 1170000000 cycles: 1796783638 heartbeat IPC: 0.639885 cumulative IPC: 0.567869 (Simulation time: 4 hr 20 min 45 sec) 
Finished CPU 1 instructions: 1000000002 cycles: 1698170334 cumulative IPC: 0.588869 (Simulation time: 4 hr 21 min 39 sec) 
Heartbeat CPU 1 instructions: 1230000002 cycles: 1809680679 heartbeat IPC: 0.655841 cumulative IPC: 0.589052 (Simulation time: 4 hr 22 min 20 sec) 
Heartbeat CPU 2 instructions: 890000002 cycles: 1809967875 heartbeat IPC: 0.475229 cumulative IPC: 0.396505 (Simulation time: 4 hr 22 min 23 sec) 
Heartbeat CPU 3 instructions: 1180000000 cycles: 1813353676 heartbeat IPC: 0.603499 cumulative IPC: 0.568214 (Simulation time: 4 hr 22 min 47 sec) 
Heartbeat CPU 1 instructions: 1240000000 cycles: 1824046445 heartbeat IPC: 0.696099 cumulative IPC: 0.589947 (Simulation time: 4 hr 24 min 14 sec) 
Heartbeat CPU 2 instructions: 900000000 cycles: 1827071616 heartbeat IPC: 0.584667 cumulative IPC: 0.398375 (Simulation time: 4 hr 24 min 37 sec) 
Heartbeat CPU 3 instructions: 1190000001 cycles: 1828388674 heartbeat IPC: 0.665115 cumulative IPC: 0.56906 (Simulation time: 4 hr 24 min 48 sec) 
Heartbeat CPU 1 instructions: 1250000002 cycles: 1839186423 heartbeat IPC: 0.660503 cumulative IPC: 0.590563 (Simulation time: 4 hr 26 min 9 sec) 
Heartbeat CPU 3 instructions: 1200000000 cycles: 1843941178 heartbeat IPC: 0.642983 cumulative IPC: 0.569722 (Simulation time: 4 hr 26 min 45 sec) 
Heartbeat CPU 1 instructions: 1260000000 cycles: 1853600700 heartbeat IPC: 0.693756 cumulative IPC: 0.591414 (Simulation time: 4 hr 27 min 57 sec) 
Heartbeat CPU 2 instructions: 910000002 cycles: 1857727866 heartbeat IPC: 0.326198 cumulative IPC: 0.397112 (Simulation time: 4 hr 28 min 28 sec) 
Finished CPU 3 instructions: 1000000002 cycles: 1753640875 cumulative IPC: 0.570242 (Simulation time: 4 hr 28 min 42 sec) 
Heartbeat CPU 3 instructions: 1210000001 cycles: 1859869791 heartbeat IPC: 0.627801 cumulative IPC: 0.570249 (Simulation time: 4 hr 28 min 44 sec) 
Heartbeat CPU 1 instructions: 1270000002 cycles: 1868702851 heartbeat IPC: 0.662157 cumulative IPC: 0.59202 (Simulation time: 4 hr 29 min 51 sec) 
Heartbeat CPU 3 instructions: 1220000000 cycles: 1875662087 heartbeat IPC: 0.63322 cumulative IPC: 0.570811 (Simulation time: 4 hr 30 min 44 sec) 
Heartbeat CPU 0 instructions: 320000000 cycles: 1876863490 heartbeat IPC: 0.0735757 cumulative IPC: 0.0677586 (Simulation time: 4 hr 30 min 52 sec) 
Heartbeat CPU 1 instructions: 1280000000 cycles: 1883155520 heartbeat IPC: 0.691914 cumulative IPC: 0.592832 (Simulation time: 4 hr 31 min 40 sec) 
Heartbeat CPU 2 instructions: 920000000 cycles: 1890533901 heartbeat IPC: 0.304822 cumulative IPC: 0.395415 (Simulation time: 4 hr 32 min 33 sec) 
Heartbeat CPU 3 instructions: 1230000000 cycles: 1891286262 heartbeat IPC: 0.640034 cumulative IPC: 0.571417 (Simulation time: 4 hr 32 min 38 sec) 
Heartbeat CPU 1 instructions: 1290000003 cycles: 1898455851 heartbeat IPC: 0.653581 cumulative IPC: 0.593351 (Simulation time: 4 hr 33 min 32 sec) 
Heartbeat CPU 3 instructions: 1240000000 cycles: 1907362891 heartbeat IPC: 0.622021 cumulative IPC: 0.571868 (Simulation time: 4 hr 34 min 40 sec) 
Heartbeat CPU 1 instructions: 1300000000 cycles: 1913124225 heartbeat IPC: 0.681739 cumulative IPC: 0.594068 (Simulation time: 4 hr 35 min 25 sec) 
Heartbeat CPU 2 instructions: 930000000 cycles: 1916715582 heartbeat IPC: 0.381946 cumulative IPC: 0.39522 (Simulation time: 4 hr 35 min 53 sec) 
Heartbeat CPU 3 instructions: 1250000001 cycles: 1922911812 heartbeat IPC: 0.643131 cumulative IPC: 0.572478 (Simulation time: 4 hr 36 min 42 sec) 
Heartbeat CPU 1 instructions: 1310000001 cycles: 1927526588 heartbeat IPC: 0.694331 cumulative IPC: 0.594861 (Simulation time: 4 hr 37 min 18 sec) 
Heartbeat CPU 3 instructions: 1260000000 cycles: 1939136512 heartbeat IPC: 0.616344 cumulative IPC: 0.572866 (Simulation time: 4 hr 38 min 49 sec) 
Heartbeat CPU 2 instructions: 940000000 cycles: 1939356097 heartbeat IPC: 0.441686 cumulative IPC: 0.395794 (Simulation time: 4 hr 38 min 51 sec) 
Heartbeat CPU 1 instructions: 1320000000 cycles: 1942573924 heartbeat IPC: 0.664569 cumulative IPC: 0.595432 (Simulation time: 4 hr 39 min 17 sec) 
Heartbeat CPU 3 instructions: 1270000002 cycles: 1955538415 heartbeat IPC: 0.609685 cumulative IPC: 0.573193 (Simulation time: 4 hr 40 min 58 sec) 
Heartbeat CPU 1 instructions: 1330000001 cycles: 1956779714 heartbeat IPC: 0.703938 cumulative IPC: 0.596265 (Simulation time: 4 hr 41 min 8 sec) 
Heartbeat CPU 2 instructions: 950000003 cycles: 1958375848 heartbeat IPC: 0.525769 cumulative IPC: 0.397129 (Simulation time: 4 hr 41 min 20 sec) 
Heartbeat CPU 3 instructions: 1280000000 cycles: 1971416477 heartbeat IPC: 0.6298 cumulative IPC: 0.573675 (Simulation time: 4 hr 42 min 55 sec) 
Heartbeat CPU 1 instructions: 1340000000 cycles: 1971782975 heartbeat IPC: 0.666522 cumulative IPC: 0.59683 (Simulation time: 4 hr 42 min 57 sec) 
Heartbeat CPU 2 instructions: 960000000 cycles: 1981653362 heartbeat IPC: 0.429599 cumulative IPC: 0.397531 (Simulation time: 4 hr 44 min 12 sec) 
Heartbeat CPU 1 instructions: 1350000000 cycles: 1986126396 heartbeat IPC: 0.697184 cumulative IPC: 0.597595 (Simulation time: 4 hr 44 min 45 sec) 
Heartbeat CPU 3 instructions: 1290000002 cycles: 1986764164 heartbeat IPC: 0.651564 cumulative IPC: 0.57431 (Simulation time: 4 hr 44 min 51 sec) 
Heartbeat CPU 1 instructions: 1360000000 cycles: 2000740601 heartbeat IPC: 0.684266 cumulative IPC: 0.598264 (Simulation time: 4 hr 46 min 35 sec) 
Heartbeat CPU 3 instructions: 1300000000 cycles: 2002841282 heartbeat IPC: 0.622002 cumulative IPC: 0.574714 (Simulation time: 4 hr 46 min 51 sec) 
Heartbeat CPU 2 instructions: 970000002 cycles: 2002959288 heartbeat IPC: 0.469353 cumulative IPC: 0.398338 (Simulation time: 4 hr 46 min 52 sec) 
Heartbeat CPU 0 instructions: 330000003 cycles: 2015861260 heartbeat IPC: 0.0719436 cumulative IPC: 0.0680632 (Simulation time: 4 hr 48 min 23 sec) 
Heartbeat CPU 1 instructions: 1370000001 cycles: 2017325960 heartbeat IPC: 0.602942 cumulative IPC: 0.598304 (Simulation time: 4 hr 48 min 34 sec) 
Heartbeat CPU 3 instructions: 1310000000 cycles: 2019066725 heartbeat IPC: 0.616316 cumulative IPC: 0.575067 (Simulation time: 4 hr 48 min 46 sec) 
Heartbeat CPU 2 instructions: 980000000 cycles: 2020754415 heartbeat IPC: 0.561951 cumulative IPC: 0.399859 (Simulation time: 4 hr 48 min 59 sec) 
Heartbeat CPU 1 instructions: 1380000000 cycles: 2032869264 heartbeat IPC: 0.643364 cumulative IPC: 0.598668 (Simulation time: 4 hr 50 min 27 sec) 
Heartbeat CPU 3 instructions: 1320000000 cycles: 2034869779 heartbeat IPC: 0.632789 cumulative IPC: 0.57554 (Simulation time: 4 hr 50 min 40 sec) 
Heartbeat CPU 1 instructions: 1390000000 cycles: 2048424249 heartbeat IPC: 0.642881 cumulative IPC: 0.599022 (Simulation time: 4 hr 52 min 19 sec) 
Heartbeat CPU 3 instructions: 1330000001 cycles: 2050633469 heartbeat IPC: 0.634369 cumulative IPC: 0.576017 (Simulation time: 4 hr 52 min 37 sec) 
Heartbeat CPU 2 instructions: 990000001 cycles: 2050888798 heartbeat IPC: 0.331847 cumulative IPC: 0.398805 (Simulation time: 4 hr 52 min 39 sec) 
Heartbeat CPU 1 instructions: 1400000000 cycles: 2063947284 heartbeat IPC: 0.644204 cumulative IPC: 0.59938 (Simulation time: 4 hr 54 min 18 sec) 
Heartbeat CPU 3 instructions: 1340000000 cycles: 2066133626 heartbeat IPC: 0.645155 cumulative IPC: 0.576564 (Simulation time: 4 hr 54 min 35 sec) 
Heartbeat CPU 3 instructions: 1350000000 cycles: 2083584956 heartbeat IPC: 0.573022 cumulative IPC: 0.576532 (Simulation time: 4 hr 56 min 28 sec) 
Heartbeat CPU 1 instructions: 1410000002 cycles: 2084368757 heartbeat IPC: 0.489681 cumulative IPC: 0.598248 (Simulation time: 4 hr 56 min 33 sec) 
Heartbeat CPU 2 instructions: 1000000000 cycles: 2086551198 heartbeat IPC: 0.280407 cumulative IPC: 0.396673 (Simulation time: 4 hr 56 min 47 sec) 
Heartbeat CPU 3 instructions: 1360000000 cycles: 2101381580 heartbeat IPC: 0.561904 cumulative IPC: 0.576402 (Simulation time: 4 hr 58 min 23 sec) 
Heartbeat CPU 1 instructions: 1420000000 cycles: 2109531184 heartbeat IPC: 0.397418 cumulative IPC: 0.595726 (Simulation time: 4 hr 59 min 15 sec) 
Heartbeat CPU 2 instructions: 1010000000 cycles: 2115147298 heartbeat IPC: 0.349698 cumulative IPC: 0.396005 (Simulation time: 4 hr 59 min 57 sec) 
Heartbeat CPU 3 instructions: 1370000000 cycles: 2120163598 heartbeat IPC: 0.532424 cumulative IPC: 0.575992 (Simulation time: 5 hr 0 min 36 sec) 
Heartbeat CPU 1 instructions: 1430000002 cycles: 2126298974 heartbeat IPC: 0.596382 cumulative IPC: 0.595731 (Simulation time: 5 hr 1 min 25 sec) 
Heartbeat CPU 3 instructions: 1380000000 cycles: 2136087394 heartbeat IPC: 0.627991 cumulative IPC: 0.5764 (Simulation time: 5 hr 2 min 41 sec) 
Heartbeat CPU 2 instructions: 1020000000 cycles: 2138098544 heartbeat IPC: 0.435706 cumulative IPC: 0.396453 (Simulation time: 5 hr 2 min 57 sec) 
Heartbeat CPU 1 instructions: 1440000000 cycles: 2143034092 heartbeat IPC: 0.597546 cumulative IPC: 0.595746 (Simulation time: 5 hr 3 min 41 sec) 
Heartbeat CPU 3 instructions: 1390000000 cycles: 2152102219 heartbeat IPC: 0.624421 cumulative IPC: 0.576776 (Simulation time: 5 hr 5 min 1 sec) 
Heartbeat CPU 2 instructions: 1030000003 cycles: 2158639305 heartbeat IPC: 0.486837 cumulative IPC: 0.397357 (Simulation time: 5 hr 6 min 2 sec) 
Heartbeat CPU 1 instructions: 1450000000 cycles: 2159696325 heartbeat IPC: 0.60016 cumulative IPC: 0.595782 (Simulation time: 5 hr 6 min 11 sec) 
Heartbeat CPU 0 instructions: 340000000 cycles: 2163048914 heartbeat IPC: 0.0679405 cumulative IPC: 0.0680544 (Simulation time: 5 hr 6 min 38 sec) 
Heartbeat CPU 3 instructions: 1400000000 cycles: 2168525423 heartbeat IPC: 0.608895 cumulative IPC: 0.577031 (Simulation time: 5 hr 7 min 28 sec) 
Heartbeat CPU 1 instructions: 1460000000 cycles: 2177103550 heartbeat IPC: 0.574474 cumulative IPC: 0.595603 (Simulation time: 5 hr 8 min 41 sec) 
Heartbeat CPU 2 instructions: 1040000000 cycles: 2182803785 heartbeat IPC: 0.41383 cumulative IPC: 0.397549 (Simulation time: 5 hr 9 min 22 sec) 
Heartbeat CPU 3 instructions: 1410000003 cycles: 2185603962 heartbeat IPC: 0.58553 cumulative IPC: 0.577101 (Simulation time: 5 hr 9 min 40 sec) 
Heartbeat CPU 3 instructions: 1420000000 cycles: 2201463447 heartbeat IPC: 0.630537 cumulative IPC: 0.577505 (Simulation time: 5 hr 11 min 28 sec) 
Heartbeat CPU 2 instructions: 1050000000 cycles: 2205463010 heartbeat IPC: 0.441321 cumulative IPC: 0.398021 (Simulation time: 5 hr 11 min 56 sec) 
Heartbeat CPU 1 instructions: 1470000000 cycles: 2205935933 heartbeat IPC: 0.346832 cumulative IPC: 0.592187 (Simulation time: 5 hr 11 min 59 sec) 
Heartbeat CPU 3 instructions: 1430000002 cycles: 2218775011 heartbeat IPC: 0.577649 cumulative IPC: 0.577507 (Simulation time: 5 hr 13 min 26 sec) 
Heartbeat CPU 1 instructions: 1480000000 cycles: 2224820295 heartbeat IPC: 0.529539 cumulative IPC: 0.591629 (Simulation time: 5 hr 14 min 9 sec) 
Heartbeat CPU 2 instructions: 1060000000 cycles: 2226577707 heartbeat IPC: 0.473604 cumulative IPC: 0.398774 (Simulation time: 5 hr 14 min 23 sec) 
Heartbeat CPU 3 instructions: 1440000000 cycles: 2234757896 heartbeat IPC: 0.625669 cumulative IPC: 0.577868 (Simulation time: 5 hr 15 min 23 sec) 
Heartbeat CPU 1 instructions: 1490000002 cycles: 2242361683 heartbeat IPC: 0.57008 cumulative IPC: 0.591452 (Simulation time: 5 hr 16 min 18 sec) 
Heartbeat CPU 3 instructions: 1450000001 cycles: 2250120060 heartbeat IPC: 0.65095 cumulative IPC: 0.578392 (Simulation time: 5 hr 17 min 14 sec) 
Heartbeat CPU 2 instructions: 1070000003 cycles: 2255321244 heartbeat IPC: 0.347904 cumulative IPC: 0.398094 (Simulation time: 5 hr 17 min 53 sec) 
Heartbeat CPU 1 instructions: 1500000000 cycles: 2259894287 heartbeat IPC: 0.570366 cumulative IPC: 0.59128 (Simulation time: 5 hr 18 min 28 sec) 
Heartbeat CPU 3 instructions: 1460000000 cycles: 2265670804 heartbeat IPC: 0.643056 cumulative IPC: 0.578857 (Simulation time: 5 hr 19 min 10 sec) 
Heartbeat CPU 1 instructions: 1510000002 cycles: 2277414926 heartbeat IPC: 0.570756 cumulative IPC: 0.591115 (Simulation time: 5 hr 20 min 36 sec) 
Heartbeat CPU 3 instructions: 1470000000 cycles: 2281006773 heartbeat IPC: 0.652062 cumulative IPC: 0.579374 (Simulation time: 5 hr 21 min 1 sec) 
Heartbeat CPU 2 instructions: 1080000000 cycles: 2286424000 heartbeat IPC: 0.321515 cumulative IPC: 0.397001 (Simulation time: 5 hr 21 min 37 sec) 
Heartbeat CPU 1 instructions: 1520000000 cycles: 2294945271 heartbeat IPC: 0.570439 cumulative IPC: 0.590949 (Simulation time: 5 hr 22 min 40 sec) 
Heartbeat CPU 3 instructions: 1480000000 cycles: 2296391994 heartbeat IPC: 0.649974 cumulative IPC: 0.579869 (Simulation time: 5 hr 22 min 51 sec) 
Heartbeat CPU 0 instructions: 350000003 cycles: 2309167275 heartbeat IPC: 0.0684377 cumulative IPC: 0.0680798 (Simulation time: 5 hr 24 min 26 sec) 
Heartbeat CPU 2 instructions: 1090000002 cycles: 2311990122 heartbeat IPC: 0.391143 cumulative IPC: 0.396933 (Simulation time: 5 hr 24 min 47 sec) 
Heartbeat CPU 3 instructions: 1490000000 cycles: 2311993089 heartbeat IPC: 0.640981 cumulative IPC: 0.580302 (Simulation time: 5 hr 24 min 47 sec) 
Heartbeat CPU 1 instructions: 1530000000 cycles: 2312479640 heartbeat IPC: 0.570309 cumulative IPC: 0.590785 (Simulation time: 5 hr 24 min 51 sec) 
Heartbeat CPU 3 instructions: 1500000000 cycles: 2327430393 heartbeat IPC: 0.647781 cumulative IPC: 0.58077 (Simulation time: 5 hr 26 min 46 sec) 
Heartbeat CPU 1 instructions: 1540000000 cycles: 2329976270 heartbeat IPC: 0.571539 cumulative IPC: 0.590634 (Simulation time: 5 hr 27 min 5 sec) 
Heartbeat CPU 2 instructions: 1100000000 cycles: 2334121604 heartbeat IPC: 0.451845 cumulative IPC: 0.397479 (Simulation time: 5 hr 27 min 35 sec) 
Heartbeat CPU 3 instructions: 1510000000 cycles: 2343158443 heartbeat IPC: 0.635807 cumulative IPC: 0.581157 (Simulation time: 5 hr 28 min 43 sec) 
Heartbeat CPU 1 instructions: 1550000001 cycles: 2347496628 heartbeat IPC: 0.570765 cumulative IPC: 0.590479 (Simulation time: 5 hr 29 min 16 sec) 
Heartbeat CPU 2 instructions: 1110000000 cycles: 2357745879 heartbeat IPC: 0.423293 cumulative IPC: 0.39775 (Simulation time: 5 hr 30 min 41 sec) 
Heartbeat CPU 3 instructions: 1520000000 cycles: 2358438966 heartbeat IPC: 0.654428 cumulative IPC: 0.581654 (Simulation time: 5 hr 30 min 46 sec) 
Heartbeat CPU 1 instructions: 1560000000 cycles: 2364974657 heartbeat IPC: 0.572147 cumulative IPC: 0.590337 (Simulation time: 5 hr 31 min 37 sec) 
Heartbeat CPU 3 instructions: 1530000000 cycles: 2374193326 heartbeat IPC: 0.634745 cumulative IPC: 0.582023 (Simulation time: 5 hr 32 min 47 sec) 
Heartbeat CPU 2 instructions: 1120000000 cycles: 2379125428 heartbeat IPC: 0.467737 cumulative IPC: 0.398408 (Simulation time: 5 hr 33 min 26 sec) 
Heartbeat CPU 1 instructions: 1570000000 cycles: 2382397521 heartbeat IPC: 0.573958 cumulative IPC: 0.590211 (Simulation time: 5 hr 33 min 50 sec) 
Heartbeat CPU 3 instructions: 1540000000 cycles: 2389618361 heartbeat IPC: 0.648297 cumulative IPC: 0.582471 (Simulation time: 5 hr 34 min 45 sec) 
Heartbeat CPU 1 instructions: 1580000000 cycles: 2399869566 heartbeat IPC: 0.572343 cumulative IPC: 0.590075 (Simulation time: 5 hr 36 min 3 sec) 
Heartbeat CPU 2 instructions: 1130000003 cycles: 2400933758 heartbeat IPC: 0.458541 cumulative IPC: 0.398979 (Simulation time: 5 hr 36 min 10 sec) 
Heartbeat CPU 3 instructions: 1550000002 cycles: 2405439068 heartbeat IPC: 0.632083 cumulative IPC: 0.582812 (Simulation time: 5 hr 36 min 43 sec) 
Heartbeat CPU 1 instructions: 1590000003 cycles: 2417338846 heartbeat IPC: 0.572434 cumulative IPC: 0.589942 (Simulation time: 5 hr 38 min 10 sec) 
Heartbeat CPU 2 instructions: 1140000000 cycles: 2419834574 heartbeat IPC: 0.529078 cumulative IPC: 0.400042 (Simulation time: 5 hr 38 min 27 sec) 
Heartbeat CPU 3 instructions: 1560000000 cycles: 2420507412 heartbeat IPC: 0.663643 cumulative IPC: 0.583338 (Simulation time: 5 hr 38 min 32 sec) 
Heartbeat CPU 1 instructions: 1600000000 cycles: 2434819531 heartbeat IPC: 0.57206 cumulative IPC: 0.589808 (Simulation time: 5 hr 40 min 11 sec) 
Heartbeat CPU 3 instructions: 1570000002 cycles: 2435982978 heartbeat IPC: 0.64618 cumulative IPC: 0.583756 (Simulation time: 5 hr 40 min 19 sec) 
Heartbeat CPU 0 instructions: 360000000 cycles: 2442678687 heartbeat IPC: 0.0748999 cumulative IPC: 0.0684695 (Simulation time: 5 hr 41 min 6 sec) 
Heartbeat CPU 2 instructions: 1150000000 cycles: 2448171402 heartbeat IPC: 0.352898 cumulative IPC: 0.399472 (Simulation time: 5 hr 41 min 44 sec) 
Heartbeat CPU 3 instructions: 1580000000 cycles: 2451190617 heartbeat IPC: 0.657564 cumulative IPC: 0.584234 (Simulation time: 5 hr 42 min 5 sec) 
Heartbeat CPU 1 instructions: 1610000000 cycles: 2452308590 heartbeat IPC: 0.571786 cumulative IPC: 0.589673 (Simulation time: 5 hr 42 min 13 sec) 
Heartbeat CPU 3 instructions: 1590000000 cycles: 2466564445 heartbeat IPC: 0.650456 cumulative IPC: 0.584666 (Simulation time: 5 hr 43 min 58 sec) 
Heartbeat CPU 1 instructions: 1620000000 cycles: 2469806922 heartbeat IPC: 0.571483 cumulative IPC: 0.589539 (Simulation time: 5 hr 44 min 20 sec) 
Heartbeat CPU 2 instructions: 1160000000 cycles: 2479489530 heartbeat IPC: 0.319304 cumulative IPC: 0.398414 (Simulation time: 5 hr 45 min 28 sec) 
Heartbeat CPU 3 instructions: 1600000000 cycles: 2481753772 heartbeat IPC: 0.658357 cumulative IPC: 0.585137 (Simulation time: 5 hr 45 min 44 sec) 
Heartbeat CPU 1 instructions: 1630000000 cycles: 2487296628 heartbeat IPC: 0.571765 cumulative IPC: 0.589408 (Simulation time: 5 hr 46 min 23 sec) 
Heartbeat CPU 3 instructions: 1610000001 cycles: 2497347298 heartbeat IPC: 0.641292 cumulative IPC: 0.585503 (Simulation time: 5 hr 47 min 37 sec) 
Heartbeat CPU 1 instructions: 1640000000 cycles: 2504787296 heartbeat IPC: 0.571733 cumulative IPC: 0.589279 (Simulation time: 5 hr 48 min 33 sec) 
Heartbeat CPU 2 instructions: 1170000000 cycles: 2505766173 heartbeat IPC: 0.380566 cumulative IPC: 0.398218 (Simulation time: 5 hr 48 min 41 sec) 
Heartbeat CPU 3 instructions: 1620000000 cycles: 2512856525 heartbeat IPC: 0.644777 cumulative IPC: 0.585885 (Simulation time: 5 hr 49 min 36 sec) 
Heartbeat CPU 1 instructions: 1650000000 cycles: 2522279504 heartbeat IPC: 0.571683 cumulative IPC: 0.589152 (Simulation time: 5 hr 50 min 47 sec) 
Heartbeat CPU 2 instructions: 1180000000 cycles: 2527766045 heartbeat IPC: 0.454548 cumulative IPC: 0.39873 (Simulation time: 5 hr 51 min 32 sec) 
Heartbeat CPU 3 instructions: 1630000000 cycles: 2528414467 heartbeat IPC: 0.642759 cumulative IPC: 0.58625 (Simulation time: 5 hr 51 min 40 sec) 
Heartbeat CPU 1 instructions: 1660000000 cycles: 2539761749 heartbeat IPC: 0.572009 cumulative IPC: 0.589029 (Simulation time: 5 hr 53 min 25 sec) 
Heartbeat CPU 3 instructions: 1640000000 cycles: 2543998146 heartbeat IPC: 0.641697 cumulative IPC: 0.586604 (Simulation time: 5 hr 53 min 59 sec) 
Heartbeat CPU 2 instructions: 1190000003 cycles: 2547085010 heartbeat IPC: 0.517626 cumulative IPC: 0.399671 (Simulation time: 5 hr 54 min 25 sec) 
Heartbeat CPU 1 instructions: 1670000001 cycles: 2557280120 heartbeat IPC: 0.570829 cumulative IPC: 0.588899 (Simulation time: 5 hr 55 min 54 sec) 
Heartbeat CPU 3 instructions: 1650000002 cycles: 2559571162 heartbeat IPC: 0.642137 cumulative IPC: 0.586957 (Simulation time: 5 hr 56 min 15 sec) 
Heartbeat CPU 2 instructions: 1200000000 cycles: 2569233482 heartbeat IPC: 0.451498 cumulative IPC: 0.400137 (Simulation time: 5 hr 57 min 40 sec) 
Heartbeat CPU 1 instructions: 1680000000 cycles: 2574794094 heartbeat IPC: 0.570973 cumulative IPC: 0.588772 (Simulation time: 5 hr 58 min 27 sec) 
Heartbeat CPU 3 instructions: 1660000000 cycles: 2574968592 heartbeat IPC: 0.649459 cumulative IPC: 0.587347 (Simulation time: 5 hr 58 min 29 sec) 
Heartbeat CPU 0 instructions: 370000003 cycles: 2578514976 heartbeat IPC: 0.0736181 cumulative IPC: 0.0687523 (Simulation time: 5 hr 59 min 0 sec) 
Heartbeat CPU 2 instructions: 1210000002 cycles: 2590417972 heartbeat IPC: 0.472044 cumulative IPC: 0.40075 (Simulation time: 6 hr 0 min 31 sec) 
Heartbeat CPU 3 instructions: 1670000002 cycles: 2590577565 heartbeat IPC: 0.640657 cumulative IPC: 0.587682 (Simulation time: 6 hr 0 min 32 sec) 
Heartbeat CPU 1 instructions: 1690000000 cycles: 2592274563 heartbeat IPC: 0.572067 cumulative IPC: 0.588654 (Simulation time: 6 hr 0 min 46 sec) 
Finished CPU 2 instructions: 1000000002 cycles: 2492023422 cumulative IPC: 0.40128 (Simulation time: 6 hr 1 min 28 sec) 
Heartbeat CPU 3 instructions: 1680000000 cycles: 2605977333 heartbeat IPC: 0.64936 cumulative IPC: 0.588061 (Simulation time: 6 hr 2 min 29 sec) 
Heartbeat CPU 2 instructions: 1220000000 cycles: 2607467662 heartbeat IPC: 0.586521 cumulative IPC: 0.402016 (Simulation time: 6 hr 2 min 41 sec) 
Heartbeat CPU 1 instructions: 1700000000 cycles: 2609785623 heartbeat IPC: 0.571068 cumulative IPC: 0.588531 (Simulation time: 6 hr 2 min 59 sec) 
Heartbeat CPU 3 instructions: 1690000000 cycles: 2621226188 heartbeat IPC: 0.655787 cumulative IPC: 0.588472 (Simulation time: 6 hr 4 min 20 sec) 
Heartbeat CPU 1 instructions: 1710000000 cycles: 2627304771 heartbeat IPC: 0.570804 cumulative IPC: 0.588408 (Simulation time: 6 hr 5 min 4 sec) 
Heartbeat CPU 2 instructions: 1230000003 cycles: 2636102022 heartbeat IPC: 0.349231 cumulative IPC: 0.401419 (Simulation time: 6 hr 6 min 7 sec) 
Heartbeat CPU 3 instructions: 1700000000 cycles: 2636711572 heartbeat IPC: 0.64577 cumulative IPC: 0.588823 (Simulation time: 6 hr 6 min 12 sec) 
Heartbeat CPU 1 instructions: 1720000000 cycles: 2644821455 heartbeat IPC: 0.570884 cumulative IPC: 0.588287 (Simulation time: 6 hr 7 min 11 sec) 
Heartbeat CPU 3 instructions: 1710000000 cycles: 2652225598 heartbeat IPC: 0.644578 cumulative IPC: 0.589162 (Simulation time: 6 hr 8 min 4 sec) 
Heartbeat CPU 1 instructions: 1730000003 cycles: 2662327061 heartbeat IPC: 0.571246 cumulative IPC: 0.58817 (Simulation time: 6 hr 9 min 17 sec) 
Heartbeat CPU 3 instructions: 1720000000 cycles: 2667599321 heartbeat IPC: 0.650461 cumulative IPC: 0.58953 (Simulation time: 6 hr 9 min 53 sec) 
Heartbeat CPU 2 instructions: 1240000000 cycles: 2668139630 heartbeat IPC: 0.312133 cumulative IPC: 0.400302 (Simulation time: 6 hr 9 min 57 sec) 
Heartbeat CPU 1 instructions: 1740000000 cycles: 2679802976 heartbeat IPC: 0.572216 cumulative IPC: 0.588062 (Simulation time: 6 hr 11 min 21 sec) 
Heartbeat CPU 3 instructions: 1730000003 cycles: 2682623614 heartbeat IPC: 0.665589 cumulative IPC: 0.589974 (Simulation time: 6 hr 11 min 41 sec) 
Heartbeat CPU 2 instructions: 1250000001 cycles: 2695335703 heartbeat IPC: 0.3677 cumulative IPC: 0.39996 (Simulation time: 6 hr 13 min 16 sec) 
Heartbeat CPU 1 instructions: 1750000002 cycles: 2697241713 heartbeat IPC: 0.573436 cumulative IPC: 0.587964 (Simulation time: 6 hr 13 min 30 sec) 
Heartbeat CPU 3 instructions: 1740000000 cycles: 2698093670 heartbeat IPC: 0.64641 cumulative IPC: 0.59031 (Simulation time: 6 hr 13 min 37 sec) 
Heartbeat CPU 0 instructions: 380000000 cycles: 2711399937 heartbeat IPC: 0.075253 cumulative IPC: 0.0690839 (Simulation time: 6 hr 15 min 17 sec) 
Heartbeat CPU 3 instructions: 1750000000 cycles: 2713361968 heartbeat IPC: 0.654952 cumulative IPC: 0.590689 (Simulation time: 6 hr 15 min 32 sec) 
Heartbeat CPU 1 instructions: 1760000000 cycles: 2714542170 heartbeat IPC: 0.578019 cumulative IPC: 0.587898 (Simulation time: 6 hr 15 min 41 sec) 
Heartbeat CPU 2 instructions: 1260000000 cycles: 2718346668 heartbeat IPC: 0.434575 cumulative IPC: 0.400265 (Simulation time: 6 hr 16 min 8 sec) 
Heartbeat CPU 3 instructions: 1760000000 cycles: 2728982565 heartbeat IPC: 0.64018 cumulative IPC: 0.590984 (Simulation time: 6 hr 17 min 34 sec) 
Heartbeat CPU 1 instructions: 1770000000 cycles: 2731845586 heartbeat IPC: 0.577921 cumulative IPC: 0.587832 (Simulation time: 6 hr 17 min 57 sec) 
Heartbeat CPU 2 instructions: 1270000003 cycles: 2736668858 heartbeat IPC: 0.545786 cumulative IPC: 0.401278 (Simulation time: 6 hr 18 min 34 sec) 
Heartbeat CPU 3 instructions: 1770000001 cycles: 2744498583 heartbeat IPC: 0.644495 cumulative IPC: 0.591298 (Simulation time: 6 hr 19 min 33 sec) 
Heartbeat CPU 1 instructions: 1780000000 cycles: 2749094979 heartbeat IPC: 0.579731 cumulative IPC: 0.587779 (Simulation time: 6 hr 20 min 7 sec) 
Heartbeat CPU 2 instructions: 1280000000 cycles: 2759182844 heartbeat IPC: 0.444168 cumulative IPC: 0.401642 (Simulation time: 6 hr 21 min 23 sec) 
Heartbeat CPU 3 instructions: 1780000000 cycles: 2759963240 heartbeat IPC: 0.646636 cumulative IPC: 0.591621 (Simulation time: 6 hr 21 min 29 sec) 
Heartbeat CPU 1 instructions: 1790000000 cycles: 2766216934 heartbeat IPC: 0.584045 cumulative IPC: 0.587755 (Simulation time: 6 hr 22 min 15 sec) 
Heartbeat CPU 3 instructions: 1790000003 cycles: 2775337556 heartbeat IPC: 0.650436 cumulative IPC: 0.59196 (Simulation time: 6 hr 23 min 26 sec) 
Heartbeat CPU 2 instructions: 1290000001 cycles: 2781121848 heartbeat IPC: 0.455809 cumulative IPC: 0.402087 (Simulation time: 6 hr 24 min 9 sec) 
Heartbeat CPU 1 instructions: 1800000000 cycles: 2783419982 heartbeat IPC: 0.581292 cumulative IPC: 0.587714 (Simulation time: 6 hr 24 min 26 sec) 
Heartbeat CPU 3 instructions: 1800000000 cycles: 2790926500 heartbeat IPC: 0.64148 cumulative IPC: 0.592247 (Simulation time: 6 hr 25 min 24 sec) 
Heartbeat CPU 2 instructions: 1300000000 cycles: 2798537144 heartbeat IPC: 0.574208 cumulative IPC: 0.4032 (Simulation time: 6 hr 26 min 21 sec) 
Heartbeat CPU 1 instructions: 1810000002 cycles: 2800674300 heartbeat IPC: 0.579565 cumulative IPC: 0.587661 (Simulation time: 6 hr 26 min 37 sec) 
Heartbeat CPU 3 instructions: 1810000000 cycles: 2806129085 heartbeat IPC: 0.657783 cumulative IPC: 0.592616 (Simulation time: 6 hr 27 min 18 sec) 
Heartbeat CPU 1 instructions: 1820000000 cycles: 2817913841 heartbeat IPC: 0.580062 cumulative IPC: 0.587613 (Simulation time: 6 hr 28 min 41 sec) 
Heartbeat CPU 3 instructions: 1820000000 cycles: 2821659054 heartbeat IPC: 0.643916 cumulative IPC: 0.592909 (Simulation time: 6 hr 29 min 9 sec) 
Heartbeat CPU 2 instructions: 1310000002 cycles: 2826215589 heartbeat IPC: 0.361292 cumulative IPC: 0.402773 (Simulation time: 6 hr 29 min 42 sec) 
Heartbeat CPU 1 instructions: 1830000001 cycles: 2835123150 heartbeat IPC: 0.581081 cumulative IPC: 0.587572 (Simulation time: 6 hr 30 min 45 sec) 
Heartbeat CPU 3 instructions: 1830000001 cycles: 2837092942 heartbeat IPC: 0.647925 cumulative IPC: 0.59322 (Simulation time: 6 hr 31 min 0 sec) 
Heartbeat CPU 0 instructions: 390000001 cycles: 2846543155 heartbeat IPC: 0.0739956 cumulative IPC: 0.0693261 (Simulation time: 6 hr 32 min 8 sec) 
Heartbeat CPU 1 instructions: 1840000000 cycles: 2852355654 heartbeat IPC: 0.580299 cumulative IPC: 0.587526 (Simulation time: 6 hr 32 min 50 sec) 
Heartbeat CPU 3 instructions: 1840000000 cycles: 2852542647 heartbeat IPC: 0.647262 cumulative IPC: 0.593524 (Simulation time: 6 hr 32 min 51 sec) 
[...]
Heartbeat CPU 2 instructions: 6050000000 cycles: 14067195371 heartbeat IPC: 0.417747 cumulative IPC: 0.417989 (Simulation time: 27 hr 32 min 32 sec) 
Heartbeat CPU 3 instructions: 8310000000 cycles: 14073194426 heartbeat IPC: 0.534454 cumulative IPC: 0.57994 (Simulation time: 27 hr 33 min 9 sec) 
Heartbeat CPU 1 instructions: 8610000002 cycles: 14079839383 heartbeat IPC: 0.498487 cumulative IPC: 0.599946 (Simulation time: 27 hr 33 min 50 sec) 
Heartbeat CPU 2 instructions: 6060000000 cycles: 14090066388 heartbeat IPC: 0.437235 cumulative IPC: 0.418021 (Simulation time: 27 hr 34 min 58 sec) 
Heartbeat CPU 3 instructions: 8320000000 cycles: 14091971034 heartbeat IPC: 0.532578 cumulative IPC: 0.579877 (Simulation time: 27 hr 35 min 11 sec) 
Heartbeat CPU 1 instructions: 8620000000 cycles: 14102676971 heartbeat IPC: 0.437875 cumulative IPC: 0.599682 (Simulation time: 27 hr 36 min 19 sec) 
Heartbeat CPU 3 instructions: 8330000001 cycles: 14110820129 heartbeat IPC: 0.530529 cumulative IPC: 0.57981 (Simulation time: 27 hr 37 min 9 sec) 
Heartbeat CPU 2 instructions: 6070000002 cycles: 14113673061 heartbeat IPC: 0.423609 cumulative IPC: 0.41803 (Simulation time: 27 hr 37 min 26 sec) 
Heartbeat CPU 1 instructions: 8630000002 cycles: 14123113571 heartbeat IPC: 0.489318 cumulative IPC: 0.599521 (Simulation time: 27 hr 38 min 29 sec) 
Heartbeat CPU 3 instructions: 8340000000 cycles: 14131670587 heartbeat IPC: 0.479606 cumulative IPC: 0.579661 (Simulation time: 27 hr 39 min 17 sec) 
Heartbeat CPU 2 instructions: 6080000000 cycles: 14138531168 heartbeat IPC: 0.402283 cumulative IPC: 0.418002 (Simulation time: 27 hr 39 min 53 sec) 
Heartbeat CPU 1 instructions: 8640000000 cycles: 14145978371 heartbeat IPC: 0.437353 cumulative IPC: 0.599257 (Simulation time: 27 hr 40 min 32 sec) 
Heartbeat CPU 2 instructions: 6090000002 cycles: 14161682072 heartbeat IPC: 0.431949 cumulative IPC: 0.418025 (Simulation time: 27 hr 41 min 49 sec) 
Heartbeat CPU 3 instructions: 8350000003 cycles: 14165158922 heartbeat IPC: 0.298612 cumulative IPC: 0.578992 (Simulation time: 27 hr 42 min 7 sec) 
Heartbeat CPU 1 instructions: 8650000000 cycles: 14171251534 heartbeat IPC: 0.395677 cumulative IPC: 0.598891 (Simulation time: 27 hr 42 min 43 sec) 
Heartbeat CPU 2 instructions: 6100000000 cycles: 14184545765 heartbeat IPC: 0.437375 cumulative IPC: 0.418057 (Simulation time: 27 hr 44 min 4 sec) 
Heartbeat CPU 0 instructions: 1190000003 cycles: 14186573593 heartbeat IPC: 0.0625485 cumulative IPC: 0.070309 (Simulation time: 27 hr 44 min 14 sec) 
Heartbeat CPU 3 instructions: 8360000000 cycles: 14188564835 heartbeat IPC: 0.427242 cumulative IPC: 0.57874 (Simulation time: 27 hr 44 min 25 sec) 
Heartbeat CPU 1 instructions: 8660000000 cycles: 14191209901 heartbeat IPC: 0.501043 cumulative IPC: 0.598752 (Simulation time: 27 hr 44 min 40 sec) 
Heartbeat CPU 3 instructions: 8370000002 cycles: 14212150603 heartbeat IPC: 0.423985 cumulative IPC: 0.578481 (Simulation time: 27 hr 46 min 41 sec) 
Heartbeat CPU 1 instructions: 8670000001 cycles: 14215366314 heartbeat IPC: 0.413969 cumulative IPC: 0.598436 (Simulation time: 27 hr 46 min 58 sec) 
Heartbeat CPU 2 instructions: 6110000000 cycles: 14217038447 heartbeat IPC: 0.307762 cumulative IPC: 0.417803 (Simulation time: 27 hr 47 min 8 sec) 
Heartbeat CPU 3 instructions: 8380000000 cycles: 14235713164 heartbeat IPC: 0.424402 cumulative IPC: 0.578224 (Simulation time: 27 hr 48 min 54 sec) 
Heartbeat CPU 1 instructions: 8680000000 cycles: 14236064370 heartbeat IPC: 0.483137 cumulative IPC: 0.598267 (Simulation time: 27 hr 48 min 56 sec) 
Heartbeat CPU 2 instructions: 6120000000 cycles: 14250371287 heartbeat IPC: 0.300004 cumulative IPC: 0.417525 (Simulation time: 27 hr 50 min 18 sec) 
Heartbeat CPU 1 instructions: 8690000000 cycles: 14257002761 heartbeat IPC: 0.477592 cumulative IPC: 0.598089 (Simulation time: 27 hr 50 min 52 sec) 
Heartbeat CPU 3 instructions: 8390000001 cycles: 14262834571 heartbeat IPC: 0.368712 cumulative IPC: 0.577823 (Simulation time: 27 hr 51 min 23 sec) 
Heartbeat CPU 2 instructions: 6130000002 cycles: 14277946521 heartbeat IPC: 0.362644 cumulative IPC: 0.417418 (Simulation time: 27 hr 52 min 37 sec) 
Heartbeat CPU 1 instructions: 8700000000 cycles: 14286326142 heartbeat IPC: 0.341025 cumulative IPC: 0.597557 (Simulation time: 27 hr 53 min 18 sec) 
Heartbeat CPU 3 instructions: 8400000000 cycles: 14292066323 heartbeat IPC: 0.342094 cumulative IPC: 0.577337 (Simulation time: 27 hr 53 min 51 sec) 
Heartbeat CPU 2 instructions: 6140000000 cycles: 14306359055 heartbeat IPC: 0.351957 cumulative IPC: 0.417287 (Simulation time: 27 hr 55 min 19 sec) 
Heartbeat CPU 1 instructions: 8710000001 cycles: 14309038455 heartbeat IPC: 0.44029 cumulative IPC: 0.597306 (Simulation time: 27 hr 55 min 40 sec) 
Heartbeat CPU 3 instructions: 8410000000 cycles: 14309499265 heartbeat IPC: 0.573627 cumulative IPC: 0.577332 (Simulation time: 27 hr 55 min 44 sec) 
Heartbeat CPU 1 instructions: 8720000000 cycles: 14321321950 heartbeat IPC: 0.8141 cumulative IPC: 0.597493 (Simulation time: 27 hr 57 min 11 sec) 
Heartbeat CPU 3 instructions: 8420000000 cycles: 14326020273 heartbeat IPC: 0.60529 cumulative IPC: 0.577365 (Simulation time: 27 hr 57 min 44 sec) 
Heartbeat CPU 2 instructions: 6150000002 cycles: 14331196703 heartbeat IPC: 0.402615 cumulative IPC: 0.417262 (Simulation time: 27 hr 58 min 20 sec) 
Heartbeat CPU 1 instructions: 8730000002 cycles: 14335694597 heartbeat IPC: 0.695766 cumulative IPC: 0.597592 (Simulation time: 27 hr 58 min 52 sec) 
Heartbeat CPU 3 instructions: 8430000000 cycles: 14342465620 heartbeat IPC: 0.608075 cumulative IPC: 0.5774 (Simulation time: 27 hr 59 min 41 sec) 
Heartbeat CPU 0 instructions: 1200000000 cycles: 14345132847 heartbeat IPC: 0.0630679 cumulative IPC: 0.0702284 (Simulation time: 27 hr 59 min 59 sec) 
Finished CPU 0 instructions: 1000000000 cycles: 14239261508 cumulative IPC: 0.0702284 (Simulation time: 27 hr 59 min 59 sec) 

CPU 0 Branch Prediction Accuracy: 99.528% MPKI: 1.65759

CPU 1 Branch Prediction Accuracy: 98.6902% MPKI: 1.03247

CPU 2 Branch Prediction Accuracy: 99.8409% MPKI: 0.104574

CPU 3 Branch Prediction Accuracy: 99.8584% MPKI: 0.0918646

ChampSim completed all CPUs

Total Simulation Statistics (not including warmup)

CPU 0 cumulative IPC: 0.0702284 instructions: 1000000000 cycles: 14239261508
L1D TOTAL     ACCESS:  159345853  HIT:   87597084  MISS:   71748769
L1D LOAD      ACCESS:  143684596  HIT:   71984691  MISS:   71699905
L1D RFO       ACCESS:   15661257  HIT:   15612393  MISS:      48864
L1D PREFETCH  ACCESS:          0  HIT:          0  MISS:          0
L1D WRITEBACK ACCESS:          0  HIT:          0  MISS:          0
L1I TOTAL     ACCESS:  363178130  HIT:  363178066  MISS:         64
L1I LOAD      ACCESS:  363178130  HIT:  363178066  MISS:         64
L1I RFO       ACCESS:          0  HIT:          0  MISS:          0
L1I PREFETCH  ACCESS:          0  HIT:          0  MISS:          0
L1I WRITEBACK ACCESS:          0  HIT:          0  MISS:          0
L2C TOTAL     ACCESS:   72022498  HIT:    2706856  MISS:   69315642
L2C LOAD      ACCESS:   71699969  HIT:    2425531  MISS:   69274438
L2C RFO       ACCESS:      48864  HIT:       7727  MISS:      41137
L2C PREFETCH  ACCESS:          0  HIT:          0  MISS:          0
L2C WRITEBACK ACCESS:     273665  HIT:     273598  MISS:         67
LLC TOTAL     ACCESS:   69444300  HIT:     224943  MISS:   69219357
LLC LOAD      ACCESS:   69274438  HIT:      89310  MISS:   69185128
LLC RFO       ACCESS:      41137  HIT:       7169  MISS:      33968
LLC PREFETCH  ACCESS:          0  HIT:          0  MISS:          0
LLC WRITEBACK ACCESS:     128725  HIT:     128464  MISS:        261

CPU 1 cumulative IPC: 0.597623 instructions: 8509704706 cycles: 14239261509
L1D TOTAL     ACCESS: 1945642350  HIT: 1851011026  MISS:   94631324
L1D LOAD      ACCESS: 1552636117  HIT: 1477049661  MISS:   75586456
L1D RFO       ACCESS:  393006233  HIT:  373961365  MISS:   19044868
L1D PREFETCH  ACCESS:          0  HIT:          0  MISS:          0
L1D WRITEBACK ACCESS:          0  HIT:          0  MISS:          0
L1I TOTAL     ACCESS: 2691911639  HIT: 2691583348  MISS:     328291
L1I LOAD      ACCESS: 2691911639  HIT: 2691583348  MISS:     328291
L1I RFO       ACCESS:          0  HIT:          0  MISS:          0
L1I PREFETCH  ACCESS:          0  HIT:          0  MISS:          0
L1I WRITEBACK ACCESS:          0  HIT:          0  MISS:          0
L2C TOTAL     ACCESS:  130066665  HIT:   64698337  MISS:   65368328
L2C LOAD      ACCESS:   75913495  HIT:   24197864  MISS:   51715631
L2C RFO       ACCESS:   18899942  HIT:    5292273  MISS:   13607669
L2C PREFETCH  ACCESS:          0  HIT:          0  MISS:          0
L2C WRITEBACK ACCESS:   35253228  HIT:   35208200  MISS:      45028
LLC TOTAL     ACCESS:   92687848  HIT:   40520524  MISS:   52167324
LLC LOAD      ACCESS:   51715595  HIT:   10874674  MISS:   40840921
LLC RFO       ACCESS:   13607665  HIT:    2740512  MISS:   10867153
LLC PREFETCH  ACCESS:          0  HIT:          0  MISS:          0
LLC WRITEBACK ACCESS:   27364588  HIT:   26905338  MISS:     459250

CPU 2 cumulative IPC: 0.417269 instructions: 5941608715 cycles: 14239261509
L1D TOTAL     ACCESS: 1432346703  HIT: 1274039965  MISS:  158306738
L1D LOAD      ACCESS: 1182576331  HIT: 1056440090  MISS:  126136241
L1D RFO       ACCESS:  249770372  HIT:  217599875  MISS:   32170497
L1D PREFETCH  ACCESS:          0  HIT:          0  MISS:          0
L1D WRITEBACK ACCESS:          0  HIT:          0  MISS:          0
L1I TOTAL     ACCESS: 1552320991  HIT: 1552320874  MISS:        117
L1I LOAD      ACCESS: 1552320991  HIT: 1552320874  MISS:        117
L1I RFO       ACCESS:          0  HIT:          0  MISS:          0
L1I PREFETCH  ACCESS:          0  HIT:          0  MISS:          0
L1I WRITEBACK ACCESS:          0  HIT:          0  MISS:          0
L2C TOTAL     ACCESS:  202096452  HIT:   67288747  MISS:  134807705
L2C LOAD      ACCESS:  126136327  HIT:   23494311  MISS:  102642016
L2C RFO       ACCESS:   32170497  HIT:      36053  MISS:   32134444
L2C PREFETCH  ACCESS:          0  HIT:          0  MISS:          0
L2C WRITEBACK ACCESS:   43789628  HIT:   43758383  MISS:      31245
LLC TOTAL     ACCESS:  178260400  HIT:   58099507  MISS:  120160893
LLC LOAD      ACCESS:  102641997  HIT:   11733785  MISS:   90908212
LLC RFO       ACCESS:   32134444  HIT:    2883011  MISS:   29251433
LLC PREFETCH  ACCESS:          0  HIT:          0  MISS:          0
LLC WRITEBACK ACCESS:   43483959  HIT:   43482711  MISS:       1248

CPU 3 cumulative IPC: 0.57739 instructions: 8221603078 cycles: 14239261509
L1D TOTAL     ACCESS: 3086801495  HIT: 2863339546  MISS:  223461949
L1D LOAD      ACCESS: 2348760969  HIT: 2153618197  MISS:  195142772
L1D RFO       ACCESS:  738040526  HIT:  709721349  MISS:   28319177
L1D PREFETCH  ACCESS:          0  HIT:          0  MISS:          0
L1D WRITEBACK ACCESS:          0  HIT:          0  MISS:          0
L1I TOTAL     ACCESS: 2722187119  HIT: 2722186573  MISS:        546
L1I LOAD      ACCESS: 2722187119  HIT: 2722186573  MISS:        546
L1I RFO       ACCESS:          0  HIT:          0  MISS:          0
L1I PREFETCH  ACCESS:          0  HIT:          0  MISS:          0
L1I WRITEBACK ACCESS:          0  HIT:          0  MISS:          0
L2C TOTAL     ACCESS:  260360432  HIT:  177948270  MISS:   82412162
L2C LOAD      ACCESS:  195132203  HIT:  131643372  MISS:   63488831
L2C RFO       ACCESS:   28314065  HIT:    9411421  MISS:   18902644
L2C PREFETCH  ACCESS:          0  HIT:          0  MISS:          0
L2C WRITEBACK ACCESS:   36914164  HIT:   36893477  MISS:      20687
LLC TOTAL     ACCESS:  108151671  HIT:   65683348  MISS:   42468323
LLC LOAD      ACCESS:   63488814  HIT:   29749919  MISS:   33738895
LLC RFO       ACCESS:   18902644  HIT:   10542995  MISS:    8359649
LLC PREFETCH  ACCESS:          0  HIT:          0  MISS:          0
LLC WRITEBACK ACCESS:   25760213  HIT:   25390434  MISS:     369779

Region of Interest Statistics

CPU 0 cumulative IPC: 0.0702284 instructions: 1000000000 cycles: 14239261508
L1D TOTAL     ACCESS:  159345853  HIT:   87597084  MISS:   71748769
L1D LOAD      ACCESS:  143684596  HIT:   71984691  MISS:   71699905
L1D RFO       ACCESS:   15661257  HIT:   15612393  MISS:      48864
L1D PREFETCH  ACCESS:          0  HIT:          0  MISS:          0
L1D WRITEBACK ACCESS:          0  HIT:          0  MISS:          0
L1D PREFETCH  REQUESTED:          0  ISSUED:          0  USEFUL:          0  USELESS:          0
L1I TOTAL     ACCESS:  363178130  HIT:  363178066  MISS:         64
L1I LOAD      ACCESS:  363178130  HIT:  363178066  MISS:         64
L1I RFO       ACCESS:          0  HIT:          0  MISS:          0
L1I PREFETCH  ACCESS:          0  HIT:          0  MISS:          0
L1I WRITEBACK ACCESS:          0  HIT:          0  MISS:          0
L1I PREFETCH  REQUESTED:          0  ISSUED:          0  USEFUL:          0  USELESS:          0
L2C TOTAL     ACCESS:   72022498  HIT:    2706856  MISS:   69315642
L2C LOAD      ACCESS:   71699969  HIT:    2425531  MISS:   69274438
L2C RFO       ACCESS:      48864  HIT:       7727  MISS:      41137
L2C PREFETCH  ACCESS:          0  HIT:          0  MISS:          0
L2C WRITEBACK ACCESS:     273665  HIT:     273598  MISS:         67
L2C PREFETCH  REQUESTED:          0  ISSUED:          0  USEFUL:          0  USELESS:          0
LLC TOTAL     ACCESS:   69444300  HIT:     224943  MISS:   69219357
LLC LOAD      ACCESS:   69274438  HIT:      89310  MISS:   69185128
LLC RFO       ACCESS:      41137  HIT:       7169  MISS:      33968
LLC PREFETCH  ACCESS:          0  HIT:          0  MISS:          0
LLC WRITEBACK ACCESS:     128725  HIT:     128464  MISS:        261
LLC PREFETCH  REQUESTED:          0  ISSUED:          0  USEFUL:          0  USELESS:          0
Major fault: 0 Minor fault: 56669

CPU 1 cumulative IPC: 0.588869 instructions: 1000000002 cycles: 1698170334
L1D TOTAL     ACCESS:  249603220  HIT:  234433422  MISS:   15169798
L1D LOAD      ACCESS:  202056035  HIT:  189665688  MISS:   12390347
L1D RFO       ACCESS:   47547185  HIT:   44767734  MISS:    2779451
L1D PREFETCH  ACCESS:          0  HIT:          0  MISS:          0
L1D WRITEBACK ACCESS:          0  HIT:          0  MISS:          0
L1D PREFETCH  REQUESTED:          0  ISSUED:          0  USEFUL:          0  USELESS:          0
L1I TOTAL     ACCESS:  291985607  HIT:  291938360  MISS:      47247
L1I LOAD      ACCESS:  291985607  HIT:  291938360  MISS:      47247
L1I RFO       ACCESS:          0  HIT:          0  MISS:          0
L1I PREFETCH  ACCESS:          0  HIT:          0  MISS:          0
L1I WRITEBACK ACCESS:          0  HIT:          0  MISS:          0
L1I PREFETCH  REQUESTED:          0  ISSUED:          0  USEFUL:          0  USELESS:          0
L2C TOTAL     ACCESS:   20546806  HIT:    9993029  MISS:   10553777
L2C LOAD      ACCESS:   12437401  HIT:    3868166  MISS:    8569235
L2C RFO       ACCESS:    2764709  HIT:     785989  MISS:    1978720
L2C PREFETCH  ACCESS:          0  HIT:          0  MISS:          0
L2C WRITEBACK ACCESS:    5344696  HIT:    5338874  MISS:       5822
L2C PREFETCH  REQUESTED:          0  ISSUED:          0  USEFUL:          0  USELESS:          0
LLC TOTAL     ACCESS:   14669006  HIT:    6061973  MISS:    8607033
LLC LOAD      ACCESS:    8569229  HIT:    1582732  MISS:    6986497
LLC RFO       ACCESS:    1978720  HIT:     425260  MISS:    1553460
LLC PREFETCH  ACCESS:          0  HIT:          0  MISS:          0
LLC WRITEBACK ACCESS:    4121057  HIT:    4053981  MISS:      67076
LLC PREFETCH  REQUESTED:          0  ISSUED:          0  USEFUL:          0  USELESS:          0
Major fault: 0 Minor fault: 17750

CPU 2 cumulative IPC: 0.40128 instructions: 1000000002 cycles: 2492023422
L1D TOTAL     ACCESS:  242079272  HIT:  216036589  MISS:   26042683
L1D LOAD      ACCESS:  205805052  HIT:  185569392  MISS:   20235660
L1D RFO       ACCESS:   36274220  HIT:   30467197  MISS:    5807023
L1D PREFETCH  ACCESS:          0  HIT:          0  MISS:          0
L1D WRITEBACK ACCESS:          0  HIT:          0  MISS:          0
L1D PREFETCH  REQUESTED:          0  ISSUED:          0  USEFUL:          0  USELESS:          0
L1I TOTAL     ACCESS:  259874665  HIT:  259874665  MISS:          0
L1I LOAD      ACCESS:  259874665  HIT:  259874665  MISS:          0
L1I RFO       ACCESS:          0  HIT:          0  MISS:          0
L1I PREFETCH  ACCESS:          0  HIT:          0  MISS:          0
L1I WRITEBACK ACCESS:          0  HIT:          0  MISS:          0
L1I PREFETCH  REQUESTED:          0  ISSUED:          0  USEFUL:          0  USELESS:          0
L2C TOTAL     ACCESS:   33496520  HIT:   11240949  MISS:   22255571
L2C LOAD      ACCESS:   20235657  HIT:    3787428  MISS:   16448229
L2C RFO       ACCESS:    5807023  HIT:         33  MISS:    5806990
L2C PREFETCH  ACCESS:          0  HIT:          0  MISS:          0
L2C WRITEBACK ACCESS:    7453840  HIT:    7453488  MISS:        352
L2C PREFETCH  REQUESTED:          0  ISSUED:          0  USEFUL:          0  USELESS:          0
LLC TOTAL     ACCESS:   29660146  HIT:    7499560  MISS:   22160586
LLC LOAD      ACCESS:   16448229  HIT:      94621  MISS:   16353608
LLC RFO       ACCESS:    5806990  HIT:        236  MISS:    5806754
LLC PREFETCH  ACCESS:          0  HIT:          0  MISS:          0
LLC WRITEBACK ACCESS:    7404927  HIT:    7404703  MISS:        224
LLC PREFETCH  REQUESTED:          0  ISSUED:          0  USEFUL:          0  USELESS:          0
Major fault: 0 Minor fault: 209522

CPU 3 cumulative IPC: 0.570242 instructions: 1000000002 cycles: 1753640875
L1D TOTAL     ACCESS:  406613535  HIT:  373518189  MISS:   33095346
L1D LOAD      ACCESS:  318678497  HIT:  289669052  MISS:   29009445
L1D RFO       ACCESS:   87935038  HIT:   83849137  MISS:    4085901
L1D PREFETCH  ACCESS:          0  HIT:          0  MISS:          0
L1D WRITEBACK ACCESS:          0  HIT:          0  MISS:          0
L1D PREFETCH  REQUESTED:          0  ISSUED:          0  USEFUL:          0  USELESS:          0
L1I TOTAL     ACCESS:  311601055  HIT:  311600722  MISS:        333
L1I LOAD      ACCESS:  311601055  HIT:  311600722  MISS:        333
L1I RFO       ACCESS:          0  HIT:          0  MISS:          0
L1I PREFETCH  ACCESS:          0  HIT:          0  MISS:          0
L1I WRITEBACK ACCESS:          0  HIT:          0  MISS:          0
L1I PREFETCH  REQUESTED:          0  ISSUED:          0  USEFUL:          0  USELESS:          0
L2C TOTAL     ACCESS:   38491587  HIT:   26438588  MISS:   12052999
L2C LOAD      ACCESS:   29008092  HIT:   19656908  MISS:    9351184
L2C RFO       ACCESS:    4084938  HIT:    1385948  MISS:    2698990
L2C PREFETCH  ACCESS:          0  HIT:          0  MISS:          0
L2C WRITEBACK ACCESS:    5398557  HIT:    5395732  MISS:       2825
L2C PREFETCH  REQUESTED:          0  ISSUED:          0  USEFUL:          0  USELESS:          0
LLC TOTAL     ACCESS:   15800951  HIT:   10169975  MISS:    5630976
LLC LOAD      ACCESS:    9351180  HIT:    4751127  MISS:    4600053
LLC RFO       ACCESS:    2698990  HIT:    1710101  MISS:     988889
LLC PREFETCH  ACCESS:          0  HIT:          0  MISS:          0
LLC WRITEBACK ACCESS:    3750781  HIT:    3708747  MISS:      42034
LLC PREFETCH  REQUESTED:          0  ISSUED:          0  USEFUL:          0  USELESS:          0
Major fault: 0 Minor fault: 165677

DRAM Statistics
 CHANNEL 0
 RQ ROW_BUFFER_HIT:   56956993  ROW_BUFFER_MISS:   84624514
 DBUS_CONGESTED:  128992109
 WQ ROW_BUFFER_HIT:    3252279  ROW_BUFFER_MISS:   32245683  FULL:          0

 CHANNEL 1
 RQ ROW_BUFFER_HIT:   56950298  ROW_BUFFER_MISS:   84622971
 DBUS_CONGESTED:  128992109
 WQ ROW_BUFFER_HIT:    3253620  ROW_BUFFER_MISS:   32245361  FULL:          0

 AVG_CONGESTED_CYCLE: 12
