
*** ChampSim Multicore Out-of-Order Simulator ***

Warmup Instructions: 200000000
Simulation Instructions: 1000000000
Number of CPUs: 4
LLC sets: 8192
LLC ways: 16
Off-chip DRAM Size: 8192 MB Channels: 2 Width: 64-bit Data Rate: 1600 MT/s

CPU 0 runs /scratch/user/djimenez/champsim-traces/speccpu2017/xz/602.gcc_s/602.gcc_s-2226B.champsimtrace.xz
CPU 1 runs /scratch/user/djimenez/champsim-traces/speccpu2017/xz/619.lbm_s/619.lbm_s-2677B.champsimtrace.xz
CPU 2 runs /scratch/user/djimenez/champsim-traces/speccpu2017/xz/657.xz_s/657.xz_s-2302B.champsimtrace.xz
CPU 3 runs /scratch/user/djimenez/champsim-traces/speccpu2017/xz/621.wrf_s/621.wrf_s-6673B.champsimtrace.xz
Heartbeat CPU 2 instructions: 10000002 cycles: 4462389 heartbeat IPC: 2.24095 cumulative IPC: 2.24095 (Simulation time: 0 hr 2 min 36 sec) 
Heartbeat CPU 1 instructions: 10000001 cycles: 4915245 heartbeat IPC: 2.03449 cumulative IPC: 2.03449 (Simulation time: 0 hr 2 min 53 sec) 
Heartbeat CPU 0 instructions: 10000000 cycles: 5295746 heartbeat IPC: 1.88831 cumulative IPC: 1.88831 (Simulation time: 0 hr 3 min 7 sec) 
Heartbeat CPU 3 instructions: 10000001 cycles: 5378008 heartbeat IPC: 1.85942 cumulative IPC: 1.85942 (Simulation time: 0 hr 3 min 10 sec) 
Heartbeat CPU 2 instructions: 20000000 cycles: 8892443 heartbeat IPC: 2.25731 cumulative IPC: 2.2491 (Simulation time: 0 hr 5 min 33 sec) 
Heartbeat CPU 3 instructions: 20000000 cycles: 9454308 heartbeat IPC: 2.4532 cumulative IPC: 2.11544 (Simulation time: 0 hr 5 min 56 sec) 
Heartbeat CPU 1 instructions: 20000000 cycles: 9799645 heartbeat IPC: 2.04733 cumulative IPC: 2.04089 (Simulation time: 0 hr 6 min 9 sec) 
Heartbeat CPU 0 instructions: 20000000 cycles: 10596891 heartbeat IPC: 1.88638 cumulative IPC: 1.88735 (Simulation time: 0 hr 6 min 41 sec) 
Heartbeat CPU 3 instructions: 30000002 cycles: 13209291 heartbeat IPC: 2.66313 cumulative IPC: 2.27113 (Simulation time: 0 hr 8 min 13 sec) 
Heartbeat CPU 2 instructions: 30000003 cycles: 13418166 heartbeat IPC: 2.20959 cumulative IPC: 2.23578 (Simulation time: 0 hr 8 min 20 sec) 
Heartbeat CPU 1 instructions: 30000000 cycles: 14710019 heartbeat IPC: 2.0365 cumulative IPC: 2.03943 (Simulation time: 0 hr 9 min 7 sec) 
Heartbeat CPU 0 instructions: 30000000 cycles: 15896884 heartbeat IPC: 1.88679 cumulative IPC: 1.88716 (Simulation time: 0 hr 9 min 50 sec) 
Heartbeat CPU 3 instructions: 40000000 cycles: 17357845 heartbeat IPC: 2.41048 cumulative IPC: 2.30443 (Simulation time: 0 hr 10 min 48 sec) 
Heartbeat CPU 2 instructions: 40000000 cycles: 17912050 heartbeat IPC: 2.22525 cumulative IPC: 2.23313 (Simulation time: 0 hr 11 min 9 sec) 
Heartbeat CPU 1 instructions: 40000000 cycles: 19607228 heartbeat IPC: 2.04198 cumulative IPC: 2.04006 (Simulation time: 0 hr 12 min 14 sec) 
Heartbeat CPU 0 instructions: 40000000 cycles: 21198284 heartbeat IPC: 1.88629 cumulative IPC: 1.88695 (Simulation time: 0 hr 13 min 18 sec) 
Heartbeat CPU 3 instructions: 50000000 cycles: 21506031 heartbeat IPC: 2.41069 cumulative IPC: 2.32493 (Simulation time: 0 hr 13 min 28 sec) 
Heartbeat CPU 2 instructions: 50000003 cycles: 22443682 heartbeat IPC: 2.20671 cumulative IPC: 2.2278 (Simulation time: 0 hr 14 min 1 sec) 
Heartbeat CPU 1 instructions: 50000000 cycles: 24532083 heartbeat IPC: 2.03052 cumulative IPC: 2.03815 (Simulation time: 0 hr 15 min 17 sec) 
Heartbeat CPU 3 instructions: 60000000 cycles: 26374485 heartbeat IPC: 2.05404 cumulative IPC: 2.27493 (Simulation time: 0 hr 16 min 23 sec) 
Heartbeat CPU 0 instructions: 50000003 cycles: 26499447 heartbeat IPC: 1.88638 cumulative IPC: 1.88683 (Simulation time: 0 hr 16 min 28 sec) 
Heartbeat CPU 2 instructions: 60000000 cycles: 26905495 heartbeat IPC: 2.24124 cumulative IPC: 2.23003 (Simulation time: 0 hr 16 min 42 sec) 
Heartbeat CPU 1 instructions: 60000000 cycles: 29449604 heartbeat IPC: 2.03355 cumulative IPC: 2.03738 (Simulation time: 0 hr 18 min 6 sec) 
Heartbeat CPU 3 instructions: 70000003 cycles: 31137175 heartbeat IPC: 2.09965 cumulative IPC: 2.24812 (Simulation time: 0 hr 19 min 1 sec) 
Heartbeat CPU 2 instructions: 70000002 cycles: 31323492 heartbeat IPC: 2.26347 cumulative IPC: 2.23474 (Simulation time: 0 hr 19 min 8 sec) 
Heartbeat CPU 0 instructions: 60000000 cycles: 31807320 heartbeat IPC: 1.88399 cumulative IPC: 1.88636 (Simulation time: 0 hr 19 min 24 sec) 
Heartbeat CPU 1 instructions: 70000000 cycles: 34352521 heartbeat IPC: 2.0396 cumulative IPC: 2.0377 (Simulation time: 0 hr 20 min 48 sec) 
Heartbeat CPU 3 instructions: 80000000 cycles: 35564364 heartbeat IPC: 2.25877 cumulative IPC: 2.24944 (Simulation time: 0 hr 21 min 28 sec) 
Heartbeat CPU 2 instructions: 80000000 cycles: 35750711 heartbeat IPC: 2.25875 cumulative IPC: 2.23772 (Simulation time: 0 hr 21 min 34 sec) 
Heartbeat CPU 0 instructions: 70000000 cycles: 37105114 heartbeat IPC: 1.88758 cumulative IPC: 1.88653 (Simulation time: 0 hr 22 min 18 sec) 
Heartbeat CPU 1 instructions: 80000000 cycles: 39260146 heartbeat IPC: 2.03765 cumulative IPC: 2.03769 (Simulation time: 0 hr 23 min 29 sec) 
Heartbeat CPU 2 instructions: 90000000 cycles: 40206247 heartbeat IPC: 2.2444 cumulative IPC: 2.23846 (Simulation time: 0 hr 23 min 59 sec) 
Heartbeat CPU 3 instructions: 90000002 cycles: 40378804 heartbeat IPC: 2.07709 cumulative IPC: 2.22889 (Simulation time: 0 hr 24 min 5 sec) 
Heartbeat CPU 0 instructions: 80000000 cycles: 42407356 heartbeat IPC: 1.88599 cumulative IPC: 1.88647 (Simulation time: 0 hr 25 min 13 sec) 
Heartbeat CPU 1 instructions: 90000001 cycles: 44194481 heartbeat IPC: 2.02662 cumulative IPC: 2.03645 (Simulation time: 0 hr 26 min 18 sec) 
Heartbeat CPU 2 instructions: 100000000 cycles: 44614320 heartbeat IPC: 2.26856 cumulative IPC: 2.24143 (Simulation time: 0 hr 26 min 33 sec) 
Heartbeat CPU 3 instructions: 100000000 cycles: 45040010 heartbeat IPC: 2.14537 cumulative IPC: 2.22025 (Simulation time: 0 hr 26 min 48 sec) 
Heartbeat CPU 0 instructions: 90000000 cycles: 47714711 heartbeat IPC: 1.88418 cumulative IPC: 1.88621 (Simulation time: 0 hr 28 min 23 sec) 
Heartbeat CPU 2 instructions: 110000003 cycles: 48973662 heartbeat IPC: 2.29392 cumulative IPC: 2.24611 (Simulation time: 0 hr 29 min 8 sec) 
Heartbeat CPU 1 instructions: 100000000 cycles: 49122469 heartbeat IPC: 2.02923 cumulative IPC: 2.03573 (Simulation time: 0 hr 29 min 13 sec) 
Heartbeat CPU 3 instructions: 110000001 cycles: 49626771 heartbeat IPC: 2.18019 cumulative IPC: 2.21655 (Simulation time: 0 hr 29 min 30 sec) 
Heartbeat CPU 0 instructions: 100000000 cycles: 53012407 heartbeat IPC: 1.88761 cumulative IPC: 1.88635 (Simulation time: 0 hr 31 min 20 sec) 
Heartbeat CPU 2 instructions: 120000000 cycles: 53443213 heartbeat IPC: 2.23736 cumulative IPC: 2.24537 (Simulation time: 0 hr 31 min 34 sec) 
Heartbeat CPU 1 instructions: 110000000 cycles: 54062382 heartbeat IPC: 2.02433 cumulative IPC: 2.03469 (Simulation time: 0 hr 31 min 54 sec) 
Heartbeat CPU 3 instructions: 120000000 cycles: 54279461 heartbeat IPC: 2.14929 cumulative IPC: 2.21078 (Simulation time: 0 hr 32 min 1 sec) 
Heartbeat CPU 2 instructions: 130000000 cycles: 57668330 heartbeat IPC: 2.3668 cumulative IPC: 2.25427 (Simulation time: 0 hr 33 min 52 sec) 
Heartbeat CPU 0 instructions: 110000001 cycles: 58304183 heartbeat IPC: 1.88972 cumulative IPC: 1.88666 (Simulation time: 0 hr 34 min 13 sec) 
Heartbeat CPU 3 instructions: 130000001 cycles: 58780936 heartbeat IPC: 2.22149 cumulative IPC: 2.2116 (Simulation time: 0 hr 34 min 28 sec) 
Heartbeat CPU 1 instructions: 120000000 cycles: 58979346 heartbeat IPC: 2.03378 cumulative IPC: 2.03461 (Simulation time: 0 hr 34 min 35 sec) 
Heartbeat CPU 2 instructions: 140000000 cycles: 61843815 heartbeat IPC: 2.39493 cumulative IPC: 2.26377 (Simulation time: 0 hr 36 min 13 sec) 
Heartbeat CPU 3 instructions: 140000000 cycles: 63463893 heartbeat IPC: 2.1354 cumulative IPC: 2.20598 (Simulation time: 0 hr 37 min 11 sec) 
Heartbeat CPU 0 instructions: 120000000 cycles: 63607472 heartbeat IPC: 1.88562 cumulative IPC: 1.88657 (Simulation time: 0 hr 37 min 16 sec) 
Heartbeat CPU 1 instructions: 130000000 cycles: 63891316 heartbeat IPC: 2.03584 cumulative IPC: 2.03471 (Simulation time: 0 hr 37 min 26 sec) 
Heartbeat CPU 2 instructions: 150000000 cycles: 66078818 heartbeat IPC: 2.36127 cumulative IPC: 2.27002 (Simulation time: 0 hr 38 min 44 sec) 
Heartbeat CPU 3 instructions: 150000000 cycles: 67959072 heartbeat IPC: 2.22461 cumulative IPC: 2.20721 (Simulation time: 0 hr 39 min 51 sec) 
Heartbeat CPU 1 instructions: 140000000 cycles: 68819521 heartbeat IPC: 2.02914 cumulative IPC: 2.03431 (Simulation time: 0 hr 40 min 21 sec) 
Heartbeat CPU 0 instructions: 130000000 cycles: 68906567 heartbeat IPC: 1.88711 cumulative IPC: 1.88661 (Simulation time: 0 hr 40 min 24 sec) 
Heartbeat CPU 2 instructions: 160000000 cycles: 70449099 heartbeat IPC: 2.28818 cumulative IPC: 2.27114 (Simulation time: 0 hr 41 min 19 sec) 
Heartbeat CPU 3 instructions: 160000000 cycles: 72589654 heartbeat IPC: 2.15956 cumulative IPC: 2.20417 (Simulation time: 0 hr 42 min 37 sec) 
Heartbeat CPU 1 instructions: 150000001 cycles: 73757599 heartbeat IPC: 2.02508 cumulative IPC: 2.03369 (Simulation time: 0 hr 43 min 29 sec) 
Heartbeat CPU 0 instructions: 140000000 cycles: 74199600 heartbeat IPC: 1.88928 cumulative IPC: 1.8868 (Simulation time: 0 hr 43 min 45 sec) 
Heartbeat CPU 2 instructions: 170000003 cycles: 75004011 heartbeat IPC: 2.19543 cumulative IPC: 2.26655 (Simulation time: 0 hr 44 min 17 sec) 
Heartbeat CPU 3 instructions: 170000000 cycles: 77220821 heartbeat IPC: 2.15928 cumulative IPC: 2.20148 (Simulation time: 0 hr 45 min 48 sec) 
Heartbeat CPU 1 instructions: 160000000 cycles: 78670797 heartbeat IPC: 2.03533 cumulative IPC: 2.03379 (Simulation time: 0 hr 46 min 47 sec) 
Heartbeat CPU 0 instructions: 150000000 cycles: 79493061 heartbeat IPC: 1.88912 cumulative IPC: 1.88696 (Simulation time: 0 hr 47 min 19 sec) 
Heartbeat CPU 2 instructions: 180000000 cycles: 79540076 heartbeat IPC: 2.20455 cumulative IPC: 2.26301 (Simulation time: 0 hr 47 min 21 sec) 
Heartbeat CPU 3 instructions: 180000000 cycles: 81729796 heartbeat IPC: 2.2178 cumulative IPC: 2.20238 (Simulation time: 0 hr 48 min 44 sec) 
Heartbeat CPU 1 instructions: 170000003 cycles: 83576241 heartbeat IPC: 2.03855 cumulative IPC: 2.03407 (Simulation time: 0 hr 49 min 52 sec) 
Heartbeat CPU 2 instructions: 190000001 cycles: 84083733 heartbeat IPC: 2.20087 cumulative IPC: 2.25965 (Simulation time: 0 hr 50 min 10 sec) 
Heartbeat CPU 0 instructions: 160000000 cycles: 84789390 heartbeat IPC: 1.8881 cumulative IPC: 1.88703 (Simulation time: 0 hr 50 min 34 sec) 
Heartbeat CPU 3 instructions: 190000002 cycles: 86428275 heartbeat IPC: 2.12835 cumulative IPC: 2.19835 (Simulation time: 0 hr 51 min 32 sec) 
Heartbeat CPU 1 instructions: 180000000 cycles: 88446592 heartbeat IPC: 2.05324 cumulative IPC: 2.03513 (Simulation time: 0 hr 52 min 43 sec) 
Heartbeat CPU 2 instructions: 200000000 cycles: 88625916 heartbeat IPC: 2.20158 cumulative IPC: 2.25668 (Simulation time: 0 hr 52 min 50 sec) 
Heartbeat CPU 0 instructions: 170000000 cycles: 90084047 heartbeat IPC: 1.8887 cumulative IPC: 1.88713 (Simulation time: 0 hr 53 min 44 sec) 
Heartbeat CPU 3 instructions: 200000000 cycles: 91382960 heartbeat IPC: 2.01829 cumulative IPC: 2.18859 (Simulation time: 0 hr 54 min 30 sec) 
Heartbeat CPU 2 instructions: 210000000 cycles: 93159418 heartbeat IPC: 2.2058 cumulative IPC: 0.107343 (Simulation time: 0 hr 55 min 38 sec) 
Heartbeat CPU 1 instructions: 190000001 cycles: 93365976 heartbeat IPC: 2.03277 cumulative IPC: 2.035 (Simulation time: 0 hr 55 min 46 sec) 
Heartbeat CPU 0 instructions: 180000000 cycles: 95374553 heartbeat IPC: 1.89018 cumulative IPC: 1.8873 (Simulation time: 0 hr 56 min 58 sec) 
Heartbeat CPU 3 instructions: 210000003 cycles: 96339597 heartbeat IPC: 2.0175 cumulative IPC: 0.1038 (Simulation time: 0 hr 57 min 35 sec) 
Heartbeat CPU 2 instructions: 220000000 cycles: 97710720 heartbeat IPC: 2.19717 cumulative IPC: 0.204686 (Simulation time: 0 hr 58 min 27 sec) 
Heartbeat CPU 1 instructions: 200000000 cycles: 98268991 heartbeat IPC: 2.03956 cumulative IPC: 2.03523 (Simulation time: 0 hr 58 min 46 sec) 
Heartbeat CPU 0 instructions: 190000001 cycles: 100671455 heartbeat IPC: 1.8879 cumulative IPC: 1.88733 (Simulation time: 1 hr 0 min 17 sec) 
Heartbeat CPU 3 instructions: 220000000 cycles: 101307256 heartbeat IPC: 2.01302 cumulative IPC: 0.197419 (Simulation time: 1 hr 0 min 39 sec) 
Heartbeat CPU 2 instructions: 230000001 cycles: 102270783 heartbeat IPC: 2.19295 cumulative IPC: 0.293339 (Simulation time: 1 hr 1 min 18 sec) 
Heartbeat CPU 1 instructions: 210000002 cycles: 103169046 heartbeat IPC: 2.04079 cumulative IPC: 0.0969283 (Simulation time: 1 hr 2 min 1 sec) 
Heartbeat CPU 3 instructions: 230000003 cycles: 105729001 heartbeat IPC: 2.26155 cumulative IPC: 0.283744 (Simulation time: 1 hr 3 min 40 sec) 
Heartbeat CPU 0 instructions: 200000000 cycles: 105970491 heartbeat IPC: 1.88714 cumulative IPC: 1.88732 (Simulation time: 1 hr 3 min 50 sec) 

Warmup complete CPU 0 instructions: 200000001 cycles: 105970494 (Simulation time: 1 hr 3 min 50 sec) 
Warmup complete CPU 1 instructions: 215673475 cycles: 105970493 (Simulation time: 1 hr 3 min 50 sec) 
Warmup complete CPU 2 instructions: 238111280 cycles: 105970493 (Simulation time: 1 hr 3 min 50 sec) 
Warmup complete CPU 3 instructions: 230577528 cycles: 105970493 (Simulation time: 1 hr 3 min 50 sec) 

Heartbeat CPU 2 instructions: 240000000 cycles: 108720667 heartbeat IPC: 1.55042 cumulative IPC: 0.686764 (Simulation time: 1 hr 4 min 22 sec) 
Heartbeat CPU 1 instructions: 220000000 cycles: 117280750 heartbeat IPC: 0.708632 cumulative IPC: 0.382531 (Simulation time: 1 hr 5 min 55 sec) 
Heartbeat CPU 2 instructions: 250000002 cycles: 123417351 heartbeat IPC: 0.680426 cumulative IPC: 0.681425 (Simulation time: 1 hr 7 min 2 sec) 
Heartbeat CPU 3 instructions: 240000000 cycles: 129090609 heartbeat IPC: 0.428053 cumulative IPC: 0.407544 (Simulation time: 1 hr 8 min 17 sec) 
Heartbeat CPU 2 instructions: 260000000 cycles: 137426663 heartbeat IPC: 0.713811 cumulative IPC: 0.695848 (Simulation time: 1 hr 10 min 15 sec) 
Heartbeat CPU 1 instructions: 230000003 cycles: 144961821 heartbeat IPC: 0.361258 cumulative IPC: 0.367429 (Simulation time: 1 hr 11 min 50 sec) 
Heartbeat CPU 3 instructions: 250000003 cycles: 145527158 heartbeat IPC: 0.6084 cumulative IPC: 0.491004 (Simulation time: 1 hr 11 min 56 sec) 
Heartbeat CPU 2 instructions: 270000001 cycles: 152080221 heartbeat IPC: 0.682428 cumulative IPC: 0.691583 (Simulation time: 1 hr 13 min 19 sec) 
Heartbeat CPU 3 instructions: 260000000 cycles: 161156066 heartbeat IPC: 0.63984 cumulative IPC: 0.533155 (Simulation time: 1 hr 15 min 21 sec) 
Heartbeat CPU 2 instructions: 280000000 cycles: 166717043 heartbeat IPC: 0.683208 cumulative IPC: 0.689565 (Simulation time: 1 hr 16 min 22 sec) 
Heartbeat CPU 1 instructions: 240000000 cycles: 171934437 heartbeat IPC: 0.370746 cumulative IPC: 0.368785 (Simulation time: 1 hr 17 min 15 sec) 
Heartbeat CPU 3 instructions: 270000000 cycles: 178492574 heartbeat IPC: 0.576817 cumulative IPC: 0.543593 (Simulation time: 1 hr 18 min 29 sec) 
Heartbeat CPU 2 instructions: 290000000 cycles: 181629153 heartbeat IPC: 0.670596 cumulative IPC: 0.685827 (Simulation time: 1 hr 19 min 9 sec) 
Heartbeat CPU 3 instructions: 280000000 cycles: 193686995 heartbeat IPC: 0.658136 cumulative IPC: 0.563434 (Simulation time: 1 hr 21 min 32 sec) 
Heartbeat CPU 2 instructions: 300000000 cycles: 197350748 heartbeat IPC: 0.636068 cumulative IPC: 0.677266 (Simulation time: 1 hr 22 min 14 sec) 
Heartbeat CPU 1 instructions: 250000002 cycles: 198730855 heartbeat IPC: 0.373184 cumulative IPC: 0.370056 (Simulation time: 1 hr 22 min 29 sec) 
Heartbeat CPU 3 instructions: 290000003 cycles: 209870181 heartbeat IPC: 0.617925 cumulative IPC: 0.571922 (Simulation time: 1 hr 24 min 36 sec) 
Heartbeat CPU 2 instructions: 310000001 cycles: 212014051 heartbeat IPC: 0.681975 cumulative IPC: 0.677917 (Simulation time: 1 hr 25 min 0 sec) 
Heartbeat CPU 2 instructions: 320000000 cycles: 224501890 heartbeat IPC: 0.800779 cumulative IPC: 0.690861 (Simulation time: 1 hr 27 min 17 sec) 
Heartbeat CPU 1 instructions: 260000000 cycles: 225457460 heartbeat IPC: 0.374159 cumulative IPC: 0.370974 (Simulation time: 1 hr 27 min 27 sec) 
Heartbeat CPU 3 instructions: 300000000 cycles: 230872114 heartbeat IPC: 0.476147 cumulative IPC: 0.555817 (Simulation time: 1 hr 28 min 24 sec) 
Heartbeat CPU 2 instructions: 330000001 cycles: 235566996 heartbeat IPC: 0.903742 cumulative IPC: 0.709037 (Simulation time: 1 hr 29 min 17 sec) 
Heartbeat CPU 2 instructions: 340000000 cycles: 251576983 heartbeat IPC: 0.62461 cumulative IPC: 0.699754 (Simulation time: 1 hr 32 min 5 sec) 
Heartbeat CPU 1 instructions: 270000001 cycles: 252332528 heartbeat IPC: 0.372092 cumulative IPC: 0.371179 (Simulation time: 1 hr 32 min 14 sec) 
Heartbeat CPU 3 instructions: 310000000 cycles: 261950387 heartbeat IPC: 0.321768 cumulative IPC: 0.509184 (Simulation time: 1 hr 34 min 2 sec) 
Heartbeat CPU 2 instructions: 350000000 cycles: 263833415 heartbeat IPC: 0.815898 cumulative IPC: 0.708771 (Simulation time: 1 hr 34 min 22 sec) 
Heartbeat CPU 2 instructions: 360000000 cycles: 277781598 heartbeat IPC: 0.716939 cumulative IPC: 0.709434 (Simulation time: 1 hr 37 min 13 sec) 
Heartbeat CPU 1 instructions: 280000000 cycles: 278372922 heartbeat IPC: 0.384019 cumulative IPC: 0.373118 (Simulation time: 1 hr 37 min 21 sec) 
Heartbeat CPU 3 instructions: 320000000 cycles: 284619401 heartbeat IPC: 0.441131 cumulative IPC: 0.500549 (Simulation time: 1 hr 38 min 38 sec) 
Heartbeat CPU 2 instructions: 370000000 cycles: 290100090 heartbeat IPC: 0.811788 cumulative IPC: 0.716282 (Simulation time: 1 hr 39 min 41 sec) 
Heartbeat CPU 2 instructions: 380000000 cycles: 301336618 heartbeat IPC: 0.889955 cumulative IPC: 0.726271 (Simulation time: 1 hr 41 min 52 sec) 
Heartbeat CPU 1 instructions: 290000000 cycles: 304044024 heartbeat IPC: 0.389543 cumulative IPC: 0.375247 (Simulation time: 1 hr 42 min 22 sec) 
Heartbeat CPU 3 instructions: 330000000 cycles: 311244411 heartbeat IPC: 0.375587 cumulative IPC: 0.48434 (Simulation time: 1 hr 43 min 43 sec) 
Heartbeat CPU 2 instructions: 390000002 cycles: 312630548 heartbeat IPC: 0.885432 cumulative IPC: 0.734969 (Simulation time: 1 hr 43 min 59 sec) 
Heartbeat CPU 0 instructions: 210000002 cycles: 320382762 heartbeat IPC: 0.0466391 cumulative IPC: 0.0466391 (Simulation time: 1 hr 45 min 31 sec) 
Heartbeat CPU 2 instructions: 400000000 cycles: 323588226 heartbeat IPC: 0.912602 cumulative IPC: 0.743913 (Simulation time: 1 hr 46 min 7 sec) 
Heartbeat CPU 1 instructions: 300000000 cycles: 329752324 heartbeat IPC: 0.388979 cumulative IPC: 0.376825 (Simulation time: 1 hr 47 min 15 sec) 
Heartbeat CPU 2 instructions: 410000002 cycles: 337243035 heartbeat IPC: 0.732343 cumulative IPC: 0.74323 (Simulation time: 1 hr 48 min 37 sec) 
Heartbeat CPU 3 instructions: 340000000 cycles: 337955896 heartbeat IPC: 0.374371 cumulative IPC: 0.471678 (Simulation time: 1 hr 48 min 44 sec) 
Heartbeat CPU 2 instructions: 420000000 cycles: 350097159 heartbeat IPC: 0.77796 cumulative IPC: 0.745059 (Simulation time: 1 hr 50 min 56 sec) 
Heartbeat CPU 1 instructions: 310000001 cycles: 356356858 heartbeat IPC: 0.375876 cumulative IPC: 0.376724 (Simulation time: 1 hr 52 min 8 sec) 
Heartbeat CPU 2 instructions: 430000000 cycles: 360762712 heartbeat IPC: 0.937598 cumulative IPC: 0.753118 (Simulation time: 1 hr 52 min 56 sec) 
Heartbeat CPU 3 instructions: 350000000 cycles: 370650109 heartbeat IPC: 0.305865 cumulative IPC: 0.451196 (Simulation time: 1 hr 54 min 52 sec) 
Heartbeat CPU 2 instructions: 440000000 cycles: 374112270 heartbeat IPC: 0.749088 cumulative IPC: 0.752918 (Simulation time: 1 hr 55 min 33 sec) 
Heartbeat CPU 1 instructions: 320000000 cycles: 383554197 heartbeat IPC: 0.367683 cumulative IPC: 0.375838 (Simulation time: 1 hr 57 min 14 sec) 
Heartbeat CPU 2 instructions: 450000001 cycles: 384209348 heartbeat IPC: 0.990386 cumulative IPC: 0.761535 (Simulation time: 1 hr 57 min 21 sec) 
Heartbeat CPU 2 instructions: 460000000 cycles: 393954173 heartbeat IPC: 1.02619 cumulative IPC: 0.770491 (Simulation time: 1 hr 59 min 7 sec) 
Heartbeat CPU 3 instructions: 360000000 cycles: 395243229 heartbeat IPC: 0.406618 cumulative IPC: 0.447406 (Simulation time: 1 hr 59 min 21 sec) 
Heartbeat CPU 2 instructions: 470000002 cycles: 403708665 heartbeat IPC: 1.02517 cumulative IPC: 0.778834 (Simulation time: 2 hr 0 min 56 sec) 
Heartbeat CPU 1 instructions: 330000002 cycles: 408771406 heartbeat IPC: 0.396555 cumulative IPC: 0.377563 (Simulation time: 2 hr 1 min 56 sec) 
Heartbeat CPU 2 instructions: 480000000 cycles: 414064775 heartbeat IPC: 0.965613 cumulative IPC: 0.785113 (Simulation time: 2 hr 2 min 50 sec) 
Heartbeat CPU 3 instructions: 370000001 cycles: 421867265 heartbeat IPC: 0.3756 cumulative IPC: 0.441355 (Simulation time: 2 hr 4 min 9 sec) 
Heartbeat CPU 2 instructions: 490000000 cycles: 424419556 heartbeat IPC: 0.965737 cumulative IPC: 0.790986 (Simulation time: 2 hr 4 min 37 sec) 
Heartbeat CPU 1 instructions: 340000000 cycles: 434162271 heartbeat IPC: 0.393842 cumulative IPC: 0.378823 (Simulation time: 2 hr 6 min 23 sec) 
Heartbeat CPU 2 instructions: 500000000 cycles: 434297414 heartbeat IPC: 1.01237 cumulative IPC: 0.797646 (Simulation time: 2 hr 6 min 24 sec) 
Heartbeat CPU 2 instructions: 510000001 cycles: 444396772 heartbeat IPC: 0.990162 cumulative IPC: 0.803391 (Simulation time: 2 hr 8 min 12 sec) 
Heartbeat CPU 3 instructions: 380000000 cycles: 452422455 heartbeat IPC: 0.327277 cumulative IPC: 0.431293 (Simulation time: 2 hr 9 min 33 sec) 
Heartbeat CPU 2 instructions: 520000000 cycles: 455674662 heartbeat IPC: 0.886691 cumulative IPC: 0.806078 (Simulation time: 2 hr 10 min 8 sec) 
Heartbeat CPU 1 instructions: 350000000 cycles: 460552568 heartbeat IPC: 0.378927 cumulative IPC: 0.378831 (Simulation time: 2 hr 11 min 0 sec) 
Heartbeat CPU 2 instructions: 530000002 cycles: 466072954 heartbeat IPC: 0.961697 cumulative IPC: 0.810571 (Simulation time: 2 hr 12 min 0 sec) 
Heartbeat CPU 3 instructions: 390000000 cycles: 479004803 heartbeat IPC: 0.37619 cumulative IPC: 0.427367 (Simulation time: 2 hr 14 min 13 sec) 
Heartbeat CPU 2 instructions: 540000000 cycles: 479404995 heartbeat IPC: 0.750073 cumulative IPC: 0.808411 (Simulation time: 2 hr 14 min 17 sec) 
Heartbeat CPU 1 instructions: 360000000 cycles: 486531340 heartbeat IPC: 0.38493 cumulative IPC: 0.379247 (Simulation time: 2 hr 15 min 32 sec) 
Heartbeat CPU 2 instructions: 550000000 cycles: 492869837 heartbeat IPC: 0.742675 cumulative IPC: 0.806124 (Simulation time: 2 hr 16 min 45 sec) 
Heartbeat CPU 2 instructions: 560000000 cycles: 504448957 heartbeat IPC: 0.863623 cumulative IPC: 0.807795 (Simulation time: 2 hr 19 min 1 sec) 
Heartbeat CPU 3 instructions: 400000000 cycles: 506224890 heartbeat IPC: 0.367376 cumulative IPC: 0.423287 (Simulation time: 2 hr 19 min 19 sec) 
Heartbeat CPU 1 instructions: 370000000 cycles: 512593921 heartbeat IPC: 0.383692 cumulative IPC: 0.379532 (Simulation time: 2 hr 20 min 29 sec) 
Heartbeat CPU 2 instructions: 570000000 cycles: 516315981 heartbeat IPC: 0.842671 cumulative IPC: 0.808803 (Simulation time: 2 hr 21 min 11 sec) 
Heartbeat CPU 2 instructions: 580000000 cycles: 528544862 heartbeat IPC: 0.817736 cumulative IPC: 0.809062 (Simulation time: 2 hr 23 min 25 sec) 
Heartbeat CPU 3 instructions: 410000003 cycles: 536675073 heartbeat IPC: 0.328405 cumulative IPC: 0.416579 (Simulation time: 2 hr 24 min 56 sec) 
Heartbeat CPU 0 instructions: 220000000 cycles: 537237121 heartbeat IPC: 0.0461139 cumulative IPC: 0.046375 (Simulation time: 2 hr 25 min 2 sec) 
Heartbeat CPU 1 instructions: 380000000 cycles: 539278206 heartbeat IPC: 0.374752 cumulative IPC: 0.379237 (Simulation time: 2 hr 25 min 28 sec) 
Heartbeat CPU 2 instructions: 590000000 cycles: 540041396 heartbeat IPC: 0.869827 cumulative IPC: 0.810671 (Simulation time: 2 hr 25 min 37 sec) 
Heartbeat CPU 2 instructions: 600000000 cycles: 551607532 heartbeat IPC: 0.864593 cumulative IPC: 0.812071 (Simulation time: 2 hr 27 min 39 sec) 
Heartbeat CPU 3 instructions: 420000000 cycles: 563215347 heartbeat IPC: 0.376786 cumulative IPC: 0.414269 (Simulation time: 2 hr 29 min 39 sec) 
Heartbeat CPU 1 instructions: 390000001 cycles: 565331474 heartbeat IPC: 0.383829 cumulative IPC: 0.379498 (Simulation time: 2 hr 30 min 0 sec) 
Heartbeat CPU 2 instructions: 610000001 cycles: 566123252 heartbeat IPC: 0.688908 cumulative IPC: 0.808185 (Simulation time: 2 hr 30 min 8 sec) 
Heartbeat CPU 2 instructions: 620000000 cycles: 578367309 heartbeat IPC: 0.816723 cumulative IPC: 0.808407 (Simulation time: 2 hr 32 min 22 sec) 
Heartbeat CPU 2 instructions: 630000001 cycles: 590649918 heartbeat IPC: 0.814159 cumulative IPC: 0.808552 (Simulation time: 2 hr 34 min 37 sec) 
Heartbeat CPU 1 instructions: 400000000 cycles: 591605902 heartbeat IPC: 0.380598 cumulative IPC: 0.379557 (Simulation time: 2 hr 34 min 47 sec) 
Heartbeat CPU 3 instructions: 430000000 cycles: 592831925 heartbeat IPC: 0.337649 cumulative IPC: 0.409608 (Simulation time: 2 hr 35 min 0 sec) 
Heartbeat CPU 2 instructions: 640000000 cycles: 602913315 heartbeat IPC: 0.815435 cumulative IPC: 0.808722 (Simulation time: 2 hr 36 min 53 sec) 
Heartbeat CPU 2 instructions: 650000001 cycles: 615027244 heartbeat IPC: 0.825496 cumulative IPC: 0.809121 (Simulation time: 2 hr 38 min 56 sec) 
Heartbeat CPU 1 instructions: 410000000 cycles: 618123105 heartbeat IPC: 0.377114 cumulative IPC: 0.379431 (Simulation time: 2 hr 39 min 25 sec) 
Heartbeat CPU 3 instructions: 440000000 cycles: 622085734 heartbeat IPC: 0.341836 cumulative IPC: 0.405767 (Simulation time: 2 hr 40 min 3 sec) 
Heartbeat CPU 2 instructions: 660000000 cycles: 626643712 heartbeat IPC: 0.860847 cumulative IPC: 0.810275 (Simulation time: 2 hr 40 min 53 sec) 
Heartbeat CPU 2 instructions: 670000001 cycles: 638841480 heartbeat IPC: 0.819822 cumulative IPC: 0.810494 (Simulation time: 2 hr 43 min 1 sec) 
Heartbeat CPU 1 instructions: 420000000 cycles: 643958287 heartbeat IPC: 0.387069 cumulative IPC: 0.379798 (Simulation time: 2 hr 43 min 54 sec) 
Heartbeat CPU 3 instructions: 450000000 cycles: 648391733 heartbeat IPC: 0.380141 cumulative IPC: 0.404524 (Simulation time: 2 hr 44 min 38 sec) 
Heartbeat CPU 2 instructions: 680000000 cycles: 652073972 heartbeat IPC: 0.755715 cumulative IPC: 0.809167 (Simulation time: 2 hr 45 min 18 sec) 
Heartbeat CPU 2 instructions: 690000003 cycles: 664307442 heartbeat IPC: 0.81743 cumulative IPC: 0.809348 (Simulation time: 2 hr 47 min 33 sec) 
Heartbeat CPU 1 instructions: 430000002 cycles: 669929269 heartbeat IPC: 0.385045 cumulative IPC: 0.380039 (Simulation time: 2 hr 48 min 28 sec) 
Heartbeat CPU 2 instructions: 700000000 cycles: 677194667 heartbeat IPC: 0.775962 cumulative IPC: 0.808594 (Simulation time: 2 hr 49 min 44 sec) 
Heartbeat CPU 3 instructions: 460000000 cycles: 681971025 heartbeat IPC: 0.297803 cumulative IPC: 0.398303 (Simulation time: 2 hr 50 min 37 sec) 
Heartbeat CPU 2 instructions: 710000000 cycles: 689662076 heartbeat IPC: 0.802091 cumulative IPC: 0.808456 (Simulation time: 2 hr 51 min 58 sec) 
Heartbeat CPU 1 instructions: 440000000 cycles: 696218618 heartbeat IPC: 0.380382 cumulative IPC: 0.380055 (Simulation time: 2 hr 53 min 8 sec) 
Heartbeat CPU 2 instructions: 720000000 cycles: 702069424 heartbeat IPC: 0.805974 cumulative IPC: 0.808404 (Simulation time: 2 hr 54 min 12 sec) 
Heartbeat CPU 3 instructions: 470000001 cycles: 713911264 heartbeat IPC: 0.313085 cumulative IPC: 0.393825 (Simulation time: 2 hr 56 min 26 sec) 
Heartbeat CPU 2 instructions: 730000001 cycles: 714675887 heartbeat IPC: 0.793244 cumulative IPC: 0.80809 (Simulation time: 2 hr 56 min 36 sec) 
Heartbeat CPU 1 instructions: 450000003 cycles: 722787349 heartbeat IPC: 0.376382 cumulative IPC: 0.379896 (Simulation time: 2 hr 58 min 20 sec) 
Heartbeat CPU 3 instructions: 480000000 cycles: 726817353 heartbeat IPC: 0.774828 cumulative IPC: 0.401746 (Simulation time: 2 hr 59 min 8 sec) 
Heartbeat CPU 2 instructions: 740000000 cycles: 730145384 heartbeat IPC: 0.646433 cumulative IPC: 0.804083 (Simulation time: 2 hr 59 min 47 sec) 
Heartbeat CPU 3 instructions: 490000003 cycles: 742459248 heartbeat IPC: 0.639309 cumulative IPC: 0.407584 (Simulation time: 3 hr 2 min 5 sec) 
Heartbeat CPU 1 instructions: 460000000 cycles: 748194789 heartbeat IPC: 0.393585 cumulative IPC: 0.380438 (Simulation time: 3 hr 3 min 6 sec) 
Heartbeat CPU 2 instructions: 750000001 cycles: 748417048 heartbeat IPC: 0.547296 cumulative IPC: 0.79678 (Simulation time: 3 hr 3 min 9 sec) 
Heartbeat CPU 0 instructions: 230000000 cycles: 751526443 heartbeat IPC: 0.0466659 cumulative IPC: 0.0464716 (Simulation time: 3 hr 3 min 41 sec) 
Heartbeat CPU 3 instructions: 500000000 cycles: 761218933 heartbeat IPC: 0.533058 cumulative IPC: 0.411176 (Simulation time: 3 hr 5 min 18 sec) 
Heartbeat CPU 2 instructions: 760000000 cycles: 768632798 heartbeat IPC: 0.494664 cumulative IPC: 0.787564 (Simulation time: 3 hr 6 min 33 sec) 
Heartbeat CPU 1 instructions: 470000002 cycles: 773695703 heartbeat IPC: 0.392143 cumulative IPC: 0.380885 (Simulation time: 3 hr 7 min 21 sec) 
Heartbeat CPU 3 instructions: 510000001 cycles: 783991588 heartbeat IPC: 0.439123 cumulative IPC: 0.412115 (Simulation time: 3 hr 9 min 13 sec) 
Heartbeat CPU 2 instructions: 770000001 cycles: 788798453 heartbeat IPC: 0.495893 cumulative IPC: 0.77895 (Simulation time: 3 hr 10 min 11 sec) 
Heartbeat CPU 3 instructions: 520000000 cycles: 797267649 heartbeat IPC: 0.753235 cumulative IPC: 0.418666 (Simulation time: 3 hr 11 min 56 sec) 
Heartbeat CPU 1 instructions: 480000000 cycles: 799876144 heartbeat IPC: 0.381964 cumulative IPC: 0.380926 (Simulation time: 3 hr 12 min 25 sec) 
Heartbeat CPU 2 instructions: 780000000 cycles: 807800033 heartbeat IPC: 0.526272 cumulative IPC: 0.772109 (Simulation time: 3 hr 13 min 57 sec) 
Heartbeat CPU 3 instructions: 530000001 cycles: 813214212 heartbeat IPC: 0.627094 cumulative IPC: 0.423365 (Simulation time: 3 hr 14 min 58 sec) 
Heartbeat CPU 1 instructions: 490000001 cycles: 825386017 heartbeat IPC: 0.392005 cumulative IPC: 0.381319 (Simulation time: 3 hr 17 min 11 sec) 
Heartbeat CPU 2 instructions: 790000000 cycles: 828427801 heartbeat IPC: 0.484783 cumulative IPC: 0.763905 (Simulation time: 3 hr 17 min 41 sec) 
Heartbeat CPU 3 instructions: 540000000 cycles: 833756503 heartbeat IPC: 0.486801 cumulative IPC: 0.425156 (Simulation time: 3 hr 18 min 33 sec) 
Heartbeat CPU 2 instructions: 800000000 cycles: 847730069 heartbeat IPC: 0.518074 cumulative IPC: 0.757508 (Simulation time: 3 hr 20 min 50 sec) 
Heartbeat CPU 1 instructions: 500000000 cycles: 850853050 heartbeat IPC: 0.392664 cumulative IPC: 0.381707 (Simulation time: 3 hr 21 min 22 sec) 
Heartbeat CPU 3 instructions: 550000001 cycles: 857333631 heartbeat IPC: 0.42414 cumulative IPC: 0.425124 (Simulation time: 3 hr 22 min 34 sec) 
Heartbeat CPU 2 instructions: 810000000 cycles: 868009854 heartbeat IPC: 0.493102 cumulative IPC: 0.750471 (Simulation time: 3 hr 24 min 46 sec) 
Heartbeat CPU 3 instructions: 560000000 cycles: 870589900 heartbeat IPC: 0.75436 cumulative IPC: 0.430832 (Simulation time: 3 hr 25 min 15 sec) 
Heartbeat CPU 1 instructions: 510000002 cycles: 877261028 heartbeat IPC: 0.378674 cumulative IPC: 0.381603 (Simulation time: 3 hr 26 min 31 sec) 
Heartbeat CPU 3 instructions: 570000003 cycles: 886471040 heartbeat IPC: 0.629678 cumulative IPC: 0.434878 (Simulation time: 3 hr 28 min 15 sec) 
Heartbeat CPU 2 instructions: 820000000 cycles: 888482721 heartbeat IPC: 0.488451 cumulative IPC: 0.743616 (Simulation time: 3 hr 28 min 36 sec) 
Heartbeat CPU 1 instructions: 520000000 cycles: 903245355 heartbeat IPC: 0.384847 cumulative IPC: 0.381708 (Simulation time: 3 hr 30 min 59 sec) 
Heartbeat CPU 3 instructions: 580000000 cycles: 906686042 heartbeat IPC: 0.494682 cumulative IPC: 0.436388 (Simulation time: 3 hr 31 min 29 sec) 
Heartbeat CPU 2 instructions: 830000000 cycles: 908382595 heartbeat IPC: 0.502516 cumulative IPC: 0.737637 (Simulation time: 3 hr 31 min 45 sec) 
Heartbeat CPU 2 instructions: 840000000 cycles: 927322785 heartbeat IPC: 0.527978 cumulative IPC: 0.732802 (Simulation time: 3 hr 34 min 42 sec) 
Heartbeat CPU 3 instructions: 590000000 cycles: 929685890 heartbeat IPC: 0.434785 cumulative IPC: 0.436343 (Simulation time: 3 hr 35 min 8 sec) 
Heartbeat CPU 1 instructions: 530000001 cycles: 929888964 heartbeat IPC: 0.375325 cumulative IPC: 0.381502 (Simulation time: 3 hr 35 min 11 sec) 
Heartbeat CPU 3 instructions: 600000000 cycles: 943235579 heartbeat IPC: 0.738024 cumulative IPC: 0.441225 (Simulation time: 3 hr 37 min 49 sec) 
Heartbeat CPU 2 instructions: 850000000 cycles: 947228749 heartbeat IPC: 0.502362 cumulative IPC: 0.727349 (Simulation time: 3 hr 38 min 34 sec) 
Heartbeat CPU 1 instructions: 540000000 cycles: 955925486 heartbeat IPC: 0.384076 cumulative IPC: 0.381581 (Simulation time: 3 hr 40 min 24 sec) 
Heartbeat CPU 3 instructions: 610000000 cycles: 959362831 heartbeat IPC: 0.620068 cumulative IPC: 0.444605 (Simulation time: 3 hr 41 min 1 sec) 
Heartbeat CPU 2 instructions: 860000000 cycles: 965478623 heartbeat IPC: 0.547949 cumulative IPC: 0.72354 (Simulation time: 3 hr 42 min 8 sec) 
Heartbeat CPU 0 instructions: 240000000 cycles: 966175446 heartbeat IPC: 0.0465877 cumulative IPC: 0.0465005 (Simulation time: 3 hr 42 min 15 sec) 
Heartbeat CPU 3 instructions: 620000000 cycles: 980591269 heartbeat IPC: 0.471066 cumulative IPC: 0.445247 (Simulation time: 3 hr 44 min 25 sec) 
Heartbeat CPU 1 instructions: 550000000 cycles: 982226692 heartbeat IPC: 0.380211 cumulative IPC: 0.38154 (Simulation time: 3 hr 44 min 40 sec) 
Heartbeat CPU 2 instructions: 870000001 cycles: 984412182 heartbeat IPC: 0.528163 cumulative IPC: 0.719329 (Simulation time: 3 hr 45 min 0 sec) 
Heartbeat CPU 2 instructions: 880000000 cycles: 1000405708 heartbeat IPC: 0.625253 cumulative IPC: 0.717647 (Simulation time: 3 hr 47 min 30 sec) 
Heartbeat CPU 3 instructions: 630000000 cycles: 1004084035 heartbeat IPC: 0.425663 cumulative IPC: 0.444735 (Simulation time: 3 hr 48 min 16 sec) 
Heartbeat CPU 1 instructions: 560000000 cycles: 1008902801 heartbeat IPC: 0.374867 cumulative IPC: 0.381343 (Simulation time: 3 hr 49 min 9 sec) 
Heartbeat CPU 2 instructions: 890000000 cycles: 1016822606 heartbeat IPC: 0.609128 cumulative IPC: 0.715691 (Simulation time: 3 hr 50 min 36 sec) 
Heartbeat CPU 3 instructions: 640000000 cycles: 1017546834 heartbeat IPC: 0.742788 cumulative IPC: 0.449137 (Simulation time: 3 hr 50 min 44 sec) 
Heartbeat CPU 3 instructions: 650000003 cycles: 1033574751 heartbeat IPC: 0.623912 cumulative IPC: 0.452157 (Simulation time: 3 hr 53 min 29 sec) 
Heartbeat CPU 1 instructions: 570000000 cycles: 1034536499 heartbeat IPC: 0.390111 cumulative IPC: 0.381585 (Simulation time: 3 hr 53 min 38 sec) 
Heartbeat CPU 2 instructions: 900000000 cycles: 1036044999 heartbeat IPC: 0.520227 cumulative IPC: 0.711651 (Simulation time: 3 hr 53 min 52 sec) 
Heartbeat CPU 3 instructions: 660000000 cycles: 1054688702 heartbeat IPC: 0.47362 cumulative IPC: 0.452634 (Simulation time: 3 hr 56 min 34 sec) 
Heartbeat CPU 2 instructions: 910000000 cycles: 1056255790 heartbeat IPC: 0.494785 cumulative IPC: 0.707039 (Simulation time: 3 hr 56 min 48 sec) 
Heartbeat CPU 1 instructions: 580000000 cycles: 1061175748 heartbeat IPC: 0.375386 cumulative IPC: 0.381412 (Simulation time: 3 hr 57 min 30 sec) 
Heartbeat CPU 2 instructions: 920000000 cycles: 1076856545 heartbeat IPC: 0.485419 cumulative IPC: 0.702336 (Simulation time: 3 hr 59 min 51 sec) 
Heartbeat CPU 3 instructions: 670000000 cycles: 1079951625 heartbeat IPC: 0.395837 cumulative IPC: 0.451161 (Simulation time: 4 hr 0 min 24 sec) 
Heartbeat CPU 1 instructions: 590000002 cycles: 1087092867 heartbeat IPC: 0.385845 cumulative IPC: 0.381529 (Simulation time: 4 hr 1 min 39 sec) 
Heartbeat CPU 2 instructions: 930000002 cycles: 1095010775 heartbeat IPC: 0.550836 cumulative IPC: 0.699556 (Simulation time: 4 hr 3 min 4 sec) 
Heartbeat CPU 3 instructions: 680000000 cycles: 1095792837 heartbeat IPC: 0.631265 cumulative IPC: 0.454044 (Simulation time: 4 hr 3 min 12 sec) 
Heartbeat CPU 2 instructions: 940000000 cycles: 1110731852 heartbeat IPC: 0.636089 cumulative IPC: 0.698563 (Simulation time: 4 hr 5 min 55 sec) 
Heartbeat CPU 3 instructions: 690000000 cycles: 1111640256 heartbeat IPC: 0.631018 cumulative IPC: 0.456832 (Simulation time: 4 hr 6 min 6 sec) 
Heartbeat CPU 1 instructions: 600000000 cycles: 1112925863 heartbeat IPC: 0.387102 cumulative IPC: 0.381672 (Simulation time: 4 hr 6 min 20 sec) 
Heartbeat CPU 3 instructions: 700000000 cycles: 1127459307 heartbeat IPC: 0.632149 cumulative IPC: 0.459547 (Simulation time: 4 hr 8 min 54 sec) 
Heartbeat CPU 2 instructions: 950000003 cycles: 1128749245 heartbeat IPC: 0.555019 cumulative IPC: 0.696034 (Simulation time: 4 hr 9 min 8 sec) 
Heartbeat CPU 1 instructions: 610000003 cycles: 1139336188 heartbeat IPC: 0.37864 cumulative IPC: 0.381594 (Simulation time: 4 hr 11 min 28 sec) 
Heartbeat CPU 3 instructions: 710000003 cycles: 1146065811 heartbeat IPC: 0.537447 cumulative IPC: 0.460941 (Simulation time: 4 hr 12 min 52 sec) 
Heartbeat CPU 2 instructions: 960000000 cycles: 1149556450 heartbeat IPC: 0.480603 cumulative IPC: 0.691739 (Simulation time: 4 hr 13 min 28 sec) 
Heartbeat CPU 3 instructions: 720000000 cycles: 1163781827 heartbeat IPC: 0.564461 cumulative IPC: 0.462675 (Simulation time: 4 hr 16 min 1 sec) 
Heartbeat CPU 1 instructions: 620000000 cycles: 1165837164 heartbeat IPC: 0.377344 cumulative IPC: 0.381488 (Simulation time: 4 hr 16 min 23 sec) 
Heartbeat CPU 2 instructions: 970000003 cycles: 1169129046 heartbeat IPC: 0.510919 cumulative IPC: 0.68841 (Simulation time: 4 hr 16 min 56 sec) 
Heartbeat CPU 0 instructions: 250000003 cycles: 1178483600 heartbeat IPC: 0.0471014 cumulative IPC: 0.0466195 (Simulation time: 4 hr 18 min 32 sec) 
Heartbeat CPU 3 instructions: 730000000 cycles: 1181556100 heartbeat IPC: 0.562611 cumulative IPC: 0.464326 (Simulation time: 4 hr 19 min 4 sec) 
Heartbeat CPU 2 instructions: 980000000 cycles: 1188431645 heartbeat IPC: 0.518065 cumulative IPC: 0.685372 (Simulation time: 4 hr 20 min 16 sec) 
Heartbeat CPU 1 instructions: 630000002 cycles: 1192542150 heartbeat IPC: 0.374462 cumulative IPC: 0.381315 (Simulation time: 4 hr 20 min 58 sec) 
Heartbeat CPU 3 instructions: 740000000 cycles: 1199911654 heartbeat IPC: 0.544794 cumulative IPC: 0.465676 (Simulation time: 4 hr 22 min 13 sec) 
Heartbeat CPU 2 instructions: 990000002 cycles: 1207381596 heartbeat IPC: 0.527706 cumulative IPC: 0.682659 (Simulation time: 4 hr 23 min 32 sec) 
Heartbeat CPU 3 instructions: 750000003 cycles: 1214223034 heartbeat IPC: 0.698745 cumulative IPC: 0.468686 (Simulation time: 4 hr 24 min 44 sec) 
Heartbeat CPU 1 instructions: 640000000 cycles: 1219006421 heartbeat IPC: 0.377868 cumulative IPC: 0.381233 (Simulation time: 4 hr 25 min 34 sec) 
Heartbeat CPU 2 instructions: 1000000000 cycles: 1227004620 heartbeat IPC: 0.509605 cumulative IPC: 0.67963 (Simulation time: 4 hr 27 min 4 sec) 
Heartbeat CPU 3 instructions: 760000000 cycles: 1229227727 heartbeat IPC: 0.666458 cumulative IPC: 0.471328 (Simulation time: 4 hr 27 min 28 sec) 
Heartbeat CPU 3 instructions: 770000001 cycles: 1243796327 heartbeat IPC: 0.686408 cumulative IPC: 0.474082 (Simulation time: 4 hr 30 min 21 sec) 
Heartbeat CPU 1 instructions: 650000001 cycles: 1245795611 heartbeat IPC: 0.373285 cumulative IPC: 0.381047 (Simulation time: 4 hr 30 min 45 sec) 
Heartbeat CPU 2 instructions: 1010000000 cycles: 1246562453 heartbeat IPC: 0.511304 cumulative IPC: 0.676744 (Simulation time: 4 hr 30 min 53 sec) 
Heartbeat CPU 3 instructions: 780000000 cycles: 1258787887 heartbeat IPC: 0.667042 cumulative IPC: 0.476591 (Simulation time: 4 hr 33 min 11 sec) 
Heartbeat CPU 2 instructions: 1020000000 cycles: 1266051517 heartbeat IPC: 0.513108 cumulative IPC: 0.673995 (Simulation time: 4 hr 34 min 27 sec) 
Heartbeat CPU 1 instructions: 660000000 cycles: 1272230624 heartbeat IPC: 0.378286 cumulative IPC: 0.380984 (Simulation time: 4 hr 35 min 32 sec) 
Heartbeat CPU 3 instructions: 790000003 cycles: 1273543184 heartbeat IPC: 0.677723 cumulative IPC: 0.479133 (Simulation time: 4 hr 35 min 46 sec) 
Heartbeat CPU 2 instructions: 1030000000 cycles: 1285763373 heartbeat IPC: 0.507309 cumulative IPC: 0.67121 (Simulation time: 4 hr 37 min 54 sec) 
Heartbeat CPU 3 instructions: 800000000 cycles: 1288420823 heartbeat IPC: 0.672149 cumulative IPC: 0.481561 (Simulation time: 4 hr 38 min 22 sec) 
Heartbeat CPU 1 instructions: 670000001 cycles: 1298523090 heartbeat IPC: 0.380337 cumulative IPC: 0.38097 (Simulation time: 4 hr 40 min 7 sec) 
Heartbeat CPU 3 instructions: 810000003 cycles: 1303031790 heartbeat IPC: 0.684418 cumulative IPC: 0.484037 (Simulation time: 4 hr 40 min 54 sec) 
Heartbeat CPU 2 instructions: 1040000000 cycles: 1305859398 heartbeat IPC: 0.497611 cumulative IPC: 0.668302 (Simulation time: 4 hr 41 min 23 sec) 
Heartbeat CPU 3 instructions: 820000000 cycles: 1318276907 heartbeat IPC: 0.655948 cumulative IPC: 0.486199 (Simulation time: 4 hr 43 min 33 sec) 
Heartbeat CPU 1 instructions: 680000000 cycles: 1325284322 heartbeat IPC: 0.373675 cumulative IPC: 0.38081 (Simulation time: 4 hr 44 min 46 sec) 
Heartbeat CPU 2 instructions: 1050000002 cycles: 1325504402 heartbeat IPC: 0.509035 cumulative IPC: 0.665737 (Simulation time: 4 hr 44 min 48 sec) 
Heartbeat CPU 3 instructions: 830000000 cycles: 1332576164 heartbeat IPC: 0.699337 cumulative IPC: 0.488684 (Simulation time: 4 hr 46 min 3 sec) 
Heartbeat CPU 2 instructions: 1060000000 cycles: 1344701172 heartbeat IPC: 0.520921 cumulative IPC: 0.663493 (Simulation time: 4 hr 48 min 42 sec) 
Heartbeat CPU 3 instructions: 840000000 cycles: 1348045982 heartbeat IPC: 0.64642 cumulative IPC: 0.490649 (Simulation time: 4 hr 49 min 17 sec) 
Heartbeat CPU 1 instructions: 690000003 cycles: 1351830687 heartbeat IPC: 0.3767 cumulative IPC: 0.380722 (Simulation time: 4 hr 49 min 57 sec) 
Heartbeat CPU 3 instructions: 850000000 cycles: 1362518913 heartbeat IPC: 0.690945 cumulative IPC: 0.492956 (Simulation time: 4 hr 51 min 50 sec) 
Heartbeat CPU 2 instructions: 1070000000 cycles: 1363999479 heartbeat IPC: 0.51818 cumulative IPC: 0.661264 (Simulation time: 4 hr 52 min 5 sec) 
Heartbeat CPU 3 instructions: 860000000 cycles: 1377903268 heartbeat IPC: 0.650011 cumulative IPC: 0.494855 (Simulation time: 4 hr 54 min 30 sec) 
Heartbeat CPU 1 instructions: 700000000 cycles: 1378037958 heartbeat IPC: 0.381573 cumulative IPC: 0.38074 (Simulation time: 4 hr 54 min 32 sec) 
Heartbeat CPU 2 instructions: 1080000000 cycles: 1383950362 heartbeat IPC: 0.501231 cumulative IPC: 0.658765 (Simulation time: 4 hr 55 min 41 sec) 
Heartbeat CPU 0 instructions: 260000000 cycles: 1390140030 heartbeat IPC: 0.0472464 cumulative IPC: 0.0467228 (Simulation time: 4 hr 56 min 45 sec) 
Heartbeat CPU 3 instructions: 870000000 cycles: 1392764447 heartbeat IPC: 0.672894 cumulative IPC: 0.496911 (Simulation time: 4 hr 57 min 13 sec) 
Heartbeat CPU 1 instructions: 710000002 cycles: 1403237749 heartbeat IPC: 0.396829 cumulative IPC: 0.381052 (Simulation time: 4 hr 59 min 7 sec) 
Heartbeat CPU 2 instructions: 1090000003 cycles: 1403259208 heartbeat IPC: 0.517897 cumulative IPC: 0.656669 (Simulation time: 4 hr 59 min 7 sec) 
Heartbeat CPU 3 instructions: 880000000 cycles: 1407749328 heartbeat IPC: 0.667339 cumulative IPC: 0.498873 (Simulation time: 5 hr 0 min 5 sec) 
Heartbeat CPU 3 instructions: 890000001 cycles: 1423238649 heartbeat IPC: 0.645606 cumulative IPC: 0.500598 (Simulation time: 5 hr 2 min 50 sec) 
Heartbeat CPU 2 instructions: 1100000000 cycles: 1423586056 heartbeat IPC: 0.49196 cumulative IPC: 0.654128 (Simulation time: 5 hr 2 min 54 sec) 
Heartbeat CPU 1 instructions: 720000000 cycles: 1429041861 heartbeat IPC: 0.387535 cumulative IPC: 0.381179 (Simulation time: 5 hr 3 min 52 sec) 
Heartbeat CPU 3 instructions: 900000000 cycles: 1437858053 heartbeat IPC: 0.684022 cumulative IPC: 0.502612 (Simulation time: 5 hr 5 min 25 sec) 
Heartbeat CPU 2 instructions: 1110000001 cycles: 1443305045 heartbeat IPC: 0.507125 cumulative IPC: 0.65196 (Simulation time: 5 hr 6 min 21 sec) 
Heartbeat CPU 3 instructions: 910000002 cycles: 1453691675 heartbeat IPC: 0.631568 cumulative IPC: 0.504127 (Simulation time: 5 hr 8 min 8 sec) 
Heartbeat CPU 1 instructions: 730000000 cycles: 1454140757 heartbeat IPC: 0.398424 cumulative IPC: 0.3815 (Simulation time: 5 hr 8 min 12 sec) 
Heartbeat CPU 2 instructions: 1120000000 cycles: 1462613090 heartbeat IPC: 0.517919 cumulative IPC: 0.650052 (Simulation time: 5 hr 9 min 35 sec) 
Heartbeat CPU 3 instructions: 920000000 cycles: 1468875809 heartbeat IPC: 0.658582 cumulative IPC: 0.505848 (Simulation time: 5 hr 10 min 40 sec) 
Heartbeat CPU 1 instructions: 740000000 cycles: 1479816048 heartbeat IPC: 0.38948 cumulative IPC: 0.381649 (Simulation time: 5 hr 12 min 39 sec) 
Heartbeat CPU 2 instructions: 1130000002 cycles: 1482642193 heartbeat IPC: 0.499274 cumulative IPC: 0.647859 (Simulation time: 5 hr 13 min 9 sec) 
Heartbeat CPU 3 instructions: 930000003 cycles: 1483855170 heartbeat IPC: 0.667585 cumulative IPC: 0.507606 (Simulation time: 5 hr 13 min 22 sec) 
Heartbeat CPU 3 instructions: 940000000 cycles: 1499429574 heartbeat IPC: 0.642079 cumulative IPC: 0.509109 (Simulation time: 5 hr 15 min 55 sec) 
Heartbeat CPU 2 instructions: 1140000000 cycles: 1501963315 heartbeat IPC: 0.517568 cumulative IPC: 0.646055 (Simulation time: 5 hr 16 min 20 sec) 
Heartbeat CPU 1 instructions: 750000001 cycles: 1504718872 heartbeat IPC: 0.401561 cumulative IPC: 0.382003 (Simulation time: 5 hr 16 min 46 sec) 
Heartbeat CPU 3 instructions: 950000000 cycles: 1514240293 heartbeat IPC: 0.675187 cumulative IPC: 0.510856 (Simulation time: 5 hr 18 min 23 sec) 
Heartbeat CPU 2 instructions: 1150000001 cycles: 1521170433 heartbeat IPC: 0.52064 cumulative IPC: 0.644353 (Simulation time: 5 hr 19 min 35 sec) 
Heartbeat CPU 1 instructions: 760000000 cycles: 1529828608 heartbeat IPC: 0.398252 cumulative IPC: 0.38229 (Simulation time: 5 hr 21 min 5 sec) 
Heartbeat CPU 3 instructions: 960000000 cycles: 1529840713 heartbeat IPC: 0.641008 cumulative IPC: 0.512282 (Simulation time: 5 hr 21 min 6 sec) 
Heartbeat CPU 2 instructions: 1160000000 cycles: 1540700486 heartbeat IPC: 0.512031 cumulative IPC: 0.642552 (Simulation time: 5 hr 22 min 59 sec) 
Heartbeat CPU 3 instructions: 970000000 cycles: 1544652060 heartbeat IPC: 0.675158 cumulative IPC: 0.513958 (Simulation time: 5 hr 23 min 40 sec) 
Heartbeat CPU 1 instructions: 770000001 cycles: 1555421382 heartbeat IPC: 0.390735 cumulative IPC: 0.382439 (Simulation time: 5 hr 25 min 38 sec) 
Heartbeat CPU 3 instructions: 980000000 cycles: 1560245368 heartbeat IPC: 0.641301 cumulative IPC: 0.515324 (Simulation time: 5 hr 26 min 33 sec) 
Heartbeat CPU 2 instructions: 1170000001 cycles: 1560252269 heartbeat IPC: 0.511462 cumulative IPC: 0.64079 (Simulation time: 5 hr 26 min 33 sec) 
Heartbeat CPU 3 instructions: 990000001 cycles: 1575025828 heartbeat IPC: 0.676569 cumulative IPC: 0.516946 (Simulation time: 5 hr 29 min 6 sec) 
Heartbeat CPU 2 instructions: 1180000000 cycles: 1580633412 heartbeat IPC: 0.49065 cumulative IPC: 0.638715 (Simulation time: 5 hr 30 min 5 sec) 
Heartbeat CPU 1 instructions: 780000000 cycles: 1581186074 heartbeat IPC: 0.388128 cumulative IPC: 0.382538 (Simulation time: 5 hr 30 min 12 sec) 
Heartbeat CPU 3 instructions: 1000000000 cycles: 1590594881 heartbeat IPC: 0.6423 cumulative IPC: 0.518261 (Simulation time: 5 hr 31 min 50 sec) 
Heartbeat CPU 0 instructions: 270000000 cycles: 1598079575 heartbeat IPC: 0.0480909 cumulative IPC: 0.0469135 (Simulation time: 5 hr 33 min 10 sec) 
Heartbeat CPU 2 instructions: 1190000003 cycles: 1599896297 heartbeat IPC: 0.519133 cumulative IPC: 0.637173 (Simulation time: 5 hr 33 min 29 sec) 
Heartbeat CPU 3 instructions: 1010000002 cycles: 1605221219 heartbeat IPC: 0.683698 cumulative IPC: 0.519875 (Simulation time: 5 hr 34 min 26 sec) 
Heartbeat CPU 1 instructions: 790000000 cycles: 1607285788 heartbeat IPC: 0.383146 cumulative IPC: 0.382549 (Simulation time: 5 hr 34 min 47 sec) 
Heartbeat CPU 2 instructions: 1200000000 cycles: 1619607774 heartbeat IPC: 0.507318 cumulative IPC: 0.635482 (Simulation time: 5 hr 37 min 1 sec) 
Heartbeat CPU 3 instructions: 1020000000 cycles: 1620825931 heartbeat IPC: 0.640832 cumulative IPC: 0.521121 (Simulation time: 5 hr 37 min 14 sec) 
Heartbeat CPU 1 instructions: 800000000 cycles: 1633296132 heartbeat IPC: 0.384462 cumulative IPC: 0.382582 (Simulation time: 5 hr 39 min 27 sec) 
Heartbeat CPU 3 instructions: 1030000000 cycles: 1635535489 heartbeat IPC: 0.67983 cumulative IPC: 0.522647 (Simulation time: 5 hr 39 min 50 sec) 
Heartbeat CPU 2 instructions: 1210000000 cycles: 1638643568 heartbeat IPC: 0.525326 cumulative IPC: 0.634114 (Simulation time: 5 hr 40 min 22 sec) 
Heartbeat CPU 3 instructions: 1040000000 cycles: 1651319756 heartbeat IPC: 0.633542 cumulative IPC: 0.52378 (Simulation time: 5 hr 42 min 31 sec) 
Heartbeat CPU 2 instructions: 1220000000 cycles: 1658077124 heartbeat IPC: 0.514574 cumulative IPC: 0.632617 (Simulation time: 5 hr 43 min 36 sec) 
Heartbeat CPU 1 instructions: 810000003 cycles: 1659031925 heartbeat IPC: 0.388564 cumulative IPC: 0.382681 (Simulation time: 5 hr 43 min 46 sec) 
Heartbeat CPU 3 instructions: 1050000002 cycles: 1666310535 heartbeat IPC: 0.667077 cumulative IPC: 0.525156 (Simulation time: 5 hr 44 min 57 sec) 
Heartbeat CPU 2 instructions: 1230000002 cycles: 1677049907 heartbeat IPC: 0.527071 cumulative IPC: 0.631342 (Simulation time: 5 hr 46 min 46 sec) 
Heartbeat CPU 3 instructions: 1060000000 cycles: 1681076165 heartbeat IPC: 0.677248 cumulative IPC: 0.526582 (Simulation time: 5 hr 47 min 35 sec) 
Heartbeat CPU 1 instructions: 820000000 cycles: 1685447750 heartbeat IPC: 0.378561 cumulative IPC: 0.382612 (Simulation time: 5 hr 48 min 22 sec) 
Finished CPU 2 instructions: 1000000002 cycles: 1587605960 cumulative IPC: 0.629879 (Simulation time: 5 hr 49 min 48 sec) 
Heartbeat CPU 3 instructions: 1070000000 cycles: 1696506503 heartbeat IPC: 0.648074 cumulative IPC: 0.527761 (Simulation time: 5 hr 50 min 19 sec) 
Heartbeat CPU 2 instructions: 1240000000 cycles: 1697094207 heartbeat IPC: 0.498895 cumulative IPC: 0.629674 (Simulation time: 5 hr 50 min 25 sec) 
Heartbeat CPU 3 instructions: 1080000000 cycles: 1711409661 heartbeat IPC: 0.670999 cumulative IPC: 0.52909 (Simulation time: 5 hr 53 min 3 sec) 
Heartbeat CPU 1 instructions: 830000003 cycles: 1711460008 heartbeat IPC: 0.384434 cumulative IPC: 0.382641 (Simulation time: 5 hr 53 min 4 sec) 
Heartbeat CPU 2 instructions: 1250000000 cycles: 1717811147 heartbeat IPC: 0.482697 cumulative IPC: 0.627785 (Simulation time: 5 hr 54 min 10 sec) 
Heartbeat CPU 3 instructions: 1090000001 cycles: 1726632966 heartbeat IPC: 0.656888 cumulative IPC: 0.530291 (Simulation time: 5 hr 55 min 44 sec) 
Heartbeat CPU 2 instructions: 1260000000 cycles: 1736634915 heartbeat IPC: 0.531243 cumulative IPC: 0.62667 (Simulation time: 5 hr 57 min 36 sec) 
Heartbeat CPU 1 instructions: 840000000 cycles: 1738100370 heartbeat IPC: 0.37537 cumulative IPC: 0.382523 (Simulation time: 5 hr 57 min 52 sec) 
Heartbeat CPU 3 instructions: 1100000000 cycles: 1741133314 heartbeat IPC: 0.689639 cumulative IPC: 0.531704 (Simulation time: 5 hr 58 min 25 sec) 
Heartbeat CPU 2 instructions: 1270000000 cycles: 1756325480 heartbeat IPC: 0.507857 cumulative IPC: 0.625253 (Simulation time: 6 hr 1 min 20 sec) 
Heartbeat CPU 3 instructions: 1110000001 cycles: 1756359700 heartbeat IPC: 0.656755 cumulative IPC: 0.532858 (Simulation time: 6 hr 1 min 21 sec) 
Heartbeat CPU 1 instructions: 850000002 cycles: 1764430415 heartbeat IPC: 0.379794 cumulative IPC: 0.382479 (Simulation time: 6 hr 2 min 51 sec) 
Heartbeat CPU 3 instructions: 1120000000 cycles: 1770481796 heartbeat IPC: 0.70811 cumulative IPC: 0.534344 (Simulation time: 6 hr 3 min 56 sec) 
Heartbeat CPU 2 instructions: 1280000000 cycles: 1774991612 heartbeat IPC: 0.53573 cumulative IPC: 0.624251 (Simulation time: 6 hr 4 min 45 sec) 
Heartbeat CPU 3 instructions: 1130000001 cycles: 1787105329 heartbeat IPC: 0.601557 cumulative IPC: 0.535009 (Simulation time: 6 hr 6 min 52 sec) 
Heartbeat CPU 1 instructions: 860000000 cycles: 1791023061 heartbeat IPC: 0.376044 cumulative IPC: 0.382378 (Simulation time: 6 hr 7 min 28 sec) 
Heartbeat CPU 2 instructions: 1290000001 cycles: 1795235911 heartbeat IPC: 0.493966 cumulative IPC: 0.62269 (Simulation time: 6 hr 8 min 9 sec) 
Heartbeat CPU 3 instructions: 1140000000 cycles: 1805729725 heartbeat IPC: 0.53693 cumulative IPC: 0.53503 (Simulation time: 6 hr 10 min 13 sec) 
Heartbeat CPU 0 instructions: 280000000 cycles: 1809738275 heartbeat IPC: 0.0472459 cumulative IPC: 0.0469548 (Simulation time: 6 hr 10 min 59 sec) 
Heartbeat CPU 2 instructions: 1300000000 cycles: 1815195755 heartbeat IPC: 0.501006 cumulative IPC: 0.621269 (Simulation time: 6 hr 12 min 5 sec) 
Heartbeat CPU 1 instructions: 870000003 cycles: 1816952254 heartbeat IPC: 0.385666 cumulative IPC: 0.382428 (Simulation time: 6 hr 12 min 24 sec) 
Heartbeat CPU 3 instructions: 1150000003 cycles: 1821617424 heartbeat IPC: 0.629418 cumulative IPC: 0.535904 (Simulation time: 6 hr 13 min 14 sec) 
Heartbeat CPU 2 instructions: 1310000001 cycles: 1834409182 heartbeat IPC: 0.520469 cumulative IPC: 0.620149 (Simulation time: 6 hr 15 min 34 sec) 
Heartbeat CPU 3 instructions: 1160000000 cycles: 1837566316 heartbeat IPC: 0.627003 cumulative IPC: 0.536743 (Simulation time: 6 hr 16 min 11 sec) 
Heartbeat CPU 1 instructions: 880000000 cycles: 1843002374 heartbeat IPC: 0.383875 cumulative IPC: 0.382449 (Simulation time: 6 hr 17 min 15 sec) 
Heartbeat CPU 2 instructions: 1320000000 cycles: 1854257675 heartbeat IPC: 0.503817 cumulative IPC: 0.618828 (Simulation time: 6 hr 19 min 2 sec) 
Heartbeat CPU 3 instructions: 1170000002 cycles: 1860856814 heartbeat IPC: 0.42936 cumulative IPC: 0.535318 (Simulation time: 6 hr 20 min 1 sec) 
Heartbeat CPU 1 instructions: 890000001 cycles: 1870853004 heartbeat IPC: 0.359058 cumulative IPC: 0.38208 (Simulation time: 6 hr 21 min 32 sec) 
Heartbeat CPU 2 instructions: 1330000003 cycles: 1874790008 heartbeat IPC: 0.487037 cumulative IPC: 0.617298 (Simulation time: 6 hr 22 min 6 sec) 
Heartbeat CPU 3 instructions: 1180000000 cycles: 1890244524 heartbeat IPC: 0.340278 cumulative IPC: 0.532106 (Simulation time: 6 hr 24 min 22 sec) 
Heartbeat CPU 2 instructions: 1340000000 cycles: 1895361128 heartbeat IPC: 0.486118 cumulative IPC: 0.61579 (Simulation time: 6 hr 25 min 6 sec) 
Heartbeat CPU 1 instructions: 900000000 cycles: 1898654752 heartbeat IPC: 0.35969 cumulative IPC: 0.381733 (Simulation time: 6 hr 25 min 35 sec) 
Heartbeat CPU 3 instructions: 1190000001 cycles: 1911476748 heartbeat IPC: 0.470982 cumulative IPC: 0.531387 (Simulation time: 6 hr 27 min 54 sec) 
Heartbeat CPU 2 instructions: 1350000001 cycles: 1916084291 heartbeat IPC: 0.482552 cumulative IPC: 0.614265 (Simulation time: 6 hr 28 min 48 sec) 
Heartbeat CPU 1 instructions: 910000003 cycles: 1924281658 heartbeat IPC: 0.390215 cumulative IPC: 0.381852 (Simulation time: 6 hr 30 min 24 sec) 
Heartbeat CPU 3 instructions: 1200000000 cycles: 1928599494 heartbeat IPC: 0.584018 cumulative IPC: 0.531881 (Simulation time: 6 hr 31 min 10 sec) 
Heartbeat CPU 2 instructions: 1360000000 cycles: 1934872833 heartbeat IPC: 0.532239 cumulative IPC: 0.613422 (Simulation time: 6 hr 32 min 15 sec) 
Heartbeat CPU 3 instructions: 1210000001 cycles: 1945703007 heartbeat IPC: 0.584675 cumulative IPC: 0.532372 (Simulation time: 6 hr 34 min 8 sec) 
Heartbeat CPU 1 instructions: 920000000 cycles: 1949485589 heartbeat IPC: 0.396763 cumulative IPC: 0.382056 (Simulation time: 6 hr 34 min 48 sec) 
Heartbeat CPU 2 instructions: 1370000001 cycles: 1953903912 heartbeat IPC: 0.525456 cumulative IPC: 0.612516 (Simulation time: 6 hr 35 min 36 sec) 
Heartbeat CPU 3 instructions: 1220000000 cycles: 1962809882 heartbeat IPC: 0.58456 cumulative IPC: 0.532853 (Simulation time: 6 hr 37 min 8 sec) 
Heartbeat CPU 2 instructions: 1380000000 cycles: 1974330799 heartbeat IPC: 0.489551 cumulative IPC: 0.611172 (Simulation time: 6 hr 38 min 54 sec) 
Heartbeat CPU 1 instructions: 930000000 cycles: 1975331502 heartbeat IPC: 0.386908 cumulative IPC: 0.382123 (Simulation time: 6 hr 39 min 2 sec) 
Heartbeat CPU 2 instructions: 1390000001 cycles: 1994330981 heartbeat IPC: 0.499995 cumulative IPC: 0.609994 (Simulation time: 6 hr 41 min 39 sec) 
Heartbeat CPU 3 instructions: 1230000001 cycles: 1998324088 heartbeat IPC: 0.281577 cumulative IPC: 0.528137 (Simulation time: 6 hr 42 min 14 sec) 
Finished CPU 3 instructions: 1000000000 cycles: 1893473116 cumulative IPC: 0.52813 (Simulation time: 6 hr 42 min 24 sec) 
Heartbeat CPU 1 instructions: 940000000 cycles: 2001362019 heartbeat IPC: 0.384164 cumulative IPC: 0.382151 (Simulation time: 6 hr 42 min 40 sec) 
Heartbeat CPU 2 instructions: 1400000000 cycles: 2015327779 heartbeat IPC: 0.476263 cumulative IPC: 0.608523 (Simulation time: 6 hr 44 min 33 sec) 
Heartbeat CPU 3 instructions: 1240000000 cycles: 2020627633 heartbeat IPC: 0.448359 cumulative IPC: 0.527208 (Simulation time: 6 hr 45 min 18 sec) 
Heartbeat CPU 1 instructions: 950000001 cycles: 2027661975 heartbeat IPC: 0.380229 cumulative IPC: 0.382125 (Simulation time: 6 hr 46 min 28 sec) 
Heartbeat CPU 0 instructions: 290000002 cycles: 2028672768 heartbeat IPC: 0.0456758 cumulative IPC: 0.0468091 (Simulation time: 6 hr 46 min 38 sec) 
Heartbeat CPU 2 instructions: 1410000003 cycles: 2034182768 heartbeat IPC: 0.530364 cumulative IPC: 0.607759 (Simulation time: 6 hr 47 min 36 sec) 
Heartbeat CPU 3 instructions: 1250000001 cycles: 2038290538 heartbeat IPC: 0.566158 cumulative IPC: 0.527564 (Simulation time: 6 hr 48 min 19 sec) 
Heartbeat CPU 1 instructions: 960000000 cycles: 2052479491 heartbeat IPC: 0.402941 cumulative IPC: 0.38239 (Simulation time: 6 hr 50 min 42 sec) 
Heartbeat CPU 2 instructions: 1420000000 cycles: 2054757171 heartbeat IPC: 0.486041 cumulative IPC: 0.606474 (Simulation time: 6 hr 51 min 5 sec) 
Heartbeat CPU 3 instructions: 1260000000 cycles: 2055844821 heartbeat IPC: 0.569661 cumulative IPC: 0.527943 (Simulation time: 6 hr 51 min 16 sec) 
Heartbeat CPU 3 instructions: 1270000000 cycles: 2073386807 heartbeat IPC: 0.570061 cumulative IPC: 0.528319 (Simulation time: 6 hr 54 min 14 sec) 
Heartbeat CPU 2 instructions: 1430000001 cycles: 2075418907 heartbeat IPC: 0.483986 cumulative IPC: 0.605189 (Simulation time: 6 hr 54 min 34 sec) 
Heartbeat CPU 1 instructions: 970000000 cycles: 2077852719 heartbeat IPC: 0.394116 cumulative IPC: 0.382541 (Simulation time: 6 hr 54 min 59 sec) 
Heartbeat CPU 3 instructions: 1280000000 cycles: 2090929707 heartbeat IPC: 0.570031 cumulative IPC: 0.528687 (Simulation time: 6 hr 57 min 11 sec) 
Heartbeat CPU 2 instructions: 1440000000 cycles: 2096286210 heartbeat IPC: 0.479219 cumulative IPC: 0.603868 (Simulation time: 6 hr 58 min 5 sec) 
Heartbeat CPU 1 instructions: 980000000 cycles: 2103376587 heartbeat IPC: 0.39179 cumulative IPC: 0.38266 (Simulation time: 6 hr 59 min 16 sec) 
Heartbeat CPU 3 instructions: 1290000001 cycles: 2108457781 heartbeat IPC: 0.570513 cumulative IPC: 0.529053 (Simulation time: 7 hr 0 min 9 sec) 
Heartbeat CPU 2 instructions: 1450000001 cycles: 2116419824 heartbeat IPC: 0.496682 cumulative IPC: 0.602795 (Simulation time: 7 hr 1 min 28 sec) 
Heartbeat CPU 3 instructions: 1300000000 cycles: 2126006483 heartbeat IPC: 0.569843 cumulative IPC: 0.529408 (Simulation time: 7 hr 2 min 56 sec) 
Heartbeat CPU 1 instructions: 990000000 cycles: 2128544401 heartbeat IPC: 0.397333 cumulative IPC: 0.382842 (Simulation time: 7 hr 3 min 20 sec) 
Heartbeat CPU 2 instructions: 1460000000 cycles: 2137152921 heartbeat IPC: 0.482321 cumulative IPC: 0.601565 (Simulation time: 7 hr 4 min 38 sec) 
Heartbeat CPU 3 instructions: 1310000000 cycles: 2143517689 heartbeat IPC: 0.571063 cumulative IPC: 0.529766 (Simulation time: 7 hr 5 min 37 sec) 
Heartbeat CPU 1 instructions: 1000000000 cycles: 2153933723 heartbeat IPC: 0.393866 cumulative IPC: 0.382979 (Simulation time: 7 hr 7 min 14 sec) 
Heartbeat CPU 2 instructions: 1470000000 cycles: 2157116058 heartbeat IPC: 0.500923 cumulative IPC: 0.600586 (Simulation time: 7 hr 7 min 43 sec) 
Heartbeat CPU 3 instructions: 1320000000 cycles: 2161007358 heartbeat IPC: 0.571766 cumulative IPC: 0.530123 (Simulation time: 7 hr 8 min 19 sec) 
Heartbeat CPU 2 instructions: 1480000000 cycles: 2177278395 heartbeat IPC: 0.495974 cumulative IPC: 0.599567 (Simulation time: 7 hr 10 min 53 sec) 
Heartbeat CPU 3 instructions: 1330000002 cycles: 2178493488 heartbeat IPC: 0.571882 cumulative IPC: 0.530475 (Simulation time: 7 hr 11 min 5 sec) 
Heartbeat CPU 1 instructions: 1010000000 cycles: 2180269758 heartbeat IPC: 0.379708 cumulative IPC: 0.382937 (Simulation time: 7 hr 11 min 22 sec) 
Heartbeat CPU 3 instructions: 1340000000 cycles: 2195971007 heartbeat IPC: 0.572163 cumulative IPC: 0.530824 (Simulation time: 7 hr 13 min 58 sec) 
Heartbeat CPU 2 instructions: 1490000003 cycles: 2197807047 heartbeat IPC: 0.487124 cumulative IPC: 0.598464 (Simulation time: 7 hr 14 min 17 sec) 
Heartbeat CPU 1 instructions: 1020000000 cycles: 2206593631 heartbeat IPC: 0.379883 cumulative IPC: 0.382899 (Simulation time: 7 hr 15 min 45 sec) 
Heartbeat CPU 3 instructions: 1350000000 cycles: 2213441111 heartbeat IPC: 0.572406 cumulative IPC: 0.531169 (Simulation time: 7 hr 16 min 53 sec) 
Heartbeat CPU 2 instructions: 1500000000 cycles: 2218244993 heartbeat IPC: 0.489286 cumulative IPC: 0.597408 (Simulation time: 7 hr 17 min 42 sec) 
Heartbeat CPU 3 instructions: 1360000000 cycles: 2230902534 heartbeat IPC: 0.572691 cumulative IPC: 0.53151 (Simulation time: 7 hr 19 min 48 sec) 
Heartbeat CPU 1 instructions: 1030000003 cycles: 2232939940 heartbeat IPC: 0.37956 cumulative IPC: 0.382858 (Simulation time: 7 hr 20 min 8 sec) 
Heartbeat CPU 0 instructions: 300000000 cycles: 2235158219 heartbeat IPC: 0.0484296 cumulative IPC: 0.0469663 (Simulation time: 7 hr 20 min 30 sec) 
Heartbeat CPU 2 instructions: 1510000001 cycles: 2238353956 heartbeat IPC: 0.497291 cumulative IPC: 0.596463 (Simulation time: 7 hr 21 min 4 sec) 
Heartbeat CPU 3 instructions: 1370000001 cycles: 2248393600 heartbeat IPC: 0.57172 cumulative IPC: 0.531838 (Simulation time: 7 hr 22 min 44 sec) 
Heartbeat CPU 1 instructions: 1040000000 cycles: 2258430697 heartbeat IPC: 0.392299 cumulative IPC: 0.382969 (Simulation time: 7 hr 24 min 25 sec) 
Heartbeat CPU 2 instructions: 1520000000 cycles: 2258564544 heartbeat IPC: 0.49479 cumulative IPC: 0.595509 (Simulation time: 7 hr 24 min 26 sec) 
Heartbeat CPU 3 instructions: 1380000000 cycles: 2265862847 heartbeat IPC: 0.572434 cumulative IPC: 0.532167 (Simulation time: 7 hr 25 min 39 sec) 
Heartbeat CPU 2 instructions: 1530000002 cycles: 2278425961 heartbeat IPC: 0.503489 cumulative IPC: 0.594668 (Simulation time: 7 hr 27 min 48 sec) 
Heartbeat CPU 3 instructions: 1390000000 cycles: 2283342634 heartbeat IPC: 0.572089 cumulative IPC: 0.532487 (Simulation time: 7 hr 28 min 38 sec) 
Heartbeat CPU 1 instructions: 1050000003 cycles: 2284024391 heartbeat IPC: 0.390721 cumulative IPC: 0.383061 (Simulation time: 7 hr 28 min 45 sec) 
Heartbeat CPU 2 instructions: 1540000000 cycles: 2299070035 heartbeat IPC: 0.4844 cumulative IPC: 0.59363 (Simulation time: 7 hr 31 min 20 sec) 
Heartbeat CPU 3 instructions: 1400000000 cycles: 2300813518 heartbeat IPC: 0.572381 cumulative IPC: 0.532805 (Simulation time: 7 hr 31 min 39 sec) 
Heartbeat CPU 1 instructions: 1060000000 cycles: 2309500159 heartbeat IPC: 0.39253 cumulative IPC: 0.38317 (Simulation time: 7 hr 33 min 17 sec) 
Heartbeat CPU 3 instructions: 1410000001 cycles: 2318290345 heartbeat IPC: 0.572186 cumulative IPC: 0.533116 (Simulation time: 7 hr 35 min 1 sec) 
Heartbeat CPU 2 instructions: 1550000001 cycles: 2319141000 heartbeat IPC: 0.498232 cumulative IPC: 0.592764 (Simulation time: 7 hr 35 min 10 sec) 
Heartbeat CPU 1 instructions: 1070000001 cycles: 2335062886 heartbeat IPC: 0.391195 cumulative IPC: 0.383262 (Simulation time: 7 hr 38 min 3 sec) 
Heartbeat CPU 3 instructions: 1420000000 cycles: 2335786357 heartbeat IPC: 0.571559 cumulative IPC: 0.533417 (Simulation time: 7 hr 38 min 10 sec) 
Heartbeat CPU 2 instructions: 1560000000 cycles: 2339129149 heartbeat IPC: 0.500296 cumulative IPC: 0.591937 (Simulation time: 7 hr 38 min 44 sec) 
Heartbeat CPU 3 instructions: 1430000002 cycles: 2353290025 heartbeat IPC: 0.571309 cumulative IPC: 0.533713 (Simulation time: 7 hr 41 min 8 sec) 
Heartbeat CPU 2 instructions: 1570000003 cycles: 2359259602 heartbeat IPC: 0.49676 cumulative IPC: 0.591087 (Simulation time: 7 hr 42 min 8 sec) 
Heartbeat CPU 1 instructions: 1080000000 cycles: 2360341462 heartbeat IPC: 0.395592 cumulative IPC: 0.3834 (Simulation time: 7 hr 42 min 19 sec) 
Heartbeat CPU 3 instructions: 1440000000 cycles: 2370796220 heartbeat IPC: 0.571226 cumulative IPC: 0.534002 (Simulation time: 7 hr 44 min 4 sec) 
Heartbeat CPU 2 instructions: 1580000000 cycles: 2381309055 heartbeat IPC: 0.453526 cumulative IPC: 0.589753 (Simulation time: 7 hr 45 min 47 sec) 
Heartbeat CPU 1 instructions: 1090000001 cycles: 2385937835 heartbeat IPC: 0.39068 cumulative IPC: 0.383482 (Simulation time: 7 hr 46 min 31 sec) 
Heartbeat CPU 3 instructions: 1450000003 cycles: 2388285529 heartbeat IPC: 0.571778 cumulative IPC: 0.534292 (Simulation time: 7 hr 46 min 54 sec) 
Heartbeat CPU 2 instructions: 1590000003 cycles: 2405754049 heartbeat IPC: 0.409082 cumulative IPC: 0.587833 (Simulation time: 7 hr 49 min 42 sec) 
Heartbeat CPU 3 instructions: 1460000000 cycles: 2405769969 heartbeat IPC: 0.571937 cumulative IPC: 0.534578 (Simulation time: 7 hr 49 min 42 sec) 
Heartbeat CPU 1 instructions: 1100000000 cycles: 2411745306 heartbeat IPC: 0.387485 cumulative IPC: 0.383527 (Simulation time: 7 hr 50 min 40 sec) 
Heartbeat CPU 3 instructions: 1470000000 cycles: 2423257757 heartbeat IPC: 0.571828 cumulative IPC: 0.534859 (Simulation time: 7 hr 52 min 29 sec) 
Heartbeat CPU 2 instructions: 1600000000 cycles: 2431275103 heartbeat IPC: 0.391833 cumulative IPC: 0.585682 (Simulation time: 7 hr 53 min 43 sec) 
Heartbeat CPU 1 instructions: 1110000000 cycles: 2437946259 heartbeat IPC: 0.381665 cumulative IPC: 0.383506 (Simulation time: 7 hr 54 min 41 sec) 
Heartbeat CPU 3 instructions: 1480000000 cycles: 2440756561 heartbeat IPC: 0.571468 cumulative IPC: 0.535134 (Simulation time: 7 hr 55 min 8 sec) 
Heartbeat CPU 0 instructions: 310000003 cycles: 2443140762 heartbeat IPC: 0.048081 cumulative IPC: 0.0470655 (Simulation time: 7 hr 55 min 32 sec) 
Heartbeat CPU 2 instructions: 1610000000 cycles: 2450849320 heartbeat IPC: 0.510876 cumulative IPC: 0.585057 (Simulation time: 7 hr 56 min 58 sec) 
Heartbeat CPU 3 instructions: 1490000001 cycles: 2458256680 heartbeat IPC: 0.571425 cumulative IPC: 0.535404 (Simulation time: 7 hr 58 min 27 sec) 
Heartbeat CPU 1 instructions: 1120000000 cycles: 2463571101 heartbeat IPC: 0.390246 cumulative IPC: 0.383579 (Simulation time: 7 hr 59 min 35 sec) 
Heartbeat CPU 2 instructions: 1620000000 cycles: 2467434111 heartbeat IPC: 0.602962 cumulative IPC: 0.585183 (Simulation time: 8 hr 0 min 18 sec) 
Heartbeat CPU 3 instructions: 1500000000 cycles: 2475756550 heartbeat IPC: 0.571433 cumulative IPC: 0.53567 (Simulation time: 8 hr 1 min 52 sec) 
Heartbeat CPU 2 instructions: 1630000001 cycles: 2484214388 heartbeat IPC: 0.595938 cumulative IPC: 0.585259 (Simulation time: 8 hr 3 min 26 sec) 
Heartbeat CPU 1 instructions: 1130000000 cycles: 2489577565 heartbeat IPC: 0.38452 cumulative IPC: 0.383589 (Simulation time: 8 hr 4 min 26 sec) 
Heartbeat CPU 3 instructions: 1510000003 cycles: 2493264230 heartbeat IPC: 0.571178 cumulative IPC: 0.53593 (Simulation time: 8 hr 5 min 7 sec) 
Heartbeat CPU 2 instructions: 1640000000 cycles: 2503116764 heartbeat IPC: 0.529034 cumulative IPC: 0.584816 (Simulation time: 8 hr 6 min 46 sec) 
Heartbeat CPU 3 instructions: 1520000000 cycles: 2510762049 heartbeat IPC: 0.5715 cumulative IPC: 0.536189 (Simulation time: 8 hr 7 min 59 sec) 
Heartbeat CPU 1 instructions: 1140000000 cycles: 2515262402 heartbeat IPC: 0.389335 cumulative IPC: 0.383651 (Simulation time: 8 hr 8 min 42 sec) 
Heartbeat CPU 2 instructions: 1650000002 cycles: 2525420831 heartbeat IPC: 0.448349 cumulative IPC: 0.583558 (Simulation time: 8 hr 10 min 25 sec) 
Heartbeat CPU 3 instructions: 1530000001 cycles: 2528271297 heartbeat IPC: 0.571127 cumulative IPC: 0.536441 (Simulation time: 8 hr 10 min 54 sec) 
Heartbeat CPU 1 instructions: 1150000003 cycles: 2540871065 heartbeat IPC: 0.390493 cumulative IPC: 0.383723 (Simulation time: 8 hr 12 min 58 sec) 
Heartbeat CPU 3 instructions: 1540000000 cycles: 2545758092 heartbeat IPC: 0.57186 cumulative IPC: 0.536695 (Simulation time: 8 hr 13 min 46 sec) 
Heartbeat CPU 2 instructions: 1660000000 cycles: 2547691543 heartbeat IPC: 0.44902 cumulative IPC: 0.582331 (Simulation time: 8 hr 14 min 5 sec) 
Heartbeat CPU 3 instructions: 1550000000 cycles: 2563214416 heartbeat IPC: 0.572858 cumulative IPC: 0.536952 (Simulation time: 8 hr 16 min 51 sec) 
Heartbeat CPU 1 instructions: 1160000000 cycles: 2566797583 heartbeat IPC: 0.385705 cumulative IPC: 0.383744 (Simulation time: 8 hr 17 min 33 sec) 
Heartbeat CPU 2 instructions: 1670000003 cycles: 2567336831 heartbeat IPC: 0.509028 cumulative IPC: 0.581745 (Simulation time: 8 hr 17 min 39 sec) 
Heartbeat CPU 3 instructions: 1560000000 cycles: 2580602423 heartbeat IPC: 0.575109 cumulative IPC: 0.53722 (Simulation time: 8 hr 20 min 0 sec) 
Heartbeat CPU 2 instructions: 1680000000 cycles: 2587370160 heartbeat IPC: 0.499168 cumulative IPC: 0.581079 (Simulation time: 8 hr 21 min 10 sec) 
Heartbeat CPU 1 instructions: 1170000001 cycles: 2592688276 heartbeat IPC: 0.386239 cumulative IPC: 0.38377 (Simulation time: 8 hr 22 min 11 sec) 
Heartbeat CPU 3 instructions: 1570000000 cycles: 2598001396 heartbeat IPC: 0.574747 cumulative IPC: 0.537482 (Simulation time: 8 hr 23 min 10 sec) 
Heartbeat CPU 2 instructions: 1690000000 cycles: 2612475058 heartbeat IPC: 0.398329 cumulative IPC: 0.579248 (Simulation time: 8 hr 25 min 38 sec) 
Heartbeat CPU 3 instructions: 1580000000 cycles: 2615412155 heartbeat IPC: 0.574358 cumulative IPC: 0.537738 (Simulation time: 8 hr 26 min 8 sec) 
Heartbeat CPU 1 instructions: 1180000000 cycles: 2619191524 heartbeat IPC: 0.377312 cumulative IPC: 0.383701 (Simulation time: 8 hr 26 min 46 sec) 
Heartbeat CPU 3 instructions: 1590000000 cycles: 2632830339 heartbeat IPC: 0.574113 cumulative IPC: 0.537989 (Simulation time: 8 hr 29 min 1 sec) 
Heartbeat CPU 2 instructions: 1700000000 cycles: 2638253079 heartbeat IPC: 0.387927 cumulative IPC: 0.577301 (Simulation time: 8 hr 29 min 54 sec) 
Heartbeat CPU 1 instructions: 1190000001 cycles: 2645788819 heartbeat IPC: 0.375978 cumulative IPC: 0.383621 (Simulation time: 8 hr 31 min 8 sec) 
Heartbeat CPU 3 instructions: 1600000000 cycles: 2650237342 heartbeat IPC: 0.574481 cumulative IPC: 0.538239 (Simulation time: 8 hr 31 min 52 sec) 
Heartbeat CPU 0 instructions: 320000000 cycles: 2652517457 heartbeat IPC: 0.0477608 cumulative IPC: 0.0471226 (Simulation time: 8 hr 32 min 15 sec) 
Heartbeat CPU 2 instructions: 1710000003 cycles: 2664001013 heartbeat IPC: 0.388381 cumulative IPC: 0.575399 (Simulation time: 8 hr 34 min 9 sec) 
Heartbeat CPU 3 instructions: 1610000001 cycles: 2667653441 heartbeat IPC: 0.574181 cumulative IPC: 0.538483 (Simulation time: 8 hr 34 min 44 sec) 
Heartbeat CPU 1 instructions: 1200000000 cycles: 2672219325 heartbeat IPC: 0.378351 cumulative IPC: 0.383566 (Simulation time: 8 hr 35 min 29 sec) 
Heartbeat CPU 3 instructions: 1620000000 cycles: 2685056249 heartbeat IPC: 0.57462 cumulative IPC: 0.538727 (Simulation time: 8 hr 37 min 48 sec) 
Heartbeat CPU 2 instructions: 1720000000 cycles: 2690032252 heartbeat IPC: 0.384154 cumulative IPC: 0.573473 (Simulation time: 8 hr 38 min 40 sec) 
Heartbeat CPU 1 instructions: 1210000002 cycles: 2698331216 heartbeat IPC: 0.382967 cumulative IPC: 0.38356 (Simulation time: 8 hr 40 min 11 sec) 
Heartbeat CPU 3 instructions: 1630000003 cycles: 2702466079 heartbeat IPC: 0.574388 cumulative IPC: 0.538966 (Simulation time: 8 hr 40 min 58 sec) 
Finished CPU 1 instructions: 1000000000 cycles: 2607840746 cumulative IPC: 0.383459 (Simulation time: 8 hr 42 min 59 sec) 
Heartbeat CPU 2 instructions: 1730000001 cycles: 2714798792 heartbeat IPC: 0.403771 cumulative IPC: 0.571862 (Simulation time: 8 hr 43 min 11 sec) 
Heartbeat CPU 3 instructions: 1640000000 cycles: 2719879178 heartbeat IPC: 0.57428 cumulative IPC: 0.539201 (Simulation time: 8 hr 44 min 2 sec) 
Heartbeat CPU 1 instructions: 1220000000 cycles: 2725024125 heartbeat IPC: 0.374631 cumulative IPC: 0.383469 (Simulation time: 8 hr 44 min 54 sec) 
Heartbeat CPU 3 instructions: 1650000001 cycles: 2737311706 heartbeat IPC: 0.57364 cumulative IPC: 0.539429 (Simulation time: 8 hr 46 min 53 sec) 
Heartbeat CPU 2 instructions: 1740000000 cycles: 2738335176 heartbeat IPC: 0.424874 cumulative IPC: 0.570547 (Simulation time: 8 hr 47 min 3 sec) 
Heartbeat CPU 1 instructions: 1230000002 cycles: 2751172870 heartbeat IPC: 0.382428 cumulative IPC: 0.383459 (Simulation time: 8 hr 49 min 15 sec) 
Heartbeat CPU 3 instructions: 1660000000 cycles: 2754754380 heartbeat IPC: 0.573307 cumulative IPC: 0.539652 (Simulation time: 8 hr 49 min 49 sec) 
Heartbeat CPU 2 instructions: 1750000001 cycles: 2755426759 heartbeat IPC: 0.585083 cumulative IPC: 0.570641 (Simulation time: 8 hr 49 min 54 sec) 
Heartbeat CPU 3 instructions: 1670000000 cycles: 2772203173 heartbeat IPC: 0.573106 cumulative IPC: 0.539871 (Simulation time: 8 hr 52 min 26 sec) 
Heartbeat CPU 1 instructions: 1240000000 cycles: 2776956609 heartbeat IPC: 0.387841 cumulative IPC: 0.383501 (Simulation time: 8 hr 53 min 7 sec) 
Heartbeat CPU 2 instructions: 1760000000 cycles: 2777725202 heartbeat IPC: 0.448462 cumulative IPC: 0.569621 (Simulation time: 8 hr 53 min 13 sec) 
Heartbeat CPU 3 instructions: 1680000000 cycles: 2789649519 heartbeat IPC: 0.573186 cumulative IPC: 0.540088 (Simulation time: 8 hr 55 min 4 sec) 
Heartbeat CPU 2 instructions: 1770000002 cycles: 2797399115 heartbeat IPC: 0.508287 cumulative IPC: 0.569173 (Simulation time: 8 hr 56 min 20 sec) 
Heartbeat CPU 1 instructions: 1250000002 cycles: 2802864522 heartbeat IPC: 0.385983 cumulative IPC: 0.383525 (Simulation time: 8 hr 57 min 13 sec) 
Heartbeat CPU 3 instructions: 1690000000 cycles: 2807099762 heartbeat IPC: 0.573058 cumulative IPC: 0.540301 (Simulation time: 8 hr 57 min 53 sec) 
Heartbeat CPU 2 instructions: 1780000000 cycles: 2822336713 heartbeat IPC: 0.401001 cumulative IPC: 0.567629 (Simulation time: 9 hr 0 min 20 sec) 
Heartbeat CPU 3 instructions: 1700000000 cycles: 2824533440 heartbeat IPC: 0.573602 cumulative IPC: 0.540514 (Simulation time: 9 hr 0 min 42 sec) 
Heartbeat CPU 1 instructions: 1260000000 cycles: 2829428251 heartbeat IPC: 0.376453 cumulative IPC: 0.383456 (Simulation time: 9 hr 1 min 29 sec) 
Heartbeat CPU 3 instructions: 1710000003 cycles: 2841957714 heartbeat IPC: 0.573912 cumulative IPC: 0.540727 (Simulation time: 9 hr 3 min 30 sec) 
Heartbeat CPU 2 instructions: 1790000000 cycles: 2846078683 heartbeat IPC: 0.421195 cumulative IPC: 0.56636 (Simulation time: 9 hr 4 min 11 sec) 
Heartbeat CPU 1 instructions: 1270000000 cycles: 2855846723 heartbeat IPC: 0.378523 cumulative IPC: 0.383409 (Simulation time: 9 hr 5 min 51 sec) 
Heartbeat CPU 3 instructions: 1720000000 cycles: 2859382550 heartbeat IPC: 0.573893 cumulative IPC: 0.540937 (Simulation time: 9 hr 6 min 26 sec) 
Heartbeat CPU 0 instructions: 330000003 cycles: 2863910211 heartbeat IPC: 0.0473053 cumulative IPC: 0.0471366 (Simulation time: 9 hr 7 min 10 sec) 
Heartbeat CPU 2 instructions: 1800000000 cycles: 2867514010 heartbeat IPC: 0.46652 cumulative IPC: 0.565585 (Simulation time: 9 hr 7 min 46 sec) 
Heartbeat CPU 3 instructions: 1730000000 cycles: 2876804090 heartbeat IPC: 0.574002 cumulative IPC: 0.541145 (Simulation time: 9 hr 9 min 17 sec) 
Heartbeat CPU 1 instructions: 1280000000 cycles: 2882240028 heartbeat IPC: 0.378884 cumulative IPC: 0.383366 (Simulation time: 9 hr 10 min 10 sec) 
Heartbeat CPU 2 instructions: 1810000000 cycles: 2889412954 heartbeat IPC: 0.456643 cumulative IPC: 0.564728 (Simulation time: 9 hr 11 min 22 sec) 
Heartbeat CPU 3 instructions: 1740000000 cycles: 2894218225 heartbeat IPC: 0.574246 cumulative IPC: 0.541352 (Simulation time: 9 hr 12 min 8 sec) 
Heartbeat CPU 1 instructions: 1290000003 cycles: 2907943725 heartbeat IPC: 0.389049 cumulative IPC: 0.383418 (Simulation time: 9 hr 14 min 14 sec) 
Heartbeat CPU 2 instructions: 1820000000 cycles: 2909611211 heartbeat IPC: 0.495092 cumulative IPC: 0.564227 (Simulation time: 9 hr 14 min 29 sec) 
Heartbeat CPU 3 instructions: 1750000000 cycles: 2911642545 heartbeat IPC: 0.57391 cumulative IPC: 0.541554 (Simulation time: 9 hr 14 min 48 sec) 
Heartbeat CPU 3 instructions: 1760000000 cycles: 2929075850 heartbeat IPC: 0.573615 cumulative IPC: 0.541752 (Simulation time: 9 hr 17 min 36 sec) 
Heartbeat CPU 2 instructions: 1830000000 cycles: 2929251102 heartbeat IPC: 0.509168 cumulative IPC: 0.563844 (Simulation time: 9 hr 17 min 38 sec) 
Heartbeat CPU 1 instructions: 1300000000 cycles: 2933783389 heartbeat IPC: 0.387002 cumulative IPC: 0.383451 (Simulation time: 9 hr 18 min 24 sec) 
Heartbeat CPU 3 instructions: 1770000001 cycles: 2946510616 heartbeat IPC: 0.573567 cumulative IPC: 0.541947 (Simulation time: 9 hr 20 min 29 sec) 
Heartbeat CPU 2 instructions: 1840000000 cycles: 2951778118 heartbeat IPC: 0.443911 cumulative IPC: 0.562894 (Simulation time: 9 hr 21 min 20 sec) 
Heartbeat CPU 1 instructions: 1310000002 cycles: 2959405520 heartbeat IPC: 0.390288 cumulative IPC: 0.383512 (Simulation time: 9 hr 22 min 35 sec) 
Heartbeat CPU 3 instructions: 1780000000 cycles: 2963946512 heartbeat IPC: 0.573529 cumulative IPC: 0.54214 (Simulation time: 9 hr 23 min 18 sec) 
Heartbeat CPU 2 instructions: 1850000000 cycles: 2976662441 heartbeat IPC: 0.401859 cumulative IPC: 0.561498 (Simulation time: 9 hr 25 min 21 sec) 
Heartbeat CPU 3 instructions: 1790000002 cycles: 2981387266 heartbeat IPC: 0.57337 cumulative IPC: 0.542329 (Simulation time: 9 hr 26 min 7 sec) 
Heartbeat CPU 1 instructions: 1320000000 cycles: 2985140779 heartbeat IPC: 0.388572 cumulative IPC: 0.383557 (Simulation time: 9 hr 26 min 44 sec) 
Heartbeat CPU 3 instructions: 1800000000 cycles: 2998818132 heartbeat IPC: 0.573695 cumulative IPC: 0.542518 (Simulation time: 9 hr 29 min 2 sec) 
Heartbeat CPU 2 instructions: 1860000000 cycles: 3002169850 heartbeat IPC: 0.392043 cumulative IPC: 0.560006 (Simulation time: 9 hr 29 min 37 sec) 
Heartbeat CPU 1 instructions: 1330000001 cycles: 3010885996 heartbeat IPC: 0.388422 cumulative IPC: 0.3836 (Simulation time: 9 hr 31 min 4 sec) 
Heartbeat CPU 3 instructions: 1810000001 cycles: 3016248942 heartbeat IPC: 0.573697 cumulative IPC: 0.542705 (Simulation time: 9 hr 32 min 7 sec) 
Heartbeat CPU 2 instructions: 1870000000 cycles: 3026214266 heartbeat IPC: 0.415897 cumulative IPC: 0.558819 (Simulation time: 9 hr 33 min 45 sec) 
Heartbeat CPU 3 instructions: 1820000000 cycles: 3033679748 heartbeat IPC: 0.573697 cumulative IPC: 0.542889 (Simulation time: 9 hr 35 min 3 sec) 
Heartbeat CPU 1 instructions: 1340000000 cycles: 3037363438 heartbeat IPC: 0.37768 cumulative IPC: 0.383547 (Simulation time: 9 hr 35 min 40 sec) 
Heartbeat CPU 2 instructions: 1880000000 cycles: 3050516955 heartbeat IPC: 0.411477 cumulative IPC: 0.557603 (Simulation time: 9 hr 38 min 1 sec) 
Heartbeat CPU 3 instructions: 1830000000 cycles: 3051310990 heartbeat IPC: 0.567175 cumulative IPC: 0.543035 (Simulation time: 9 hr 38 min 9 sec) 
[...]
Heartbeat CPU 2 instructions: 10190000001 cycles: 17933482593 heartbeat IPC: 0.793145 cumulative IPC: 0.558232 (Simulation time: 34 hr 50 min 13 sec) 
Heartbeat CPU 3 instructions: 9950000000 cycles: 17935262072 heartbeat IPC: 0.904728 cumulative IPC: 0.545138 (Simulation time: 34 hr 50 min 24 sec) 
Heartbeat CPU 3 instructions: 9960000000 cycles: 17946211148 heartbeat IPC: 0.913319 cumulative IPC: 0.545364 (Simulation time: 34 hr 51 min 40 sec) 
Heartbeat CPU 2 instructions: 10200000000 cycles: 17946328825 heartbeat IPC: 0.778438 cumulative IPC: 0.558391 (Simulation time: 34 hr 51 min 41 sec) 
Heartbeat CPU 1 instructions: 7520000000 cycles: 17949560476 heartbeat IPC: 0.402416 cumulative IPC: 0.409353 (Simulation time: 34 hr 52 min 3 sec) 
Heartbeat CPU 3 instructions: 9970000000 cycles: 17957199440 heartbeat IPC: 0.91006 cumulative IPC: 0.545588 (Simulation time: 34 hr 52 min 56 sec) 
Heartbeat CPU 2 instructions: 10210000003 cycles: 17959303094 heartbeat IPC: 0.770757 cumulative IPC: 0.558545 (Simulation time: 34 hr 53 min 10 sec) 
Heartbeat CPU 3 instructions: 9980000000 cycles: 17968075813 heartbeat IPC: 0.919424 cumulative IPC: 0.545816 (Simulation time: 34 hr 54 min 11 sec) 
Heartbeat CPU 2 instructions: 10220000000 cycles: 17972510714 heartbeat IPC: 0.757138 cumulative IPC: 0.558692 (Simulation time: 34 hr 54 min 40 sec) 
Heartbeat CPU 1 instructions: 7530000003 cycles: 17973378941 heartbeat IPC: 0.419842 cumulative IPC: 0.409367 (Simulation time: 34 hr 54 min 47 sec) 
Heartbeat CPU 3 instructions: 9990000001 cycles: 17978893249 heartbeat IPC: 0.924434 cumulative IPC: 0.546045 (Simulation time: 34 hr 55 min 25 sec) 
Heartbeat CPU 0 instructions: 1060000000 cycles: 17981334936 heartbeat IPC: 0.0484865 cumulative IPC: 0.0481109 (Simulation time: 34 hr 55 min 42 sec) 
Heartbeat CPU 2 instructions: 10230000002 cycles: 17986378535 heartbeat IPC: 0.721094 cumulative IPC: 0.558818 (Simulation time: 34 hr 56 min 12 sec) 
*** Reached end of trace for Core: 3 Repeating trace: /scratch/user/djimenez/champsim-traces/speccpu2017/xz/621.wrf_s/621.wrf_s-6673B.champsimtrace.xz
Heartbeat CPU 3 instructions: 10000000000 cycles: 17997416960 heartbeat IPC: 0.539849 cumulative IPC: 0.546039 (Simulation time: 34 hr 57 min 13 sec) 
Heartbeat CPU 1 instructions: 7540000000 cycles: 17997967489 heartbeat IPC: 0.406693 cumulative IPC: 0.409363 (Simulation time: 34 hr 57 min 16 sec) 
Heartbeat CPU 2 instructions: 10240000000 cycles: 18000606661 heartbeat IPC: 0.702833 cumulative IPC: 0.558932 (Simulation time: 34 hr 57 min 30 sec) 
Heartbeat CPU 2 instructions: 10250000002 cycles: 18014591746 heartbeat IPC: 0.715048 cumulative IPC: 0.559054 (Simulation time: 34 hr 58 min 53 sec) 
Heartbeat CPU 1 instructions: 7550000002 cycles: 18020503746 heartbeat IPC: 0.443729 cumulative IPC: 0.409407 (Simulation time: 34 hr 59 min 30 sec) 
Heartbeat CPU 3 instructions: 10010000003 cycles: 18020670312 heartbeat IPC: 0.430046 cumulative IPC: 0.545888 (Simulation time: 34 hr 59 min 31 sec) 
Heartbeat CPU 2 instructions: 10260000000 cycles: 18028347544 heartbeat IPC: 0.726966 cumulative IPC: 0.559183 (Simulation time: 35 hr 0 min 15 sec) 
Heartbeat CPU 1 instructions: 7560000000 cycles: 18042501291 heartbeat IPC: 0.454596 cumulative IPC: 0.409462 (Simulation time: 35 hr 1 min 33 sec) 
Heartbeat CPU 2 instructions: 10270000001 cycles: 18042991603 heartbeat IPC: 0.682871 cumulative IPC: 0.559284 (Simulation time: 35 hr 1 min 35 sec) 
Heartbeat CPU 3 instructions: 10020000000 cycles: 18046489683 heartbeat IPC: 0.387306 cumulative IPC: 0.54566 (Simulation time: 35 hr 1 min 54 sec) 
Heartbeat CPU 2 instructions: 10280000000 cycles: 18057617878 heartbeat IPC: 0.683701 cumulative IPC: 0.559385 (Simulation time: 35 hr 2 min 55 sec) 
Heartbeat CPU 1 instructions: 7570000000 cycles: 18063930134 heartbeat IPC: 0.466661 cumulative IPC: 0.40953 (Simulation time: 35 hr 3 min 29 sec) 
Heartbeat CPU 2 instructions: 10290000000 cycles: 18072284092 heartbeat IPC: 0.681839 cumulative IPC: 0.559485 (Simulation time: 35 hr 4 min 15 sec) 
Heartbeat CPU 3 instructions: 10030000003 cycles: 18072754272 heartbeat IPC: 0.380741 cumulative IPC: 0.545419 (Simulation time: 35 hr 4 min 17 sec) 
Heartbeat CPU 1 instructions: 7580000000 cycles: 18085367423 heartbeat IPC: 0.466477 cumulative IPC: 0.409598 (Simulation time: 35 hr 5 min 25 sec) 
Heartbeat CPU 2 instructions: 10300000000 cycles: 18087929680 heartbeat IPC: 0.639158 cumulative IPC: 0.559555 (Simulation time: 35 hr 5 min 38 sec) 
Heartbeat CPU 2 instructions: 10310000001 cycles: 18102890774 heartbeat IPC: 0.6684 cumulative IPC: 0.559645 (Simulation time: 35 hr 6 min 58 sec) 
Heartbeat CPU 3 instructions: 10040000000 cycles: 18104763599 heartbeat IPC: 0.312409 cumulative IPC: 0.545004 (Simulation time: 35 hr 7 min 10 sec) 
Heartbeat CPU 1 instructions: 7590000003 cycles: 18106941569 heartbeat IPC: 0.463518 cumulative IPC: 0.409663 (Simulation time: 35 hr 7 min 25 sec) 
Heartbeat CPU 2 instructions: 10320000000 cycles: 18115448569 heartbeat IPC: 0.796318 cumulative IPC: 0.55981 (Simulation time: 35 hr 8 min 14 sec) 
Heartbeat CPU 2 instructions: 10330000001 cycles: 18126482764 heartbeat IPC: 0.906274 cumulative IPC: 0.560022 (Simulation time: 35 hr 9 min 21 sec) 
Heartbeat CPU 1 instructions: 7600000000 cycles: 18127024840 heartbeat IPC: 0.497927 cumulative IPC: 0.409761 (Simulation time: 35 hr 9 min 24 sec) 
Heartbeat CPU 3 instructions: 10050000003 cycles: 18127913263 heartbeat IPC: 0.431972 cumulative IPC: 0.544859 (Simulation time: 35 hr 9 min 30 sec) 
Heartbeat CPU 2 instructions: 10340000000 cycles: 18142113490 heartbeat IPC: 0.639766 cumulative IPC: 0.560091 (Simulation time: 35 hr 10 min 52 sec) 
Heartbeat CPU 1 instructions: 7610000003 cycles: 18147111960 heartbeat IPC: 0.497832 cumulative IPC: 0.409859 (Simulation time: 35 hr 11 min 21 sec) 
Heartbeat CPU 3 instructions: 10060000000 cycles: 18154271318 heartbeat IPC: 0.379391 cumulative IPC: 0.544618 (Simulation time: 35 hr 12 min 3 sec) 
Heartbeat CPU 2 instructions: 10350000000 cycles: 18154296753 heartbeat IPC: 0.820798 cumulative IPC: 0.560267 (Simulation time: 35 hr 12 min 3 sec) 
Heartbeat CPU 1 instructions: 7620000000 cycles: 18166034323 heartbeat IPC: 0.528475 cumulative IPC: 0.409983 (Simulation time: 35 hr 13 min 11 sec) 
Heartbeat CPU 2 instructions: 10360000000 cycles: 18168210626 heartbeat IPC: 0.718707 cumulative IPC: 0.560389 (Simulation time: 35 hr 13 min 24 sec) 
Heartbeat CPU 2 instructions: 10370000000 cycles: 18180598484 heartbeat IPC: 0.807242 cumulative IPC: 0.560559 (Simulation time: 35 hr 14 min 33 sec) 
Heartbeat CPU 3 instructions: 10070000003 cycles: 18183225061 heartbeat IPC: 0.345379 cumulative IPC: 0.544298 (Simulation time: 35 hr 14 min 49 sec) 
Heartbeat CPU 1 instructions: 7630000002 cycles: 18184947617 heartbeat IPC: 0.528729 cumulative IPC: 0.410108 (Simulation time: 35 hr 15 min 0 sec) 
Heartbeat CPU 0 instructions: 1070000002 cycles: 18191145671 heartbeat IPC: 0.047662 cumulative IPC: 0.0481057 (Simulation time: 35 hr 15 min 37 sec) 
Heartbeat CPU 2 instructions: 10380000000 cycles: 18191792602 heartbeat IPC: 0.893326 cumulative IPC: 0.560765 (Simulation time: 35 hr 15 min 41 sec) 
Heartbeat CPU 1 instructions: 7640000000 cycles: 18202886056 heartbeat IPC: 0.557462 cumulative IPC: 0.410254 (Simulation time: 35 hr 16 min 48 sec) 
Heartbeat CPU 2 instructions: 10390000002 cycles: 18203032186 heartbeat IPC: 0.889713 cumulative IPC: 0.560969 (Simulation time: 35 hr 16 min 49 sec) 
Heartbeat CPU 3 instructions: 10080000000 cycles: 18208130089 heartbeat IPC: 0.401525 cumulative IPC: 0.544102 (Simulation time: 35 hr 17 min 22 sec) 
Heartbeat CPU 2 instructions: 10400000000 cycles: 18213964806 heartbeat IPC: 0.914694 cumulative IPC: 0.561182 (Simulation time: 35 hr 17 min 59 sec) 
Heartbeat CPU 1 instructions: 7650000001 cycles: 18220445580 heartbeat IPC: 0.569492 cumulative IPC: 0.410408 (Simulation time: 35 hr 18 min 36 sec) 
Heartbeat CPU 2 instructions: 10410000002 cycles: 18227544222 heartbeat IPC: 0.736409 cumulative IPC: 0.561314 (Simulation time: 35 hr 19 min 18 sec) 
Heartbeat CPU 3 instructions: 10090000002 cycles: 18233443301 heartbeat IPC: 0.395051 cumulative IPC: 0.543894 (Simulation time: 35 hr 19 min 52 sec) 
Heartbeat CPU 1 instructions: 7660000000 cycles: 18237911383 heartbeat IPC: 0.572547 cumulative IPC: 0.410564 (Simulation time: 35 hr 20 min 19 sec) 
Heartbeat CPU 2 instructions: 10420000000 cycles: 18240078286 heartbeat IPC: 0.797826 cumulative IPC: 0.561477 (Simulation time: 35 hr 20 min 33 sec) 
Heartbeat CPU 2 instructions: 10430000000 cycles: 18250565749 heartbeat IPC: 0.953519 cumulative IPC: 0.561704 (Simulation time: 35 hr 21 min 35 sec) 
Heartbeat CPU 1 instructions: 7670000002 cycles: 18255777964 heartbeat IPC: 0.559704 cumulative IPC: 0.410711 (Simulation time: 35 hr 22 min 3 sec) 
Heartbeat CPU 2 instructions: 10440000000 cycles: 18263649284 heartbeat IPC: 0.764319 cumulative IPC: 0.56185 (Simulation time: 35 hr 22 min 49 sec) 
Heartbeat CPU 3 instructions: 10100000000 cycles: 18268479385 heartbeat IPC: 0.28542 cumulative IPC: 0.543395 (Simulation time: 35 hr 23 min 17 sec) 
Heartbeat CPU 1 instructions: 7680000000 cycles: 18273612387 heartbeat IPC: 0.560713 cumulative IPC: 0.410858 (Simulation time: 35 hr 23 min 54 sec) 
Heartbeat CPU 2 instructions: 10450000001 cycles: 18273629793 heartbeat IPC: 1.00195 cumulative IPC: 0.562092 (Simulation time: 35 hr 23 min 54 sec) 
Heartbeat CPU 3 instructions: 10110000001 cycles: 18282179457 heartbeat IPC: 0.729923 cumulative IPC: 0.543536 (Simulation time: 35 hr 24 min 54 sec) 
Heartbeat CPU 2 instructions: 10460000000 cycles: 18282883255 heartbeat IPC: 1.08068 cumulative IPC: 0.562356 (Simulation time: 35 hr 24 min 58 sec) 
Heartbeat CPU 1 instructions: 7690000000 cycles: 18290543113 heartbeat IPC: 0.590642 cumulative IPC: 0.411026 (Simulation time: 35 hr 25 min 49 sec) 
Heartbeat CPU 2 instructions: 10470000002 cycles: 18292401781 heartbeat IPC: 1.05058 cumulative IPC: 0.562611 (Simulation time: 35 hr 26 min 2 sec) 
Heartbeat CPU 3 instructions: 10120000000 cycles: 18299568847 heartbeat IPC: 0.575063 cumulative IPC: 0.543566 (Simulation time: 35 hr 26 min 49 sec) 
Heartbeat CPU 2 instructions: 10480000000 cycles: 18302629714 heartbeat IPC: 0.977714 cumulative IPC: 0.562844 (Simulation time: 35 hr 27 min 11 sec) 
Heartbeat CPU 1 instructions: 7700000000 cycles: 18307727795 heartbeat IPC: 0.581914 cumulative IPC: 0.411187 (Simulation time: 35 hr 27 min 46 sec) 
Heartbeat CPU 2 instructions: 10490000000 cycles: 18312817031 heartbeat IPC: 0.981613 cumulative IPC: 0.563079 (Simulation time: 35 hr 28 min 21 sec) 
Heartbeat CPU 3 instructions: 10130000001 cycles: 18313353354 heartbeat IPC: 0.725452 cumulative IPC: 0.543704 (Simulation time: 35 hr 28 min 24 sec) 
Heartbeat CPU 2 instructions: 10500000000 cycles: 18322538956 heartbeat IPC: 1.0286 cumulative IPC: 0.563327 (Simulation time: 35 hr 29 min 24 sec) 
Heartbeat CPU 1 instructions: 7710000003 cycles: 18324812223 heartbeat IPC: 0.585329 cumulative IPC: 0.41135 (Simulation time: 35 hr 29 min 41 sec) 
Heartbeat CPU 3 instructions: 10140000000 cycles: 18329165673 heartbeat IPC: 0.632418 cumulative IPC: 0.543781 (Simulation time: 35 hr 30 min 12 sec) 
Heartbeat CPU 2 instructions: 10510000001 cycles: 18332306357 heartbeat IPC: 1.02381 cumulative IPC: 0.563574 (Simulation time: 35 hr 30 min 34 sec) 
Heartbeat CPU 1 instructions: 7720000000 cycles: 18341306029 heartbeat IPC: 0.606288 cumulative IPC: 0.411527 (Simulation time: 35 hr 31 min 33 sec) 
Heartbeat CPU 2 instructions: 10520000000 cycles: 18343074176 heartbeat IPC: 0.928693 cumulative IPC: 0.56379 (Simulation time: 35 hr 31 min 45 sec) 
Heartbeat CPU 3 instructions: 10150000002 cycles: 18345558488 heartbeat IPC: 0.610023 cumulative IPC: 0.54384 (Simulation time: 35 hr 32 min 0 sec) 
Heartbeat CPU 2 instructions: 10530000002 cycles: 18353423247 heartbeat IPC: 0.966271 cumulative IPC: 0.564018 (Simulation time: 35 hr 32 min 54 sec) 
Heartbeat CPU 1 instructions: 7730000000 cycles: 18358113668 heartbeat IPC: 0.594968 cumulative IPC: 0.411696 (Simulation time: 35 hr 33 min 27 sec) 
Heartbeat CPU 3 instructions: 10160000000 cycles: 18359581536 heartbeat IPC: 0.713112 cumulative IPC: 0.54397 (Simulation time: 35 hr 33 min 36 sec) 
Heartbeat CPU 2 instructions: 10540000000 cycles: 18366339512 heartbeat IPC: 0.774217 cumulative IPC: 0.564166 (Simulation time: 35 hr 34 min 18 sec) 
Heartbeat CPU 1 instructions: 7740000000 cycles: 18374836292 heartbeat IPC: 0.597992 cumulative IPC: 0.411866 (Simulation time: 35 hr 35 min 9 sec) 
Heartbeat CPU 3 instructions: 10170000000 cycles: 18377203413 heartbeat IPC: 0.567476 cumulative IPC: 0.543993 (Simulation time: 35 hr 35 min 26 sec) 
Heartbeat CPU 2 instructions: 10550000000 cycles: 18379548291 heartbeat IPC: 0.757072 cumulative IPC: 0.564306 (Simulation time: 35 hr 35 min 42 sec) 
Heartbeat CPU 2 instructions: 10560000000 cycles: 18391018776 heartbeat IPC: 0.871803 cumulative IPC: 0.564499 (Simulation time: 35 hr 37 min 0 sec) 
Heartbeat CPU 1 instructions: 7750000003 cycles: 18391172095 heartbeat IPC: 0.612153 cumulative IPC: 0.412045 (Simulation time: 35 hr 37 min 1 sec) 
Heartbeat CPU 0 instructions: 1080000000 cycles: 18391180739 heartbeat IPC: 0.0499912 cumulative IPC: 0.0481263 (Simulation time: 35 hr 37 min 1 sec) 
Heartbeat CPU 3 instructions: 10180000000 cycles: 18391236360 heartbeat IPC: 0.712609 cumulative IPC: 0.544122 (Simulation time: 35 hr 37 min 1 sec) 
Heartbeat CPU 2 instructions: 10570000000 cycles: 18402804477 heartbeat IPC: 0.848486 cumulative IPC: 0.564682 (Simulation time: 35 hr 38 min 13 sec) 
Heartbeat CPU 1 instructions: 7760000000 cycles: 18407386038 heartbeat IPC: 0.616753 cumulative IPC: 0.412226 (Simulation time: 35 hr 38 min 44 sec) 
Heartbeat CPU 3 instructions: 10190000002 cycles: 18410198036 heartbeat IPC: 0.52738 cumulative IPC: 0.544105 (Simulation time: 35 hr 39 min 3 sec) 
Heartbeat CPU 2 instructions: 10580000000 cycles: 18414526866 heartbeat IPC: 0.853068 cumulative IPC: 0.564866 (Simulation time: 35 hr 39 min 33 sec) 
Heartbeat CPU 1 instructions: 7770000002 cycles: 18423417454 heartbeat IPC: 0.623775 cumulative IPC: 0.412412 (Simulation time: 35 hr 40 min 34 sec) 
Heartbeat CPU 2 instructions: 10590000000 cycles: 18425880901 heartbeat IPC: 0.880744 cumulative IPC: 0.565062 (Simulation time: 35 hr 40 min 51 sec) 
Heartbeat CPU 3 instructions: 10200000000 cycles: 18425943130 heartbeat IPC: 0.635118 cumulative IPC: 0.544183 (Simulation time: 35 hr 40 min 51 sec) 
Heartbeat CPU 2 instructions: 10600000000 cycles: 18437280614 heartbeat IPC: 0.877215 cumulative IPC: 0.565256 (Simulation time: 35 hr 42 min 9 sec) 
Heartbeat CPU 1 instructions: 7780000000 cycles: 18439143248 heartbeat IPC: 0.635898 cumulative IPC: 0.412603 (Simulation time: 35 hr 42 min 21 sec) 
Heartbeat CPU 3 instructions: 10210000003 cycles: 18441670721 heartbeat IPC: 0.635825 cumulative IPC: 0.544262 (Simulation time: 35 hr 42 min 37 sec) 
Heartbeat CPU 2 instructions: 10610000001 cycles: 18451180061 heartbeat IPC: 0.719453 cumulative IPC: 0.565373 (Simulation time: 35 hr 43 min 40 sec) 
Heartbeat CPU 1 instructions: 7790000000 cycles: 18455448663 heartbeat IPC: 0.613293 cumulative IPC: 0.412782 (Simulation time: 35 hr 44 min 9 sec) 
Heartbeat CPU 3 instructions: 10220000000 cycles: 18457586387 heartbeat IPC: 0.628312 cumulative IPC: 0.544335 (Simulation time: 35 hr 44 min 23 sec) 
Heartbeat CPU 2 instructions: 10620000000 cycles: 18463273550 heartbeat IPC: 0.826891 cumulative IPC: 0.565545 (Simulation time: 35 hr 44 min 56 sec) 
Heartbeat CPU 1 instructions: 7800000000 cycles: 18472796449 heartbeat IPC: 0.576442 cumulative IPC: 0.412936 (Simulation time: 35 hr 45 min 54 sec) 
Heartbeat CPU 2 instructions: 10630000001 cycles: 18475328217 heartbeat IPC: 0.829554 cumulative IPC: 0.565719 (Simulation time: 35 hr 46 min 9 sec) 
Heartbeat CPU 3 instructions: 10230000000 cycles: 18481676545 heartbeat IPC: 0.415107 cumulative IPC: 0.544165 (Simulation time: 35 hr 46 min 46 sec) 
Heartbeat CPU 2 instructions: 10640000000 cycles: 18487327200 heartbeat IPC: 0.833404 cumulative IPC: 0.565893 (Simulation time: 35 hr 47 min 20 sec) 
Heartbeat CPU 1 instructions: 7810000000 cycles: 18489058679 heartbeat IPC: 0.614922 cumulative IPC: 0.413115 (Simulation time: 35 hr 47 min 30 sec) 
Heartbeat CPU 2 instructions: 10650000001 cycles: 18499627968 heartbeat IPC: 0.812957 cumulative IPC: 0.566059 (Simulation time: 35 hr 48 min 31 sec) 
Heartbeat CPU 3 instructions: 10240000000 cycles: 18504731114 heartbeat IPC: 0.433753 cumulative IPC: 0.544027 (Simulation time: 35 hr 49 min 5 sec) 
Heartbeat CPU 1 instructions: 7820000000 cycles: 18507048546 heartbeat IPC: 0.555869 cumulative IPC: 0.413254 (Simulation time: 35 hr 49 min 20 sec) 
Heartbeat CPU 2 instructions: 10660000000 cycles: 18511022590 heartbeat IPC: 0.877607 cumulative IPC: 0.566252 (Simulation time: 35 hr 49 min 48 sec) 
Heartbeat CPU 3 instructions: 10250000003 cycles: 18519559286 heartbeat IPC: 0.674392 cumulative IPC: 0.544132 (Simulation time: 35 hr 50 min 44 sec) 
Heartbeat CPU 2 instructions: 10670000001 cycles: 18522806212 heartbeat IPC: 0.848636 cumulative IPC: 0.566432 (Simulation time: 35 hr 51 min 5 sec) 
Heartbeat CPU 1 instructions: 7830000000 cycles: 18523099397 heartbeat IPC: 0.62302 cumulative IPC: 0.413437 (Simulation time: 35 hr 51 min 7 sec) 
Heartbeat CPU 3 instructions: 10260000000 cycles: 18534128351 heartbeat IPC: 0.686386 cumulative IPC: 0.544244 (Simulation time: 35 hr 52 min 21 sec) 
Heartbeat CPU 2 instructions: 10680000000 cycles: 18535681537 heartbeat IPC: 0.776679 cumulative IPC: 0.566579 (Simulation time: 35 hr 52 min 31 sec) 
Heartbeat CPU 1 instructions: 7840000000 cycles: 18539584094 heartbeat IPC: 0.606623 cumulative IPC: 0.41361 (Simulation time: 35 hr 52 min 56 sec) 
Heartbeat CPU 2 instructions: 10690000003 cycles: 18547583977 heartbeat IPC: 0.840164 cumulative IPC: 0.566756 (Simulation time: 35 hr 53 min 48 sec) 
Heartbeat CPU 3 instructions: 10270000000 cycles: 18550006698 heartbeat IPC: 0.629788 cumulative IPC: 0.544318 (Simulation time: 35 hr 54 min 4 sec) 
Heartbeat CPU 1 instructions: 7850000000 cycles: 18555897753 heartbeat IPC: 0.612983 cumulative IPC: 0.413786 (Simulation time: 35 hr 54 min 44 sec) 
Heartbeat CPU 2 instructions: 10700000000 cycles: 18560143446 heartbeat IPC: 0.796212 cumulative IPC: 0.566912 (Simulation time: 35 hr 55 min 12 sec) 
Heartbeat CPU 3 instructions: 10280000000 cycles: 18563848212 heartbeat IPC: 0.722464 cumulative IPC: 0.544452 (Simulation time: 35 hr 55 min 36 sec) 
Heartbeat CPU 2 instructions: 10710000000 cycles: 18572068862 heartbeat IPC: 0.838545 cumulative IPC: 0.567087 (Simulation time: 35 hr 56 min 30 sec) 
Heartbeat CPU 1 instructions: 7860000000 cycles: 18572144637 heartbeat IPC: 0.615503 cumulative IPC: 0.413964 (Simulation time: 35 hr 56 min 30 sec) 
Heartbeat CPU 3 instructions: 10290000003 cycles: 18578714155 heartbeat IPC: 0.672679 cumulative IPC: 0.544555 (Simulation time: 35 hr 57 min 16 sec) 
Heartbeat CPU 2 instructions: 10720000000 cycles: 18584194946 heartbeat IPC: 0.824669 cumulative IPC: 0.567256 (Simulation time: 35 hr 57 min 52 sec) 
Heartbeat CPU 0 instructions: 1090000001 cycles: 18585699517 heartbeat IPC: 0.0514089 cumulative IPC: 0.0481609 (Simulation time: 35 hr 58 min 2 sec) 
Heartbeat CPU 1 instructions: 7870000002 cycles: 18587911804 heartbeat IPC: 0.634229 cumulative IPC: 0.414152 (Simulation time: 35 hr 58 min 16 sec) 
Heartbeat CPU 2 instructions: 10730000001 cycles: 18596379435 heartbeat IPC: 0.820716 cumulative IPC: 0.567423 (Simulation time: 35 hr 59 min 7 sec) 
Heartbeat CPU 3 instructions: 10300000000 cycles: 18597260408 heartbeat IPC: 0.539192 cumulative IPC: 0.544549 (Simulation time: 35 hr 59 min 12 sec) 
Heartbeat CPU 1 instructions: 7880000000 cycles: 18604323831 heartbeat IPC: 0.609309 cumulative IPC: 0.414325 (Simulation time: 35 hr 59 min 55 sec) 
