
*** ChampSim Multicore Out-of-Order Simulator ***

Warmup Instructions: 200000000
Simulation Instructions: 1000000000
Number of CPUs: 4
LLC sets: 8192
LLC ways: 16
Off-chip DRAM Size: 8192 MB Channels: 2 Width: 64-bit Data Rate: 1600 MT/s

CPU 0 runs /scratch/user/djimenez/champsim-traces/speccpu2006/xz/464.h264ref-57B.champsimtrace.xz
CPU 1 runs /scratch/user/djimenez/champsim-traces/speccpu2006/xz/444.namd-166B.champsimtrace.xz
CPU 2 runs /scratch/user/djimenez/champsim-traces/speccpu2006/xz/400.perlbench-41B.champsimtrace.xz
CPU 3 runs /scratch/user/djimenez/champsim-traces/speccpu2006/xz/429.mcf-22B.champsimtrace.xz
Heartbeat CPU 1 instructions: 10000001 cycles: 4868523 heartbeat IPC: 2.05401 cumulative IPC: 2.05401 (Simulation time: 0 hr 1 min 34 sec) 
Heartbeat CPU 3 instructions: 10000001 cycles: 5818069 heartbeat IPC: 1.71878 cumulative IPC: 1.71878 (Simulation time: 0 hr 1 min 52 sec) 
Heartbeat CPU 0 instructions: 10000003 cycles: 6080405 heartbeat IPC: 1.64463 cumulative IPC: 1.64463 (Simulation time: 0 hr 1 min 57 sec) 
Heartbeat CPU 2 instructions: 10000002 cycles: 6703296 heartbeat IPC: 1.4918 cumulative IPC: 1.4918 (Simulation time: 0 hr 2 min 9 sec) 
Heartbeat CPU 1 instructions: 20000000 cycles: 9780841 heartbeat IPC: 2.0357 cumulative IPC: 2.04481 (Simulation time: 0 hr 3 min 7 sec) 
Heartbeat CPU 0 instructions: 20000000 cycles: 11058998 heartbeat IPC: 2.0086 cumulative IPC: 1.80848 (Simulation time: 0 hr 3 min 32 sec) 
Heartbeat CPU 3 instructions: 20000000 cycles: 11839336 heartbeat IPC: 1.66078 cumulative IPC: 1.68928 (Simulation time: 0 hr 3 min 48 sec) 
Heartbeat CPU 2 instructions: 20000000 cycles: 13330776 heartbeat IPC: 1.50887 cumulative IPC: 1.50029 (Simulation time: 0 hr 4 min 18 sec) 
Heartbeat CPU 1 instructions: 30000003 cycles: 14055953 heartbeat IPC: 2.33912 cumulative IPC: 2.13433 (Simulation time: 0 hr 4 min 31 sec) 
Heartbeat CPU 0 instructions: 30000000 cycles: 16409424 heartbeat IPC: 1.86901 cumulative IPC: 1.82822 (Simulation time: 0 hr 5 min 18 sec) 
Heartbeat CPU 3 instructions: 30000002 cycles: 17601360 heartbeat IPC: 1.7355 cumulative IPC: 1.70441 (Simulation time: 0 hr 5 min 41 sec) 
Heartbeat CPU 1 instructions: 40000000 cycles: 18885698 heartbeat IPC: 2.0705 cumulative IPC: 2.118 (Simulation time: 0 hr 6 min 7 sec) 
Heartbeat CPU 2 instructions: 30000000 cycles: 19045098 heartbeat IPC: 1.74999 cumulative IPC: 1.57521 (Simulation time: 0 hr 6 min 10 sec) 
Heartbeat CPU 0 instructions: 40000000 cycles: 22569366 heartbeat IPC: 1.62339 cumulative IPC: 1.77231 (Simulation time: 0 hr 7 min 21 sec) 
Heartbeat CPU 1 instructions: 50000000 cycles: 23114670 heartbeat IPC: 2.36464 cumulative IPC: 2.16313 (Simulation time: 0 hr 7 min 32 sec) 
Heartbeat CPU 3 instructions: 40000000 cycles: 23370272 heartbeat IPC: 1.73343 cumulative IPC: 1.71158 (Simulation time: 0 hr 7 min 37 sec) 
Heartbeat CPU 2 instructions: 40000000 cycles: 25244260 heartbeat IPC: 1.61312 cumulative IPC: 1.58452 (Simulation time: 0 hr 8 min 15 sec) 
Heartbeat CPU 1 instructions: 60000000 cycles: 27986984 heartbeat IPC: 2.05241 cumulative IPC: 2.14385 (Simulation time: 0 hr 9 min 10 sec) 
Heartbeat CPU 0 instructions: 50000002 cycles: 28786719 heartbeat IPC: 1.6084 cumulative IPC: 1.73691 (Simulation time: 0 hr 9 min 26 sec) 
Heartbeat CPU 3 instructions: 50000002 cycles: 29153539 heartbeat IPC: 1.72913 cumulative IPC: 1.71506 (Simulation time: 0 hr 9 min 33 sec) 
Heartbeat CPU 2 instructions: 50000002 cycles: 31300885 heartbeat IPC: 1.65108 cumulative IPC: 1.5974 (Simulation time: 0 hr 10 min 19 sec) 
Heartbeat CPU 1 instructions: 70000000 cycles: 32814894 heartbeat IPC: 2.07129 cumulative IPC: 2.13318 (Simulation time: 0 hr 10 min 51 sec) 
Heartbeat CPU 0 instructions: 60000000 cycles: 33879326 heartbeat IPC: 1.96363 cumulative IPC: 1.77099 (Simulation time: 0 hr 11 min 13 sec) 
Heartbeat CPU 3 instructions: 60000000 cycles: 35086501 heartbeat IPC: 1.6855 cumulative IPC: 1.71006 (Simulation time: 0 hr 11 min 37 sec) 
Heartbeat CPU 2 instructions: 60000000 cycles: 36677479 heartbeat IPC: 1.85991 cumulative IPC: 1.63588 (Simulation time: 0 hr 12 min 15 sec) 
Heartbeat CPU 1 instructions: 80000000 cycles: 37255893 heartbeat IPC: 2.25175 cumulative IPC: 2.14731 (Simulation time: 0 hr 12 min 28 sec) 
Heartbeat CPU 0 instructions: 70000000 cycles: 38982054 heartbeat IPC: 1.95974 cumulative IPC: 1.7957 (Simulation time: 0 hr 13 min 11 sec) 
Heartbeat CPU 3 instructions: 70000000 cycles: 40914463 heartbeat IPC: 1.71587 cumulative IPC: 1.71089 (Simulation time: 0 hr 13 min 51 sec) 
Heartbeat CPU 1 instructions: 90000001 cycles: 41852634 heartbeat IPC: 2.17545 cumulative IPC: 2.1504 (Simulation time: 0 hr 14 min 11 sec) 
Heartbeat CPU 2 instructions: 70000002 cycles: 42591438 heartbeat IPC: 1.69091 cumulative IPC: 1.64352 (Simulation time: 0 hr 14 min 27 sec) 
Heartbeat CPU 0 instructions: 80000000 cycles: 45117148 heartbeat IPC: 1.62997 cumulative IPC: 1.77316 (Simulation time: 0 hr 15 min 20 sec) 
Heartbeat CPU 1 instructions: 100000000 cycles: 46356849 heartbeat IPC: 2.22014 cumulative IPC: 2.15718 (Simulation time: 0 hr 15 min 46 sec) 
Heartbeat CPU 3 instructions: 80000000 cycles: 46879031 heartbeat IPC: 1.67657 cumulative IPC: 1.70652 (Simulation time: 0 hr 15 min 56 sec) 
Heartbeat CPU 2 instructions: 80000000 cycles: 48352236 heartbeat IPC: 1.73587 cumulative IPC: 1.65453 (Simulation time: 0 hr 16 min 26 sec) 
Heartbeat CPU 1 instructions: 110000000 cycles: 51021366 heartbeat IPC: 2.14384 cumulative IPC: 2.15596 (Simulation time: 0 hr 17 min 22 sec) 
Heartbeat CPU 0 instructions: 90000003 cycles: 51317083 heartbeat IPC: 1.61292 cumulative IPC: 1.7538 (Simulation time: 0 hr 17 min 28 sec) 
Heartbeat CPU 3 instructions: 90000003 cycles: 52818440 heartbeat IPC: 1.68367 cumulative IPC: 1.70395 (Simulation time: 0 hr 18 min 0 sec) 
Heartbeat CPU 2 instructions: 90000001 cycles: 54128230 heartbeat IPC: 1.7313 cumulative IPC: 1.66272 (Simulation time: 0 hr 18 min 28 sec) 
Heartbeat CPU 1 instructions: 120000000 cycles: 55875379 heartbeat IPC: 2.06015 cumulative IPC: 2.14764 (Simulation time: 0 hr 19 min 4 sec) 
Heartbeat CPU 0 instructions: 100000000 cycles: 56662806 heartbeat IPC: 1.87065 cumulative IPC: 1.76483 (Simulation time: 0 hr 19 min 21 sec) 
Heartbeat CPU 3 instructions: 100000000 cycles: 58706153 heartbeat IPC: 1.69845 cumulative IPC: 1.7034 (Simulation time: 0 hr 20 min 5 sec) 
Heartbeat CPU 2 instructions: 100000000 cycles: 59917858 heartbeat IPC: 1.72723 cumulative IPC: 1.66895 (Simulation time: 0 hr 20 min 29 sec) 
Heartbeat CPU 1 instructions: 130000000 cycles: 60340324 heartbeat IPC: 2.23967 cumulative IPC: 2.15445 (Simulation time: 0 hr 20 min 38 sec) 
Heartbeat CPU 0 instructions: 110000003 cycles: 61590223 heartbeat IPC: 2.02946 cumulative IPC: 1.786 (Simulation time: 0 hr 21 min 3 sec) 
Heartbeat CPU 3 instructions: 110000002 cycles: 64725816 heartbeat IPC: 1.66122 cumulative IPC: 1.69948 (Simulation time: 0 hr 22 min 2 sec) 
Heartbeat CPU 1 instructions: 140000000 cycles: 64885685 heartbeat IPC: 2.20005 cumulative IPC: 2.15764 (Simulation time: 0 hr 22 min 5 sec) 
Heartbeat CPU 2 instructions: 110000000 cycles: 65523587 heartbeat IPC: 1.78389 cumulative IPC: 1.67878 (Simulation time: 0 hr 22 min 17 sec) 
Heartbeat CPU 0 instructions: 120000000 cycles: 67570631 heartbeat IPC: 1.67213 cumulative IPC: 1.77592 (Simulation time: 0 hr 22 min 58 sec) 
Heartbeat CPU 1 instructions: 150000000 cycles: 69434458 heartbeat IPC: 2.1984 cumulative IPC: 2.16031 (Simulation time: 0 hr 23 min 34 sec) 
Heartbeat CPU 3 instructions: 120000000 cycles: 70596913 heartbeat IPC: 1.70326 cumulative IPC: 1.69979 (Simulation time: 0 hr 23 min 58 sec) 
Heartbeat CPU 2 instructions: 120000000 cycles: 71439528 heartbeat IPC: 1.69035 cumulative IPC: 1.67974 (Simulation time: 0 hr 24 min 14 sec) 
Heartbeat CPU 0 instructions: 130000001 cycles: 73754767 heartbeat IPC: 1.61704 cumulative IPC: 1.7626 (Simulation time: 0 hr 24 min 58 sec) 
Heartbeat CPU 1 instructions: 160000000 cycles: 73972098 heartbeat IPC: 2.20379 cumulative IPC: 2.16298 (Simulation time: 0 hr 25 min 1 sec) 
Heartbeat CPU 3 instructions: 130000001 cycles: 76640197 heartbeat IPC: 1.65473 cumulative IPC: 1.69624 (Simulation time: 0 hr 25 min 53 sec) 
Heartbeat CPU 2 instructions: 130000001 cycles: 77728981 heartbeat IPC: 1.58996 cumulative IPC: 1.67248 (Simulation time: 0 hr 26 min 16 sec) 
Heartbeat CPU 1 instructions: 170000000 cycles: 78473051 heartbeat IPC: 2.22175 cumulative IPC: 2.16635 (Simulation time: 0 hr 26 min 32 sec) 
Heartbeat CPU 0 instructions: 140000000 cycles: 79367516 heartbeat IPC: 1.78166 cumulative IPC: 1.76395 (Simulation time: 0 hr 26 min 50 sec) 
Heartbeat CPU 3 instructions: 140000000 cycles: 82429453 heartbeat IPC: 1.72734 cumulative IPC: 1.69842 (Simulation time: 0 hr 27 min 50 sec) 
Heartbeat CPU 1 instructions: 180000000 cycles: 83123842 heartbeat IPC: 2.15017 cumulative IPC: 2.16544 (Simulation time: 0 hr 28 min 3 sec) 
Heartbeat CPU 2 instructions: 140000000 cycles: 83455553 heartbeat IPC: 1.74625 cumulative IPC: 1.67754 (Simulation time: 0 hr 28 min 10 sec) 
Heartbeat CPU 0 instructions: 150000002 cycles: 84271973 heartbeat IPC: 2.03896 cumulative IPC: 1.77995 (Simulation time: 0 hr 28 min 26 sec) 
Heartbeat CPU 1 instructions: 190000002 cycles: 87437189 heartbeat IPC: 2.31839 cumulative IPC: 2.17299 (Simulation time: 0 hr 29 min 33 sec) 
Heartbeat CPU 3 instructions: 150000000 cycles: 88356217 heartbeat IPC: 1.68726 cumulative IPC: 1.69767 (Simulation time: 0 hr 29 min 52 sec) 
Heartbeat CPU 2 instructions: 150000000 cycles: 89216884 heartbeat IPC: 1.73571 cumulative IPC: 1.6813 (Simulation time: 0 hr 30 min 11 sec) 
Heartbeat CPU 0 instructions: 160000000 cycles: 89437075 heartbeat IPC: 1.93607 cumulative IPC: 1.78897 (Simulation time: 0 hr 30 min 15 sec) 
Heartbeat CPU 1 instructions: 200000000 cycles: 92445758 heartbeat IPC: 1.99658 cumulative IPC: 2.16343 (Simulation time: 0 hr 31 min 18 sec) 
Heartbeat CPU 3 instructions: 160000000 cycles: 94341648 heartbeat IPC: 1.67072 cumulative IPC: 1.69596 (Simulation time: 0 hr 31 min 56 sec) 
Heartbeat CPU 0 instructions: 170000000 cycles: 94404669 heartbeat IPC: 2.01305 cumulative IPC: 1.80076 (Simulation time: 0 hr 31 min 58 sec) 
Heartbeat CPU 2 instructions: 160000000 cycles: 94931404 heartbeat IPC: 1.74993 cumulative IPC: 1.68543 (Simulation time: 0 hr 32 min 9 sec) 
Heartbeat CPU 1 instructions: 210000001 cycles: 97179096 heartbeat IPC: 2.11267 cumulative IPC: 0.102903 (Simulation time: 0 hr 32 min 56 sec) 
Heartbeat CPU 0 instructions: 180000000 cycles: 99385186 heartbeat IPC: 2.00782 cumulative IPC: 1.81114 (Simulation time: 0 hr 33 min 42 sec) 
Heartbeat CPU 3 instructions: 170000003 cycles: 100109102 heartbeat IPC: 1.73387 cumulative IPC: 1.69815 (Simulation time: 0 hr 33 min 57 sec) 
Heartbeat CPU 2 instructions: 170000001 cycles: 101258488 heartbeat IPC: 1.58051 cumulative IPC: 1.67887 (Simulation time: 0 hr 34 min 20 sec) 
Heartbeat CPU 1 instructions: 220000000 cycles: 101792234 heartbeat IPC: 2.16772 cumulative IPC: 0.196479 (Simulation time: 0 hr 34 min 32 sec) 
Heartbeat CPU 0 instructions: 190000000 cycles: 104354661 heartbeat IPC: 2.01228 cumulative IPC: 1.82071 (Simulation time: 0 hr 35 min 26 sec) 
Heartbeat CPU 3 instructions: 180000000 cycles: 105909569 heartbeat IPC: 1.724 cumulative IPC: 1.69956 (Simulation time: 0 hr 35 min 59 sec) 
Heartbeat CPU 1 instructions: 230000000 cycles: 106272584 heartbeat IPC: 2.23197 cumulative IPC: 0.282293 (Simulation time: 0 hr 36 min 6 sec) 
Heartbeat CPU 2 instructions: 180000000 cycles: 107968209 heartbeat IPC: 1.49037 cumulative IPC: 1.66716 (Simulation time: 0 hr 36 min 39 sec) 
Heartbeat CPU 0 instructions: 200000000 cycles: 109234993 heartbeat IPC: 2.04904 cumulative IPC: 1.83092 (Simulation time: 0 hr 37 min 4 sec) 
Heartbeat CPU 1 instructions: 240000000 cycles: 110800950 heartbeat IPC: 2.2083 cumulative IPC: 0.361008 (Simulation time: 0 hr 37 min 36 sec) 
Heartbeat CPU 3 instructions: 190000000 cycles: 111839255 heartbeat IPC: 1.68643 cumulative IPC: 1.69887 (Simulation time: 0 hr 37 min 58 sec) 
Heartbeat CPU 0 instructions: 210000003 cycles: 114393268 heartbeat IPC: 1.93863 cumulative IPC: 0.0874178 (Simulation time: 0 hr 38 min 50 sec) 
Heartbeat CPU 2 instructions: 190000001 cycles: 114525184 heartbeat IPC: 1.52509 cumulative IPC: 1.65902 (Simulation time: 0 hr 38 min 52 sec) 
Heartbeat CPU 1 instructions: 250000000 cycles: 115528958 heartbeat IPC: 2.11506 cumulative IPC: 0.432792 (Simulation time: 0 hr 39 min 14 sec) 
Heartbeat CPU 3 instructions: 200000000 cycles: 117609899 heartbeat IPC: 1.73291 cumulative IPC: 1.70054 (Simulation time: 0 hr 39 min 58 sec) 
Heartbeat CPU 0 instructions: 220000000 cycles: 119325371 heartbeat IPC: 2.02753 cumulative IPC: 0.167609 (Simulation time: 0 hr 40 min 33 sec) 
Heartbeat CPU 2 instructions: 200000000 cycles: 120330960 heartbeat IPC: 1.72242 cumulative IPC: 1.66208 (Simulation time: 0 hr 40 min 54 sec) 

Warmup complete CPU 0 instructions: 221999883 cycles: 120330962 (Simulation time: 0 hr 40 min 54 sec) 
Warmup complete CPU 1 instructions: 259874308 cycles: 120330962 (Simulation time: 0 hr 40 min 54 sec) 
Warmup complete CPU 2 instructions: 200000003 cycles: 120330962 (Simulation time: 0 hr 40 min 54 sec) 
Warmup complete CPU 3 instructions: 204657262 cycles: 120330961 (Simulation time: 0 hr 40 min 54 sec) 

Heartbeat CPU 1 instructions: 260000000 cycles: 120449155 heartbeat IPC: 2.03244 cumulative IPC: 1.06345 (Simulation time: 0 hr 40 min 56 sec) 
Heartbeat CPU 0 instructions: 230000002 cycles: 126883652 heartbeat IPC: 1.32305 cumulative IPC: 1.22089 (Simulation time: 0 hr 42 min 8 sec) 
Heartbeat CPU 1 instructions: 270000002 cycles: 128166553 heartbeat IPC: 1.29577 cumulative IPC: 1.29227 (Simulation time: 0 hr 42 min 22 sec) 
Heartbeat CPU 3 instructions: 210000001 cycles: 134956230 heartbeat IPC: 0.576491 cumulative IPC: 0.365309 (Simulation time: 0 hr 43 min 34 sec) 
Heartbeat CPU 0 instructions: 240000000 cycles: 134978673 heartbeat IPC: 1.23533 cumulative IPC: 1.22887 (Simulation time: 0 hr 43 min 35 sec) 
Heartbeat CPU 1 instructions: 280000000 cycles: 136839153 heartbeat IPC: 1.15306 cumulative IPC: 1.21913 (Simulation time: 0 hr 43 min 54 sec) 
Heartbeat CPU 2 instructions: 210000001 cycles: 140381418 heartbeat IPC: 0.498742 cumulative IPC: 0.498742 (Simulation time: 0 hr 44 min 29 sec) 
Heartbeat CPU 1 instructions: 290000001 cycles: 144817769 heartbeat IPC: 1.25335 cumulative IPC: 1.23028 (Simulation time: 0 hr 45 min 10 sec) 
Heartbeat CPU 0 instructions: 250000000 cycles: 147727460 heartbeat IPC: 0.784388 cumulative IPC: 1.02203 (Simulation time: 0 hr 45 min 36 sec) 
Heartbeat CPU 1 instructions: 300000000 cycles: 153664573 heartbeat IPC: 1.13035 cumulative IPC: 1.20376 (Simulation time: 0 hr 46 min 28 sec) 
Heartbeat CPU 2 instructions: 220000000 cycles: 159917600 heartbeat IPC: 0.511871 cumulative IPC: 0.505221 (Simulation time: 0 hr 47 min 28 sec) 
Heartbeat CPU 1 instructions: 310000001 cycles: 162531731 heartbeat IPC: 1.12776 cumulative IPC: 1.18779 (Simulation time: 0 hr 47 min 51 sec) 
Heartbeat CPU 0 instructions: 260000000 cycles: 163719407 heartbeat IPC: 0.625315 cumulative IPC: 0.875812 (Simulation time: 0 hr 48 min 1 sec) 
Heartbeat CPU 1 instructions: 320000000 cycles: 170592470 heartbeat IPC: 1.24058 cumulative IPC: 1.19626 (Simulation time: 0 hr 49 min 12 sec) 
Heartbeat CPU 3 instructions: 220000000 cycles: 172094902 heartbeat IPC: 0.269261 cumulative IPC: 0.296398 (Simulation time: 0 hr 49 min 28 sec) 
Heartbeat CPU 0 instructions: 270000001 cycles: 173617407 heartbeat IPC: 1.01031 cumulative IPC: 0.900794 (Simulation time: 0 hr 49 min 44 sec) 
Heartbeat CPU 2 instructions: 230000001 cycles: 176951801 heartbeat IPC: 0.587054 cumulative IPC: 0.52984 (Simulation time: 0 hr 50 min 18 sec) 
Heartbeat CPU 1 instructions: 330000000 cycles: 179001299 heartbeat IPC: 1.18923 cumulative IPC: 1.19525 (Simulation time: 0 hr 50 min 38 sec) 
Heartbeat CPU 0 instructions: 280000000 cycles: 183344814 heartbeat IPC: 1.02802 cumulative IPC: 0.920434 (Simulation time: 0 hr 51 min 18 sec) 
Heartbeat CPU 1 instructions: 340000000 cycles: 187132724 heartbeat IPC: 1.2298 cumulative IPC: 1.19945 (Simulation time: 0 hr 51 min 56 sec) 
Heartbeat CPU 0 instructions: 290000001 cycles: 195715635 heartbeat IPC: 0.808354 cumulative IPC: 0.902042 (Simulation time: 0 hr 53 min 21 sec) 
Heartbeat CPU 1 instructions: 350000001 cycles: 195750452 heartbeat IPC: 1.1604 cumulative IPC: 1.19499 (Simulation time: 0 hr 53 min 21 sec) 
Heartbeat CPU 2 instructions: 240000000 cycles: 196363771 heartbeat IPC: 0.515146 cumulative IPC: 0.526089 (Simulation time: 0 hr 53 min 27 sec) 
Heartbeat CPU 3 instructions: 230000002 cycles: 202618478 heartbeat IPC: 0.327616 cumulative IPC: 0.307978 (Simulation time: 0 hr 54 min 27 sec) 
Heartbeat CPU 1 instructions: 360000000 cycles: 204668899 heartbeat IPC: 1.12127 cumulative IPC: 1.1872 (Simulation time: 0 hr 54 min 51 sec) 
Heartbeat CPU 0 instructions: 300000000 cycles: 211783608 heartbeat IPC: 0.622356 cumulative IPC: 0.852902 (Simulation time: 0 hr 56 min 3 sec) 
Heartbeat CPU 1 instructions: 370000002 cycles: 212648571 heartbeat IPC: 1.25318 cumulative IPC: 1.1929 (Simulation time: 0 hr 56 min 13 sec) 
Heartbeat CPU 2 instructions: 250000001 cycles: 215273768 heartbeat IPC: 0.528821 cumulative IPC: 0.526633 (Simulation time: 0 hr 56 min 36 sec) 
Heartbeat CPU 1 instructions: 380000000 cycles: 220788447 heartbeat IPC: 1.22852 cumulative IPC: 1.19579 (Simulation time: 0 hr 57 min 38 sec) 
Heartbeat CPU 0 instructions: 310000003 cycles: 224182862 heartbeat IPC: 0.8065 cumulative IPC: 0.847362 (Simulation time: 0 hr 58 min 25 sec) 
Heartbeat CPU 1 instructions: 390000003 cycles: 228892099 heartbeat IPC: 1.23401 cumulative IPC: 1.19864 (Simulation time: 0 hr 59 min 16 sec) 
Heartbeat CPU 3 instructions: 240000000 cycles: 233820784 heartbeat IPC: 0.320489 cumulative IPC: 0.311418 (Simulation time: 1 hr 0 min 8 sec) 
Heartbeat CPU 2 instructions: 260000000 cycles: 233879471 heartbeat IPC: 0.53747 cumulative IPC: 0.528408 (Simulation time: 1 hr 0 min 9 sec) 
Heartbeat CPU 0 instructions: 320000000 cycles: 233914557 heartbeat IPC: 1.02757 cumulative IPC: 0.862802 (Simulation time: 1 hr 0 min 9 sec) 
Heartbeat CPU 1 instructions: 400000000 cycles: 237502021 heartbeat IPC: 1.16145 cumulative IPC: 1.19591 (Simulation time: 1 hr 0 min 47 sec) 
Heartbeat CPU 0 instructions: 330000002 cycles: 244033006 heartbeat IPC: 0.988294 cumulative IPC: 0.873067 (Simulation time: 1 hr 1 min 47 sec) 
Heartbeat CPU 1 instructions: 410000001 cycles: 246559047 heartbeat IPC: 1.10412 cumulative IPC: 1.18932 (Simulation time: 1 hr 2 min 9 sec) 
Heartbeat CPU 2 instructions: 270000001 cycles: 252882227 heartbeat IPC: 0.52624 cumulative IPC: 0.528098 (Simulation time: 1 hr 3 min 8 sec) 
Heartbeat CPU 1 instructions: 420000000 cycles: 254506528 heartbeat IPC: 1.25826 cumulative IPC: 1.1934 (Simulation time: 1 hr 3 min 27 sec) 
Heartbeat CPU 0 instructions: 340000000 cycles: 258441425 heartbeat IPC: 0.694039 cumulative IPC: 0.854389 (Simulation time: 1 hr 4 min 6 sec) 
Heartbeat CPU 3 instructions: 250000001 cycles: 262384532 heartbeat IPC: 0.350094 cumulative IPC: 0.319195 (Simulation time: 1 hr 4 min 45 sec) 
Heartbeat CPU 1 instructions: 430000001 cycles: 262711988 heartbeat IPC: 1.2187 cumulative IPC: 1.19486 (Simulation time: 1 hr 4 min 48 sec) 
Heartbeat CPU 1 instructions: 440000000 cycles: 270999269 heartbeat IPC: 1.20667 cumulative IPC: 1.19551 (Simulation time: 1 hr 6 min 7 sec) 
Heartbeat CPU 2 instructions: 280000000 cycles: 271014967 heartbeat IPC: 0.551489 cumulative IPC: 0.530912 (Simulation time: 1 hr 6 min 7 sec) 
Heartbeat CPU 0 instructions: 350000003 cycles: 273728557 heartbeat IPC: 0.654145 cumulative IPC: 0.834434 (Simulation time: 1 hr 6 min 32 sec) 
Heartbeat CPU 1 instructions: 450000002 cycles: 279226363 heartbeat IPC: 1.2155 cumulative IPC: 1.19655 (Simulation time: 1 hr 7 min 27 sec) 
Heartbeat CPU 0 instructions: 360000000 cycles: 283929385 heartbeat IPC: 0.980312 cumulative IPC: 0.84353 (Simulation time: 1 hr 8 min 15 sec) 
Heartbeat CPU 1 instructions: 460000000 cycles: 287460617 heartbeat IPC: 1.21444 cumulative IPC: 1.19743 (Simulation time: 1 hr 8 min 53 sec) 
Heartbeat CPU 3 instructions: 260000000 cycles: 289680254 heartbeat IPC: 0.366358 cumulative IPC: 0.326796 (Simulation time: 1 hr 9 min 18 sec) 
Heartbeat CPU 2 instructions: 290000000 cycles: 291538899 heartbeat IPC: 0.487236 cumulative IPC: 0.525677 (Simulation time: 1 hr 9 min 38 sec) 
Heartbeat CPU 0 instructions: 370000000 cycles: 293800804 heartbeat IPC: 1.01303 cumulative IPC: 0.853175 (Simulation time: 1 hr 10 min 2 sec) 
Heartbeat CPU 1 instructions: 470000001 cycles: 295841448 heartbeat IPC: 1.1932 cumulative IPC: 1.19723 (Simulation time: 1 hr 10 min 23 sec) 
Heartbeat CPU 1 instructions: 480000000 cycles: 303483427 heartbeat IPC: 1.30856 cumulative IPC: 1.20187 (Simulation time: 1 hr 11 min 42 sec) 
Heartbeat CPU 0 instructions: 380000000 cycles: 306255523 heartbeat IPC: 0.802909 cumulative IPC: 0.849808 (Simulation time: 1 hr 12 min 8 sec) 
Heartbeat CPU 2 instructions: 300000000 cycles: 311769591 heartbeat IPC: 0.494298 cumulative IPC: 0.522361 (Simulation time: 1 hr 12 min 59 sec) 
Heartbeat CPU 1 instructions: 490000003 cycles: 313327927 heartbeat IPC: 1.0158 cumulative IPC: 1.19238 (Simulation time: 1 hr 13 min 13 sec) 
Heartbeat CPU 3 instructions: 270000001 cycles: 314833543 heartbeat IPC: 0.397562 cumulative IPC: 0.335948 (Simulation time: 1 hr 13 min 27 sec) 
Heartbeat CPU 1 instructions: 500000000 cycles: 322247352 heartbeat IPC: 1.12115 cumulative IPC: 1.18923 (Simulation time: 1 hr 14 min 36 sec) 
Heartbeat CPU 0 instructions: 390000000 cycles: 323029328 heartbeat IPC: 0.596168 cumulative IPC: 0.828818 (Simulation time: 1 hr 14 min 42 sec) 
Heartbeat CPU 2 instructions: 310000002 cycles: 330429311 heartbeat IPC: 0.535914 cumulative IPC: 0.523564 (Simulation time: 1 hr 15 min 49 sec) 
Heartbeat CPU 1 instructions: 510000000 cycles: 330947114 heartbeat IPC: 1.14946 cumulative IPC: 1.18759 (Simulation time: 1 hr 15 min 55 sec) 
Heartbeat CPU 0 instructions: 400000000 cycles: 335421214 heartbeat IPC: 0.80698 cumulative IPC: 0.82756 (Simulation time: 1 hr 16 min 46 sec) 
Heartbeat CPU 1 instructions: 520000000 cycles: 339471018 heartbeat IPC: 1.17317 cumulative IPC: 1.18703 (Simulation time: 1 hr 17 min 28 sec) 
Heartbeat CPU 3 instructions: 280000000 cycles: 339756430 heartbeat IPC: 0.401238 cumulative IPC: 0.343364 (Simulation time: 1 hr 17 min 31 sec) 
Heartbeat CPU 0 instructions: 410000000 cycles: 345279516 heartbeat IPC: 1.01437 cumulative IPC: 0.835747 (Simulation time: 1 hr 18 min 34 sec) 
Heartbeat CPU 1 instructions: 530000001 cycles: 347597926 heartbeat IPC: 1.23048 cumulative IPC: 1.18858 (Simulation time: 1 hr 19 min 3 sec) 
Heartbeat CPU 2 instructions: 320000000 cycles: 349626817 heartbeat IPC: 0.520901 cumulative IPC: 0.523341 (Simulation time: 1 hr 19 min 24 sec) 
Heartbeat CPU 0 instructions: 420000000 cycles: 355808004 heartbeat IPC: 0.949804 cumulative IPC: 0.840847 (Simulation time: 1 hr 20 min 32 sec) 
Heartbeat CPU 1 instructions: 540000000 cycles: 356498582 heartbeat IPC: 1.12351 cumulative IPC: 1.18613 (Simulation time: 1 hr 20 min 39 sec) 
Heartbeat CPU 1 instructions: 550000000 cycles: 365877051 heartbeat IPC: 1.06627 cumulative IPC: 1.18155 (Simulation time: 1 hr 22 min 13 sec) 
Heartbeat CPU 2 instructions: 330000000 cycles: 367624682 heartbeat IPC: 0.555621 cumulative IPC: 0.525691 (Simulation time: 1 hr 22 min 28 sec) 
Heartbeat CPU 3 instructions: 290000002 cycles: 370003949 heartbeat IPC: 0.330606 cumulative IPC: 0.341818 (Simulation time: 1 hr 22 min 48 sec) 
Heartbeat CPU 0 instructions: 430000003 cycles: 371963688 heartbeat IPC: 0.618977 cumulative IPC: 0.826602 (Simulation time: 1 hr 23 min 7 sec) 
Heartbeat CPU 1 instructions: 560000000 cycles: 372481043 heartbeat IPC: 1.51424 cumulative IPC: 1.19027 (Simulation time: 1 hr 23 min 12 sec) 
Heartbeat CPU 1 instructions: 570000002 cycles: 381565551 heartbeat IPC: 1.10078 cumulative IPC: 1.18715 (Simulation time: 1 hr 24 min 35 sec) 
Heartbeat CPU 0 instructions: 440000000 cycles: 387574040 heartbeat IPC: 0.6406 cumulative IPC: 0.815737 (Simulation time: 1 hr 25 min 31 sec) 
Heartbeat CPU 1 instructions: 580000000 cycles: 388920695 heartbeat IPC: 1.35959 cumulative IPC: 1.19188 (Simulation time: 1 hr 25 min 45 sec) 
Heartbeat CPU 2 instructions: 340000000 cycles: 394551228 heartbeat IPC: 0.371381 cumulative IPC: 0.510538 (Simulation time: 1 hr 26 min 42 sec) 
Heartbeat CPU 0 instructions: 450000000 cycles: 397372802 heartbeat IPC: 1.02054 cumulative IPC: 0.822981 (Simulation time: 1 hr 27 min 11 sec) 
Heartbeat CPU 1 instructions: 590000003 cycles: 398184622 heartbeat IPC: 1.07946 cumulative IPC: 1.18813 (Simulation time: 1 hr 27 min 18 sec) 
Heartbeat CPU 3 instructions: 300000000 cycles: 404765412 heartbeat IPC: 0.287675 cumulative IPC: 0.335201 (Simulation time: 1 hr 28 min 22 sec) 
Heartbeat CPU 0 instructions: 460000000 cycles: 407298431 heartbeat IPC: 1.00749 cumulative IPC: 0.829363 (Simulation time: 1 hr 28 min 50 sec) 
Heartbeat CPU 1 instructions: 600000000 cycles: 407438461 heartbeat IPC: 1.08063 cumulative IPC: 1.18466 (Simulation time: 1 hr 28 min 52 sec) 
Heartbeat CPU 1 instructions: 610000003 cycles: 414589717 heartbeat IPC: 1.39836 cumulative IPC: 1.18986 (Simulation time: 1 hr 30 min 5 sec) 
Heartbeat CPU 0 instructions: 470000003 cycles: 421419604 heartbeat IPC: 0.708157 cumulative IPC: 0.823678 (Simulation time: 1 hr 31 min 3 sec) 
Heartbeat CPU 1 instructions: 620000000 cycles: 423658490 heartbeat IPC: 1.10268 cumulative IPC: 1.18725 (Simulation time: 1 hr 31 min 19 sec) 
Heartbeat CPU 2 instructions: 350000001 cycles: 423733299 heartbeat IPC: 0.342676 cumulative IPC: 0.494393 (Simulation time: 1 hr 31 min 19 sec) 
Heartbeat CPU 1 instructions: 630000003 cycles: 431533915 heartbeat IPC: 1.26977 cumulative IPC: 1.18934 (Simulation time: 1 hr 32 min 26 sec) 
Heartbeat CPU 0 instructions: 480000000 cycles: 438566358 heartbeat IPC: 0.583201 cumulative IPC: 0.810721 (Simulation time: 1 hr 33 min 26 sec) 
Heartbeat CPU 3 instructions: 310000000 cycles: 439188763 heartbeat IPC: 0.2905 cumulative IPC: 0.330375 (Simulation time: 1 hr 33 min 32 sec) 
Heartbeat CPU 1 instructions: 640000000 cycles: 440775618 heartbeat IPC: 1.08205 cumulative IPC: 1.18624 (Simulation time: 1 hr 33 min 47 sec) 
Heartbeat CPU 1 instructions: 650000000 cycles: 449163789 heartbeat IPC: 1.19216 cumulative IPC: 1.1864 (Simulation time: 1 hr 35 min 10 sec) 
Heartbeat CPU 0 instructions: 490000003 cycles: 450125499 heartbeat IPC: 0.865116 cumulative IPC: 0.812628 (Simulation time: 1 hr 35 min 21 sec) 
Heartbeat CPU 2 instructions: 360000000 cycles: 450929372 heartbeat IPC: 0.3677 cumulative IPC: 0.483971 (Simulation time: 1 hr 35 min 29 sec) 
Heartbeat CPU 1 instructions: 660000000 cycles: 457199914 heartbeat IPC: 1.24438 cumulative IPC: 1.18778 (Simulation time: 1 hr 36 min 29 sec) 
Heartbeat CPU 0 instructions: 500000000 cycles: 460035414 heartbeat IPC: 1.00909 cumulative IPC: 0.818359 (Simulation time: 1 hr 36 min 56 sec) 
Heartbeat CPU 1 instructions: 670000003 cycles: 465304008 heartbeat IPC: 1.23394 cumulative IPC: 1.18886 (Simulation time: 1 hr 37 min 51 sec) 
Heartbeat CPU 3 instructions: 320000000 cycles: 469594333 heartbeat IPC: 0.328887 cumulative IPC: 0.330246 (Simulation time: 1 hr 38 min 35 sec) 
Heartbeat CPU 2 instructions: 370000000 cycles: 469809730 heartbeat IPC: 0.529651 cumulative IPC: 0.486439 (Simulation time: 1 hr 38 min 37 sec) 
Heartbeat CPU 0 instructions: 510000000 cycles: 471508906 heartbeat IPC: 0.871574 cumulative IPC: 0.820097 (Simulation time: 1 hr 38 min 54 sec) 
Heartbeat CPU 1 instructions: 680000000 cycles: 474583291 heartbeat IPC: 1.07767 cumulative IPC: 1.18595 (Simulation time: 1 hr 39 min 23 sec) 
Heartbeat CPU 1 instructions: 690000001 cycles: 483439391 heartbeat IPC: 1.12917 cumulative IPC: 1.18457 (Simulation time: 1 hr 40 min 50 sec) 
Heartbeat CPU 0 instructions: 520000000 cycles: 488482037 heartbeat IPC: 0.589166 cumulative IPC: 0.809451 (Simulation time: 1 hr 41 min 37 sec) 
Heartbeat CPU 2 instructions: 380000000 cycles: 489572068 heartbeat IPC: 0.506013 cumulative IPC: 0.487486 (Simulation time: 1 hr 41 min 47 sec) 
Heartbeat CPU 1 instructions: 700000000 cycles: 491054567 heartbeat IPC: 1.31317 cumulative IPC: 1.18721 (Simulation time: 1 hr 42 min 1 sec) 
Heartbeat CPU 3 instructions: 330000003 cycles: 493054122 heartbeat IPC: 0.426261 cumulative IPC: 0.336289 (Simulation time: 1 hr 42 min 20 sec) 
Heartbeat CPU 1 instructions: 710000000 cycles: 499364612 heartbeat IPC: 1.20336 cumulative IPC: 1.18756 (Simulation time: 1 hr 43 min 22 sec) 
Heartbeat CPU 0 instructions: 530000001 cycles: 502314905 heartbeat IPC: 0.722916 cumulative IPC: 0.806317 (Simulation time: 1 hr 43 min 53 sec) 
Heartbeat CPU 1 instructions: 720000000 cycles: 507229426 heartbeat IPC: 1.27149 cumulative IPC: 1.18927 (Simulation time: 1 hr 44 min 45 sec) 
Heartbeat CPU 2 instructions: 390000002 cycles: 509153041 heartbeat IPC: 0.5107 cumulative IPC: 0.488655 (Simulation time: 1 hr 45 min 3 sec) 
Heartbeat CPU 0 instructions: 540000000 cycles: 512094678 heartbeat IPC: 1.02252 cumulative IPC: 0.811714 (Simulation time: 1 hr 45 min 31 sec) 
Heartbeat CPU 1 instructions: 730000003 cycles: 515822593 heartbeat IPC: 1.16372 cumulative IPC: 1.18871 (Simulation time: 1 hr 46 min 11 sec) 
Heartbeat CPU 3 instructions: 340000000 cycles: 519528516 heartbeat IPC: 0.377723 cumulative IPC: 0.339037 (Simulation time: 1 hr 46 min 50 sec) 
Heartbeat CPU 0 instructions: 550000002 cycles: 522011032 heartbeat IPC: 1.00844 cumulative IPC: 0.816571 (Simulation time: 1 hr 47 min 15 sec) 
Heartbeat CPU 1 instructions: 740000000 cycles: 523662582 heartbeat IPC: 1.27551 cumulative IPC: 1.1904 (Simulation time: 1 hr 47 min 31 sec) 
Heartbeat CPU 2 instructions: 400000000 cycles: 528821484 heartbeat IPC: 0.508429 cumulative IPC: 0.489607 (Simulation time: 1 hr 48 min 27 sec) 
Heartbeat CPU 1 instructions: 750000003 cycles: 532674033 heartbeat IPC: 1.1097 cumulative IPC: 1.18864 (Simulation time: 1 hr 49 min 3 sec) 
Heartbeat CPU 0 instructions: 560000000 cycles: 537330010 heartbeat IPC: 0.652785 cumulative IPC: 0.810554 (Simulation time: 1 hr 49 min 50 sec) 
Heartbeat CPU 1 instructions: 760000000 cycles: 540677868 heartbeat IPC: 1.2494 cumulative IPC: 1.18979 (Simulation time: 1 hr 50 min 22 sec) 
Heartbeat CPU 2 instructions: 410000000 cycles: 546377447 heartbeat IPC: 0.569607 cumulative IPC: 0.492904 (Simulation time: 1 hr 51 min 12 sec) 
Heartbeat CPU 3 instructions: 350000003 cycles: 549422904 heartbeat IPC: 0.334511 cumulative IPC: 0.338722 (Simulation time: 1 hr 51 min 40 sec) 
Heartbeat CPU 1 instructions: 770000003 cycles: 550334266 heartbeat IPC: 1.03558 cumulative IPC: 1.18633 (Simulation time: 1 hr 51 min 49 sec) 
Heartbeat CPU 0 instructions: 570000001 cycles: 553390637 heartbeat IPC: 0.622641 cumulative IPC: 0.803585 (Simulation time: 1 hr 52 min 17 sec) 
Heartbeat CPU 1 instructions: 780000000 cycles: 558310781 heartbeat IPC: 1.25368 cumulative IPC: 1.18756 (Simulation time: 1 hr 53 min 9 sec) 
Heartbeat CPU 2 instructions: 420000000 cycles: 563734749 heartbeat IPC: 0.576126 cumulative IPC: 0.496162 (Simulation time: 1 hr 54 min 2 sec) 
Heartbeat CPU 0 instructions: 580000000 cycles: 564094369 heartbeat IPC: 0.934254 cumulative IPC: 0.806736 (Simulation time: 1 hr 54 min 6 sec) 
Heartbeat CPU 1 instructions: 790000002 cycles: 567445212 heartbeat IPC: 1.09476 cumulative IPC: 1.18566 (Simulation time: 1 hr 54 min 42 sec) 
Heartbeat CPU 0 instructions: 590000002 cycles: 573821963 heartbeat IPC: 1.028 cumulative IPC: 0.811483 (Simulation time: 1 hr 55 min 51 sec) 
Heartbeat CPU 3 instructions: 360000000 cycles: 575158121 heartbeat IPC: 0.388572 cumulative IPC: 0.341542 (Simulation time: 1 hr 56 min 6 sec) 
Heartbeat CPU 1 instructions: 800000000 cycles: 575794427 heartbeat IPC: 1.19772 cumulative IPC: 1.18588 (Simulation time: 1 hr 56 min 13 sec) 
Heartbeat CPU 2 instructions: 430000002 cycles: 583630936 heartbeat IPC: 0.502609 cumulative IPC: 0.496439 (Simulation time: 1 hr 57 min 34 sec) 
Heartbeat CPU 1 instructions: 810000002 cycles: 583706157 heartbeat IPC: 1.26395 cumulative IPC: 1.18721 (Simulation time: 1 hr 57 min 34 sec) 
Heartbeat CPU 0 instructions: 600000000 cycles: 585264409 heartbeat IPC: 0.873939 cumulative IPC: 0.81302 (Simulation time: 1 hr 57 min 50 sec) 
Heartbeat CPU 1 instructions: 820000000 cycles: 592774310 heartbeat IPC: 1.10276 cumulative IPC: 1.18559 (Simulation time: 1 hr 59 min 0 sec) 
Heartbeat CPU 1 instructions: 830000000 cycles: 601244295 heartbeat IPC: 1.18064 cumulative IPC: 1.18551 (Simulation time: 2 hr 0 min 11 sec) 
Heartbeat CPU 2 instructions: 440000000 cycles: 602004688 heartbeat IPC: 0.544255 cumulative IPC: 0.498263 (Simulation time: 2 hr 0 min 17 sec) 
Heartbeat CPU 0 instructions: 610000002 cycles: 602231190 heartbeat IPC: 0.589387 cumulative IPC: 0.805146 (Simulation time: 2 hr 0 min 19 sec) 
Heartbeat CPU 1 instructions: 840000000 cycles: 609168726 heartbeat IPC: 1.26192 cumulative IPC: 1.18674 (Simulation time: 2 hr 1 min 22 sec) 
Heartbeat CPU 3 instructions: 370000000 cycles: 610210857 heartbeat IPC: 0.285284 cumulative IPC: 0.337517 (Simulation time: 2 hr 1 min 32 sec) 
Heartbeat CPU 0 instructions: 620000000 cycles: 614865956 heartbeat IPC: 0.791467 cumulative IPC: 0.804797 (Simulation time: 2 hr 2 min 23 sec) 
Heartbeat CPU 1 instructions: 850000000 cycles: 617969982 heartbeat IPC: 1.1362 cumulative IPC: 1.18585 (Simulation time: 2 hr 2 min 55 sec) 
Heartbeat CPU 2 instructions: 450000000 cycles: 620825571 heartbeat IPC: 0.531325 cumulative IPC: 0.499506 (Simulation time: 2 hr 3 min 26 sec) 
Heartbeat CPU 0 instructions: 630000002 cycles: 624547543 heartbeat IPC: 1.03289 cumulative IPC: 0.809176 (Simulation time: 2 hr 4 min 8 sec) 
Heartbeat CPU 1 instructions: 860000000 cycles: 625762864 heartbeat IPC: 1.28322 cumulative IPC: 1.18735 (Simulation time: 2 hr 4 min 20 sec) 
Heartbeat CPU 1 instructions: 870000001 cycles: 633749545 heartbeat IPC: 1.25208 cumulative IPC: 1.18836 (Simulation time: 2 hr 5 min 46 sec) 
Heartbeat CPU 0 instructions: 640000000 cycles: 634302128 heartbeat IPC: 1.02516 cumulative IPC: 0.813275 (Simulation time: 2 hr 5 min 52 sec) 
Heartbeat CPU 3 instructions: 380000000 cycles: 636061269 heartbeat IPC: 0.386841 cumulative IPC: 0.339989 (Simulation time: 2 hr 6 min 11 sec) 
Heartbeat CPU 2 instructions: 460000000 cycles: 639308581 heartbeat IPC: 0.541037 cumulative IPC: 0.500985 (Simulation time: 2 hr 6 min 49 sec) 
Heartbeat CPU 1 instructions: 880000000 cycles: 642389946 heartbeat IPC: 1.15735 cumulative IPC: 1.18785 (Simulation time: 2 hr 7 min 22 sec) 
Heartbeat CPU 0 instructions: 650000003 cycles: 649790925 heartbeat IPC: 0.645628 cumulative IPC: 0.808371 (Simulation time: 2 hr 8 min 30 sec) 
Heartbeat CPU 1 instructions: 890000000 cycles: 650606557 heartbeat IPC: 1.21705 cumulative IPC: 1.1883 (Simulation time: 2 hr 8 min 38 sec) 
Heartbeat CPU 1 instructions: 900000000 cycles: 658799553 heartbeat IPC: 1.22055 cumulative IPC: 1.18879 (Simulation time: 2 hr 9 min 48 sec) 
Heartbeat CPU 2 instructions: 470000003 cycles: 658865163 heartbeat IPC: 0.511337 cumulative IPC: 0.501361 (Simulation time: 2 hr 9 min 49 sec) 
Heartbeat CPU 0 instructions: 660000000 cycles: 665571071 heartbeat IPC: 0.633708 cumulative IPC: 0.803316 (Simulation time: 2 hr 10 min 47 sec) 
Heartbeat CPU 1 instructions: 910000001 cycles: 667534364 heartbeat IPC: 1.14484 cumulative IPC: 1.18809 (Simulation time: 2 hr 11 min 6 sec) 
Heartbeat CPU 0 instructions: 670000000 cycles: 674396104 heartbeat IPC: 1.13314 cumulative IPC: 0.808569 (Simulation time: 2 hr 12 min 23 sec) 
Heartbeat CPU 1 instructions: 920000000 cycles: 674677983 heartbeat IPC: 1.39985 cumulative IPC: 1.19082 (Simulation time: 2 hr 12 min 27 sec) 
Heartbeat CPU 2 instructions: 480000000 cycles: 676547666 heartbeat IPC: 0.565531 cumulative IPC: 0.503401 (Simulation time: 2 hr 12 min 45 sec) 
Heartbeat CPU 3 instructions: 390000000 cycles: 676791713 heartbeat IPC: 0.245517 cumulative IPC: 0.333074 (Simulation time: 2 hr 12 min 47 sec) 
Heartbeat CPU 0 instructions: 680000000 cycles: 682524387 heartbeat IPC: 1.23027 cumulative IPC: 0.814666 (Simulation time: 2 hr 13 min 42 sec) 
Heartbeat CPU 1 instructions: 930000002 cycles: 683839015 heartbeat IPC: 1.09158 cumulative IPC: 1.1892 (Simulation time: 2 hr 13 min 56 sec) 
Heartbeat CPU 0 instructions: 690000002 cycles: 690670911 heartbeat IPC: 1.22752 cumulative IPC: 0.820563 (Simulation time: 2 hr 15 min 10 sec) 
Heartbeat CPU 1 instructions: 940000000 cycles: 691639185 heartbeat IPC: 1.28202 cumulative IPC: 1.19047 (Simulation time: 2 hr 15 min 21 sec) 
Heartbeat CPU 2 instructions: 490000003 cycles: 695008940 heartbeat IPC: 0.541675 cumulative IPC: 0.50463 (Simulation time: 2 hr 15 min 57 sec) 
Heartbeat CPU 1 instructions: 950000000 cycles: 700897341 heartbeat IPC: 1.08013 cumulative IPC: 1.18871 (Simulation time: 2 hr 16 min 55 sec) 
Heartbeat CPU 0 instructions: 700000000 cycles: 701082891 heartbeat IPC: 0.960432 cumulative IPC: 0.823071 (Simulation time: 2 hr 16 min 56 sec) 
Heartbeat CPU 3 instructions: 400000000 cycles: 709288280 heartbeat IPC: 0.307725 cumulative IPC: 0.331676 (Simulation time: 2 hr 18 min 10 sec) 
Heartbeat CPU 1 instructions: 960000000 cycles: 710544075 heartbeat IPC: 1.03662 cumulative IPC: 1.18623 (Simulation time: 2 hr 18 min 22 sec) 
Heartbeat CPU 2 instructions: 500000000 cycles: 714204583 heartbeat IPC: 0.520951 cumulative IPC: 0.505158 (Simulation time: 2 hr 18 min 58 sec) 
Heartbeat CPU 0 instructions: 710000000 cycles: 717479556 heartbeat IPC: 0.60988 cumulative IPC: 0.817217 (Simulation time: 2 hr 19 min 31 sec) 
Heartbeat CPU 1 instructions: 970000000 cycles: 719817093 heartbeat IPC: 1.0784 cumulative IPC: 1.18456 (Simulation time: 2 hr 19 min 50 sec) 
Heartbeat CPU 1 instructions: 980000000 cycles: 728714202 heartbeat IPC: 1.12396 cumulative IPC: 1.18367 (Simulation time: 2 hr 21 min 27 sec) 
Heartbeat CPU 0 instructions: 720000000 cycles: 731893119 heartbeat IPC: 0.693791 cumulative IPC: 0.814308 (Simulation time: 2 hr 21 min 58 sec) 
Heartbeat CPU 3 instructions: 410000001 cycles: 733300913 heartbeat IPC: 0.416447 cumulative IPC: 0.334996 (Simulation time: 2 hr 22 min 12 sec) 
Heartbeat CPU 2 instructions: 510000000 cycles: 736128270 heartbeat IPC: 0.456128 cumulative IPC: 0.503412 (Simulation time: 2 hr 22 min 41 sec) 
Heartbeat CPU 1 instructions: 990000002 cycles: 737934521 heartbeat IPC: 1.08456 cumulative IPC: 1.18219 (Simulation time: 2 hr 22 min 59 sec) 
Heartbeat CPU 0 instructions: 730000003 cycles: 742707855 heartbeat IPC: 0.924665 cumulative IPC: 0.816226 (Simulation time: 2 hr 23 min 51 sec) 
Heartbeat CPU 1 instructions: 1000000000 cycles: 747118534 heartbeat IPC: 1.08885 cumulative IPC: 1.18082 (Simulation time: 2 hr 24 min 34 sec) 
Heartbeat CPU 0 instructions: 740000000 cycles: 755022679 heartbeat IPC: 0.812029 cumulative IPC: 0.816144 (Simulation time: 2 hr 26 min 0 sec) 
Heartbeat CPU 2 instructions: 520000000 cycles: 755586105 heartbeat IPC: 0.513932 cumulative IPC: 0.503735 (Simulation time: 2 hr 26 min 5 sec) 
Heartbeat CPU 1 instructions: 1010000001 cycles: 756082193 heartbeat IPC: 1.11562 cumulative IPC: 1.1799 (Simulation time: 2 hr 26 min 10 sec) 
Heartbeat CPU 3 instructions: 420000000 cycles: 760263818 heartbeat IPC: 0.37088 cumulative IPC: 0.336508 (Simulation time: 2 hr 26 min 53 sec) 
Heartbeat CPU 1 instructions: 1020000000 cycles: 765321462 heartbeat IPC: 1.08234 cumulative IPC: 1.17851 (Simulation time: 2 hr 27 min 46 sec) 
Heartbeat CPU 0 instructions: 750000002 cycles: 770004540 heartbeat IPC: 0.667474 cumulative IPC: 0.812716 (Simulation time: 2 hr 28 min 32 sec) 
Heartbeat CPU 1 instructions: 1030000003 cycles: 774502950 heartbeat IPC: 1.08915 cumulative IPC: 1.17725 (Simulation time: 2 hr 29 min 16 sec) 
Heartbeat CPU 2 instructions: 530000001 cycles: 774900376 heartbeat IPC: 0.517752 cumulative IPC: 0.504148 (Simulation time: 2 hr 29 min 21 sec) 
Heartbeat CPU 1 instructions: 1040000000 cycles: 783615624 heartbeat IPC: 1.09737 cumulative IPC: 1.17616 (Simulation time: 2 hr 31 min 0 sec) 
Heartbeat CPU 0 instructions: 760000000 cycles: 784102701 heartbeat IPC: 0.709312 cumulative IPC: 0.81052 (Simulation time: 2 hr 31 min 5 sec) 
Heartbeat CPU 3 instructions: 430000002 cycles: 788682666 heartbeat IPC: 0.351879 cumulative IPC: 0.337162 (Simulation time: 2 hr 31 min 58 sec) 
Heartbeat CPU 1 instructions: 1050000003 cycles: 792622032 heartbeat IPC: 1.11032 cumulative IPC: 1.17527 (Simulation time: 2 hr 32 min 43 sec) 
Heartbeat CPU 2 instructions: 540000000 cycles: 793706554 heartbeat IPC: 0.53174 cumulative IPC: 0.504919 (Simulation time: 2 hr 32 min 55 sec) 
Heartbeat CPU 0 instructions: 770000002 cycles: 798323552 heartbeat IPC: 0.703193 cumulative IPC: 0.808269 (Simulation time: 2 hr 33 min 49 sec) 
Heartbeat CPU 1 instructions: 1060000000 cycles: 801802555 heartbeat IPC: 1.08926 cumulative IPC: 1.17411 (Simulation time: 2 hr 34 min 28 sec) 
Heartbeat CPU 1 instructions: 1070000001 cycles: 810979826 heartbeat IPC: 1.08965 cumulative IPC: 1.17299 (Simulation time: 2 hr 36 min 9 sec) 
Heartbeat CPU 0 instructions: 780000000 cycles: 812578935 heartbeat IPC: 0.701489 cumulative IPC: 0.80607 (Simulation time: 2 hr 36 min 26 sec) 
Heartbeat CPU 3 instructions: 440000000 cycles: 812987492 heartbeat IPC: 0.411441 cumulative IPC: 0.339768 (Simulation time: 2 hr 36 min 32 sec) 
Heartbeat CPU 2 instructions: 550000002 cycles: 813786489 heartbeat IPC: 0.49801 cumulative IPC: 0.504719 (Simulation time: 2 hr 36 min 42 sec) 
Heartbeat CPU 1 instructions: 1080000000 cycles: 819874619 heartbeat IPC: 1.12425 cumulative IPC: 1.17237 (Simulation time: 2 hr 37 min 50 sec) 
Heartbeat CPU 0 instructions: 790000001 cycles: 823819473 heartbeat IPC: 0.889637 cumulative IPC: 0.807405 (Simulation time: 2 hr 38 min 32 sec) 
Heartbeat CPU 1 instructions: 1090000001 cycles: 829107041 heartbeat IPC: 1.08314 cumulative IPC: 1.17121 (Simulation time: 2 hr 39 min 28 sec) 
Heartbeat CPU 0 instructions: 800000000 cycles: 832103923 heartbeat IPC: 1.20708 cumulative IPC: 0.812057 (Simulation time: 2 hr 39 min 58 sec) 
Heartbeat CPU 2 instructions: 560000000 cycles: 832122088 heartbeat IPC: 0.545387 cumulative IPC: 0.505766 (Simulation time: 2 hr 39 min 58 sec) 
Heartbeat CPU 1 instructions: 1100000000 cycles: 838405316 heartbeat IPC: 1.07547 cumulative IPC: 1.16997 (Simulation time: 2 hr 41 min 5 sec) 
Heartbeat CPU 3 instructions: 450000002 cycles: 839668971 heartbeat IPC: 0.374792 cumulative IPC: 0.341067 (Simulation time: 2 hr 41 min 18 sec) 
Heartbeat CPU 0 instructions: 810000000 cycles: 840400924 heartbeat IPC: 1.20525 cumulative IPC: 0.816588 (Simulation time: 2 hr 41 min 26 sec) 
Heartbeat CPU 1 instructions: 1110000003 cycles: 847336746 heartbeat IPC: 1.11964 cumulative IPC: 1.16935 (Simulation time: 2 hr 42 min 34 sec) 
Heartbeat CPU 0 instructions: 820000000 cycles: 848949258 heartbeat IPC: 1.16982 cumulative IPC: 0.820732 (Simulation time: 2 hr 42 min 51 sec) 
Heartbeat CPU 2 instructions: 570000002 cycles: 853718231 heartbeat IPC: 0.463046 cumulative IPC: 0.504508 (Simulation time: 2 hr 43 min 36 sec) 
Heartbeat CPU 1 instructions: 1120000000 cycles: 856586800 heartbeat IPC: 1.08107 cumulative IPC: 1.16824 (Simulation time: 2 hr 43 min 59 sec) 
Heartbeat CPU 0 instructions: 830000000 cycles: 862864894 heartbeat IPC: 0.718616 cumulative IPC: 0.818818 (Simulation time: 2 hr 44 min 58 sec) 
Heartbeat CPU 3 instructions: 460000000 cycles: 865137296 heartbeat IPC: 0.392645 cumulative IPC: 0.342831 (Simulation time: 2 hr 45 min 18 sec) 
Heartbeat CPU 1 instructions: 1130000003 cycles: 865759226 heartbeat IPC: 1.09022 cumulative IPC: 1.16728 (Simulation time: 2 hr 45 min 24 sec) 
Heartbeat CPU 1 instructions: 1140000000 cycles: 875109792 heartbeat IPC: 1.06945 cumulative IPC: 1.16607 (Simulation time: 2 hr 46 min 49 sec) 
Heartbeat CPU 0 instructions: 840000000 cycles: 875758417 heartbeat IPC: 0.775583 cumulative IPC: 0.81808 (Simulation time: 2 hr 46 min 55 sec) 
Heartbeat CPU 2 instructions: 580000000 cycles: 883608406 heartbeat IPC: 0.334558 cumulative IPC: 0.497853 (Simulation time: 2 hr 48 min 11 sec) 
Heartbeat CPU 1 instructions: 1150000001 cycles: 884402158 heartbeat IPC: 1.07615 cumulative IPC: 1.16498 (Simulation time: 2 hr 48 min 19 sec) 
Heartbeat CPU 0 instructions: 850000001 cycles: 885578227 heartbeat IPC: 1.01835 cumulative IPC: 0.82065 (Simulation time: 2 hr 48 min 31 sec) 
Heartbeat CPU 3 instructions: 470000000 cycles: 891212499 heartbeat IPC: 0.383506 cumulative IPC: 0.344207 (Simulation time: 2 hr 49 min 25 sec) 
Heartbeat CPU 1 instructions: 1160000000 cycles: 893468640 heartbeat IPC: 1.10296 cumulative IPC: 1.16425 (Simulation time: 2 hr 49 min 46 sec) 
Heartbeat CPU 0 instructions: 860000000 cycles: 896490236 heartbeat IPC: 0.916421 cumulative IPC: 0.821996 (Simulation time: 2 hr 50 min 11 sec) 
Heartbeat CPU 1 instructions: 1170000003 cycles: 902848839 heartbeat IPC: 1.06608 cumulative IPC: 1.16307 (Simulation time: 2 hr 51 min 5 sec) 
Heartbeat CPU 1 instructions: 1180000000 cycles: 912121662 heartbeat IPC: 1.07842 cumulative IPC: 1.16208 (Simulation time: 2 hr 52 min 20 sec) 
Heartbeat CPU 0 instructions: 870000002 cycles: 913267082 heartbeat IPC: 0.59606 cumulative IPC: 0.817216 (Simulation time: 2 hr 52 min 30 sec) 
Heartbeat CPU 2 instructions: 590000002 cycles: 914389730 heartbeat IPC: 0.324872 cumulative IPC: 0.491148 (Simulation time: 2 hr 52 min 39 sec) 
Heartbeat CPU 1 instructions: 1190000001 cycles: 921348772 heartbeat IPC: 1.08376 cumulative IPC: 1.16118 (Simulation time: 2 hr 53 min 42 sec) 
Heartbeat CPU 0 instructions: 880000000 cycles: 925974818 heartbeat IPC: 0.786922 cumulative IPC: 0.816738 (Simulation time: 2 hr 54 min 30 sec) 
Heartbeat CPU 3 instructions: 480000000 cycles: 927768901 heartbeat IPC: 0.27355 cumulative IPC: 0.341008 (Simulation time: 2 hr 54 min 49 sec) 
Heartbeat CPU 1 instructions: 1200000000 cycles: 930290958 heartbeat IPC: 1.11829 cumulative IPC: 1.16071 (Simulation time: 2 hr 55 min 15 sec) 
Heartbeat CPU 2 instructions: 600000000 cycles: 932966365 heartbeat IPC: 0.538311 cumulative IPC: 0.492226 (Simulation time: 2 hr 55 min 42 sec) 
Heartbeat CPU 0 instructions: 890000003 cycles: 935909033 heartbeat IPC: 1.00662 cumulative IPC: 0.819051 (Simulation time: 2 hr 56 min 11 sec) 
Heartbeat CPU 1 instructions: 1210000001 cycles: 939330695 heartbeat IPC: 1.10623 cumulative IPC: 1.1601 (Simulation time: 2 hr 56 min 45 sec) 
Heartbeat CPU 0 instructions: 900000000 cycles: 947116085 heartbeat IPC: 0.892295 cumulative IPC: 0.820044 (Simulation time: 2 hr 58 min 2 sec) 
Heartbeat CPU 1 instructions: 1220000000 cycles: 948316642 heartbeat IPC: 1.11285 cumulative IPC: 1.15959 (Simulation time: 2 hr 58 min 14 sec) 
Heartbeat CPU 2 instructions: 610000002 cycles: 950860070 heartbeat IPC: 0.558856 cumulative IPC: 0.493661 (Simulation time: 2 hr 58 min 40 sec) 
Heartbeat CPU 3 instructions: 490000002 cycles: 956060511 heartbeat IPC: 0.353462 cumulative IPC: 0.34143 (Simulation time: 2 hr 59 min 30 sec) 
Heartbeat CPU 1 instructions: 1230000003 cycles: 957346030 heartbeat IPC: 1.1075 cumulative IPC: 1.15903 (Simulation time: 2 hr 59 min 43 sec) 
Heartbeat CPU 0 instructions: 910000000 cycles: 963523627 heartbeat IPC: 0.609476 cumulative IPC: 0.815947 (Simulation time: 3 hr 0 min 42 sec) 
Heartbeat CPU 1 instructions: 1240000000 cycles: 966679242 heartbeat IPC: 1.07144 cumulative IPC: 1.15806 (Simulation time: 3 hr 1 min 10 sec) 
Heartbeat CPU 2 instructions: 620000000 cycles: 971043187 heartbeat IPC: 0.495464 cumulative IPC: 0.493704 (Simulation time: 3 hr 1 min 47 sec) 
Heartbeat CPU 1 instructions: 1250000000 cycles: 975267199 heartbeat IPC: 1.16442 cumulative IPC: 1.15813 (Simulation time: 3 hr 2 min 27 sec) 
Heartbeat CPU 0 instructions: 920000000 cycles: 976087471 heartbeat IPC: 0.795935 cumulative IPC: 0.815653 (Simulation time: 3 hr 2 min 35 sec) 
Finished CPU 1 instructions: 1000000001 cycles: 863992976 cumulative IPC: 1.15742 (Simulation time: 3 hr 4 min 1 sec) 
Heartbeat CPU 1 instructions: 1260000000 cycles: 984444484 heartbeat IPC: 1.08965 cumulative IPC: 1.1574 (Simulation time: 3 hr 4 min 2 sec) 
Heartbeat CPU 0 instructions: 930000001 cycles: 985922022 heartbeat IPC: 1.01682 cumulative IPC: 0.817938 (Simulation time: 3 hr 4 min 17 sec) 
Heartbeat CPU 3 instructions: 500000000 cycles: 987234229 heartbeat IPC: 0.320783 cumulative IPC: 0.340687 (Simulation time: 3 hr 4 min 31 sec) 
Heartbeat CPU 2 instructions: 630000001 cycles: 990029003 heartbeat IPC: 0.526709 cumulative IPC: 0.494424 (Simulation time: 3 hr 5 min 0 sec) 
Heartbeat CPU 1 instructions: 1270000001 cycles: 994218261 heartbeat IPC: 1.02315 cumulative IPC: 1.1559 (Simulation time: 3 hr 5 min 43 sec) 
Heartbeat CPU 0 instructions: 940000000 cycles: 997050594 heartbeat IPC: 0.898588 cumulative IPC: 0.818962 (Simulation time: 3 hr 6 min 9 sec) 
Heartbeat CPU 1 instructions: 1280000000 cycles: 1003311469 heartbeat IPC: 1.09972 cumulative IPC: 1.15532 (Simulation time: 3 hr 7 min 4 sec) 
Heartbeat CPU 2 instructions: 640000000 cycles: 1010639798 heartbeat IPC: 0.485183 cumulative IPC: 0.494211 (Simulation time: 3 hr 8 min 8 sec) 
Heartbeat CPU 1 instructions: 1290000000 cycles: 1012531324 heartbeat IPC: 1.08462 cumulative IPC: 1.15459 (Simulation time: 3 hr 8 min 25 sec) 
Heartbeat CPU 0 instructions: 950000001 cycles: 1013939996 heartbeat IPC: 0.592087 cumulative IPC: 0.814674 (Simulation time: 3 hr 8 min 37 sec) 
Heartbeat CPU 3 instructions: 510000003 cycles: 1020975267 heartbeat IPC: 0.296375 cumulative IPC: 0.339027 (Simulation time: 3 hr 9 min 42 sec) 
Heartbeat CPU 1 instructions: 1300000000 cycles: 1021588940 heartbeat IPC: 1.10404 cumulative IPC: 1.15408 (Simulation time: 3 hr 9 min 48 sec) 
Heartbeat CPU 0 instructions: 960000000 cycles: 1025727451 heartbeat IPC: 0.848359 cumulative IPC: 0.815113 (Simulation time: 3 hr 10 min 32 sec) 
Heartbeat CPU 2 instructions: 650000000 cycles: 1029664690 heartbeat IPC: 0.525627 cumulative IPC: 0.494868 (Simulation time: 3 hr 11 min 14 sec) 
Heartbeat CPU 1 instructions: 1310000001 cycles: 1030490165 heartbeat IPC: 1.12344 cumulative IPC: 1.15378 (Simulation time: 3 hr 11 min 23 sec) 
Heartbeat CPU 0 instructions: 970000003 cycles: 1035549980 heartbeat IPC: 1.01807 cumulative IPC: 0.817291 (Simulation time: 3 hr 12 min 15 sec) 
Heartbeat CPU 1 instructions: 1320000000 cycles: 1039377969 heartbeat IPC: 1.12514 cumulative IPC: 1.15351 (Simulation time: 3 hr 12 min 55 sec) 
Heartbeat CPU 2 instructions: 660000000 cycles: 1046537386 heartbeat IPC: 0.592674 cumulative IPC: 0.49665 (Simulation time: 3 hr 14 min 1 sec) 
Heartbeat CPU 0 instructions: 980000000 cycles: 1047177421 heartbeat IPC: 0.860034 cumulative IPC: 0.817827 (Simulation time: 3 hr 14 min 8 sec) 
Heartbeat CPU 1 instructions: 1330000002 cycles: 1048021410 heartbeat IPC: 1.15695 cumulative IPC: 1.15354 (Simulation time: 3 hr 14 min 16 sec) 
Heartbeat CPU 3 instructions: 520000000 cycles: 1049020541 heartbeat IPC: 0.356566 cumulative IPC: 0.339557 (Simulation time: 3 hr 14 min 27 sec) 
Heartbeat CPU 1 instructions: 1340000000 cycles: 1057293493 heartbeat IPC: 1.07851 cumulative IPC: 1.15279 (Simulation time: 3 hr 15 min 41 sec) 
Heartbeat CPU 2 instructions: 670000002 cycles: 1063093387 heartbeat IPC: 0.604011 cumulative IPC: 0.498535 (Simulation time: 3 hr 16 min 32 sec) 
Heartbeat CPU 0 instructions: 990000000 cycles: 1063255018 heartbeat IPC: 0.621983 cumulative IPC: 0.814488 (Simulation time: 3 hr 16 min 33 sec) 
Heartbeat CPU 1 instructions: 1350000000 cycles: 1066286072 heartbeat IPC: 1.11203 cumulative IPC: 1.15241 (Simulation time: 3 hr 17 min 1 sec) 
Heartbeat CPU 0 instructions: 1000000000 cycles: 1075064786 heartbeat IPC: 0.846757 cumulative IPC: 0.814887 (Simulation time: 3 hr 18 min 31 sec) 
Heartbeat CPU 1 instructions: 1360000000 cycles: 1075369798 heartbeat IPC: 1.10087 cumulative IPC: 1.15192 (Simulation time: 3 hr 18 min 34 sec) 
Heartbeat CPU 3 instructions: 530000001 cycles: 1077082719 heartbeat IPC: 0.356352 cumulative IPC: 0.340049 (Simulation time: 3 hr 18 min 52 sec) 
Heartbeat CPU 2 instructions: 680000000 cycles: 1082162274 heartbeat IPC: 0.524414 cumulative IPC: 0.499048 (Simulation time: 3 hr 19 min 45 sec) 
Heartbeat CPU 1 instructions: 1370000002 cycles: 1084270529 heartbeat IPC: 1.1235 cumulative IPC: 1.15165 (Simulation time: 3 hr 20 min 6 sec) 
Heartbeat CPU 0 instructions: 1010000000 cycles: 1085018872 heartbeat IPC: 1.00461 cumulative IPC: 0.816845 (Simulation time: 3 hr 20 min 13 sec) 
Heartbeat CPU 1 instructions: 1380000000 cycles: 1092894067 heartbeat IPC: 1.15962 cumulative IPC: 1.15173 (Simulation time: 3 hr 21 min 31 sec) 
Heartbeat CPU 0 instructions: 1020000000 cycles: 1096247868 heartbeat IPC: 0.890552 cumulative IPC: 0.817693 (Simulation time: 3 hr 22 min 3 sec) 
Heartbeat CPU 2 instructions: 690000001 cycles: 1101124486 heartbeat IPC: 0.527365 cumulative IPC: 0.499595 (Simulation time: 3 hr 22 min 51 sec) 
Heartbeat CPU 1 instructions: 1390000001 cycles: 1102318222 heartbeat IPC: 1.0611 cumulative IPC: 1.15086 (Simulation time: 3 hr 23 min 1 sec) 
Heartbeat CPU 3 instructions: 540000000 cycles: 1109944669 heartbeat IPC: 0.304303 cumulative IPC: 0.338862 (Simulation time: 3 hr 24 min 4 sec) 
Heartbeat CPU 1 instructions: 1400000000 cycles: 1112058711 heartbeat IPC: 1.02664 cumulative IPC: 1.14964 (Simulation time: 3 hr 24 min 21 sec) 
Heartbeat CPU 0 instructions: 1030000001 cycles: 1112197453 heartbeat IPC: 0.626976 cumulative IPC: 0.814626 (Simulation time: 3 hr 24 min 22 sec) 
Heartbeat CPU 2 instructions: 700000000 cycles: 1119780529 heartbeat IPC: 0.536019 cumulative IPC: 0.500275 (Simulation time: 3 hr 25 min 29 sec) 
Heartbeat CPU 1 instructions: 1410000001 cycles: 1121259531 heartbeat IPC: 1.08686 cumulative IPC: 1.14906 (Simulation time: 3 hr 25 min 43 sec) 
Heartbeat CPU 0 instructions: 1040000000 cycles: 1125357836 heartbeat IPC: 0.759856 cumulative IPC: 0.813909 (Simulation time: 3 hr 26 min 27 sec) 
Heartbeat CPU 1 instructions: 1420000000 cycles: 1130431087 heartbeat IPC: 1.09033 cumulative IPC: 1.14853 (Simulation time: 3 hr 27 min 18 sec) 
Heartbeat CPU 0 instructions: 1050000000 cycles: 1135156059 heartbeat IPC: 1.02059 cumulative IPC: 0.815904 (Simulation time: 3 hr 28 min 6 sec) 
Heartbeat CPU 2 instructions: 710000000 cycles: 1138463491 heartbeat IPC: 0.535247 cumulative IPC: 0.500917 (Simulation time: 3 hr 28 min 39 sec) 
Heartbeat CPU 1 instructions: 1430000000 cycles: 1139348226 heartbeat IPC: 1.12144 cumulative IPC: 1.14829 (Simulation time: 3 hr 28 min 47 sec) 
Heartbeat CPU 0 instructions: 1060000000 cycles: 1145648761 heartbeat IPC: 0.953043 cumulative IPC: 0.817308 (Simulation time: 3 hr 29 min 48 sec) 
Heartbeat CPU 3 instructions: 550000001 cycles: 1146446531 heartbeat IPC: 0.273959 cumulative IPC: 0.336553 (Simulation time: 3 hr 29 min 55 sec) 
Heartbeat CPU 1 instructions: 1440000000 cycles: 1148129867 heartbeat IPC: 1.13874 cumulative IPC: 1.14821 (Simulation time: 3 hr 30 min 9 sec) 
Heartbeat CPU 2 instructions: 720000000 cycles: 1157038310 heartbeat IPC: 0.538363 cumulative IPC: 0.501588 (Simulation time: 3 hr 31 min 25 sec) 
Heartbeat CPU 1 instructions: 1450000003 cycles: 1157205057 heartbeat IPC: 1.10191 cumulative IPC: 1.1478 (Simulation time: 3 hr 31 min 27 sec) 
Heartbeat CPU 0 instructions: 1070000001 cycles: 1160821230 heartbeat IPC: 0.659089 cumulative IPC: 0.815001 (Simulation time: 3 hr 32 min 0 sec) 
Heartbeat CPU 1 instructions: 1460000000 cycles: 1166349687 heartbeat IPC: 1.09354 cumulative IPC: 1.14733 (Simulation time: 3 hr 32 min 46 sec) 
Heartbeat CPU 0 instructions: 1080000000 cycles: 1175065744 heartbeat IPC: 0.702025 cumulative IPC: 0.813475 (Simulation time: 3 hr 34 min 9 sec) 
Heartbeat CPU 2 instructions: 730000000 cycles: 1175091769 heartbeat IPC: 0.55391 cumulative IPC: 0.502484 (Simulation time: 3 hr 34 min 9 sec) 
Heartbeat CPU 1 instructions: 1470000000 cycles: 1175533937 heartbeat IPC: 1.08882 cumulative IPC: 1.14682 (Simulation time: 3 hr 34 min 14 sec) 
Heartbeat CPU 3 instructions: 560000000 cycles: 1180250045 heartbeat IPC: 0.295827 cumulative IPC: 0.335255 (Simulation time: 3 hr 35 min 3 sec) 
Heartbeat CPU 1 instructions: 1480000000 cycles: 1184314704 heartbeat IPC: 1.13885 cumulative IPC: 1.14675 (Simulation time: 3 hr 35 min 47 sec) 
Heartbeat CPU 0 instructions: 1090000001 cycles: 1184951814 heartbeat IPC: 1.01152 cumulative IPC: 0.815314 (Simulation time: 3 hr 35 min 54 sec) 
Heartbeat CPU 1 instructions: 1490000002 cycles: 1193274501 heartbeat IPC: 1.1161 cumulative IPC: 1.1465 (Simulation time: 3 hr 37 min 17 sec) 
Heartbeat CPU 0 instructions: 1100000000 cycles: 1194830612 heartbeat IPC: 1.01227 cumulative IPC: 0.817125 (Simulation time: 3 hr 37 min 33 sec) 
Heartbeat CPU 2 instructions: 740000000 cycles: 1195046051 heartbeat IPC: 0.501146 cumulative IPC: 0.502459 (Simulation time: 3 hr 37 min 35 sec) 
Heartbeat CPU 1 instructions: 1500000000 cycles: 1202319848 heartbeat IPC: 1.10554 cumulative IPC: 1.14615 (Simulation time: 3 hr 38 min 44 sec) 
Heartbeat CPU 1 instructions: 1510000002 cycles: 1211015913 heartbeat IPC: 1.14995 cumulative IPC: 1.14618 (Simulation time: 3 hr 40 min 1 sec) 
Heartbeat CPU 0 instructions: 1110000001 cycles: 1211058906 heartbeat IPC: 0.616208 cumulative IPC: 0.814135 (Simulation time: 3 hr 40 min 2 sec) 
Heartbeat CPU 3 instructions: 570000003 cycles: 1211290287 heartbeat IPC: 0.322163 cumulative IPC: 0.334882 (Simulation time: 3 hr 40 min 3 sec) 
Heartbeat CPU 2 instructions: 750000000 cycles: 1211634844 heartbeat IPC: 0.602817 cumulative IPC: 0.503984 (Simulation time: 3 hr 40 min 6 sec) 
Heartbeat CPU 1 instructions: 1520000000 cycles: 1220246946 heartbeat IPC: 1.0833 cumulative IPC: 1.14566 (Simulation time: 3 hr 41 min 24 sec) 
Heartbeat CPU 0 instructions: 1120000000 cycles: 1224968577 heartbeat IPC: 0.718924 cumulative IPC: 0.812936 (Simulation time: 3 hr 42 min 15 sec) 
Heartbeat CPU 1 instructions: 1530000002 cycles: 1229965582 heartbeat IPC: 1.02895 cumulative IPC: 1.14463 (Simulation time: 3 hr 43 min 8 sec) 
Heartbeat CPU 2 instructions: 760000000 cycles: 1230286548 heartbeat IPC: 0.536144 cumulative IPC: 0.504525 (Simulation time: 3 hr 43 min 11 sec) 
Heartbeat CPU 3 instructions: 580000000 cycles: 1234348245 heartbeat IPC: 0.43369 cumulative IPC: 0.336927 (Simulation time: 3 hr 43 min 55 sec) 
Heartbeat CPU 0 instructions: 1130000002 cycles: 1234786330 heartbeat IPC: 1.01856 cumulative IPC: 0.814748 (Simulation time: 3 hr 44 min 0 sec) 
Heartbeat CPU 1 instructions: 1540000000 cycles: 1239129883 heartbeat IPC: 1.09119 cumulative IPC: 1.1442 (Simulation time: 3 hr 44 min 43 sec) 
Heartbeat CPU 0 instructions: 1140000000 cycles: 1244953094 heartbeat IPC: 0.983597 cumulative IPC: 0.816274 (Simulation time: 3 hr 45 min 40 sec) 
Heartbeat CPU 1 instructions: 1550000000 cycles: 1248486093 heartbeat IPC: 1.06881 cumulative IPC: 1.14357 (Simulation time: 3 hr 46 min 14 sec) 
Heartbeat CPU 2 instructions: 770000000 cycles: 1248816510 heartbeat IPC: 0.539667 cumulative IPC: 0.505102 (Simulation time: 3 hr 46 min 17 sec) 
Heartbeat CPU 1 instructions: 1560000000 cycles: 1257554145 heartbeat IPC: 1.10277 cumulative IPC: 1.14325 (Simulation time: 3 hr 47 min 35 sec) 
Heartbeat CPU 0 instructions: 1150000003 cycles: 1261244300 heartbeat IPC: 0.613828 cumulative IPC: 0.813384 (Simulation time: 3 hr 48 min 5 sec) 
Heartbeat CPU 1 instructions: 1570000001 cycles: 1266681405 heartbeat IPC: 1.09562 cumulative IPC: 1.14287 (Simulation time: 3 hr 48 min 55 sec) 
Heartbeat CPU 3 instructions: 590000001 cycles: 1266951357 heartbeat IPC: 0.306719 cumulative IPC: 0.336068 (Simulation time: 3 hr 48 min 58 sec) 
Heartbeat CPU 2 instructions: 780000000 cycles: 1268817748 heartbeat IPC: 0.499969 cumulative IPC: 0.505012 (Simulation time: 3 hr 49 min 15 sec) 
Heartbeat CPU 0 instructions: 1160000000 cycles: 1274611209 heartbeat IPC: 0.748116 cumulative IPC: 0.812628 (Simulation time: 3 hr 50 min 14 sec) 
Heartbeat CPU 1 instructions: 1580000000 cycles: 1275705697 heartbeat IPC: 1.10812 cumulative IPC: 1.1426 (Simulation time: 3 hr 50 min 26 sec) 
Heartbeat CPU 0 instructions: 1170000000 cycles: 1284442269 heartbeat IPC: 1.01718 cumulative IPC: 0.814355 (Simulation time: 3 hr 51 min 57 sec) 
Heartbeat CPU 1 instructions: 1590000002 cycles: 1284757177 heartbeat IPC: 1.10479 cumulative IPC: 1.1423 (Simulation time: 3 hr 52 min 0 sec) 
Heartbeat CPU 2 instructions: 790000001 cycles: 1290582662 heartbeat IPC: 0.459455 cumulative IPC: 0.504165 (Simulation time: 3 hr 52 min 57 sec) 
Heartbeat CPU 3 instructions: 600000000 cycles: 1292506083 heartbeat IPC: 0.391317 cumulative IPC: 0.337273 (Simulation time: 3 hr 53 min 18 sec) 
Heartbeat CPU 1 instructions: 1600000000 cycles: 1293898021 heartbeat IPC: 1.09399 cumulative IPC: 1.14193 (Simulation time: 3 hr 53 min 31 sec) 
Heartbeat CPU 0 instructions: 1180000000 cycles: 1295084402 heartbeat IPC: 0.939661 cumulative IPC: 0.81549 (Simulation time: 3 hr 53 min 43 sec) 
Heartbeat CPU 1 instructions: 1610000000 cycles: 1302854231 heartbeat IPC: 1.11654 cumulative IPC: 1.14173 (Simulation time: 3 hr 54 min 51 sec) 
Heartbeat CPU 2 instructions: 800000000 cycles: 1310680148 heartbeat IPC: 0.497575 cumulative IPC: 0.504054 (Simulation time: 3 hr 56 min 1 sec) 
Heartbeat CPU 0 instructions: 1190000003 cycles: 1311399677 heartbeat IPC: 0.612923 cumulative IPC: 0.812716 (Simulation time: 3 hr 56 min 7 sec) 
Heartbeat CPU 1 instructions: 1620000000 cycles: 1312029976 heartbeat IPC: 1.08983 cumulative IPC: 1.14133 (Simulation time: 3 hr 56 min 13 sec) 
Heartbeat CPU 3 instructions: 610000003 cycles: 1319274532 heartbeat IPC: 0.373574 cumulative IPC: 0.338083 (Simulation time: 3 hr 57 min 21 sec) 
Heartbeat CPU 1 instructions: 1630000002 cycles: 1320847200 heartbeat IPC: 1.13414 cumulative IPC: 1.14128 (Simulation time: 3 hr 57 min 38 sec) 
Heartbeat CPU 0 instructions: 1200000000 cycles: 1323119992 heartbeat IPC: 0.853219 cumulative IPC: 0.81311 (Simulation time: 3 hr 58 min 2 sec) 
Heartbeat CPU 2 instructions: 810000001 cycles: 1328617373 heartbeat IPC: 0.5575 cumulative IPC: 0.504847 (Simulation time: 3 hr 59 min 1 sec) 
Heartbeat CPU 1 instructions: 1640000000 cycles: 1330092454 heartbeat IPC: 1.08164 cumulative IPC: 1.14082 (Simulation time: 3 hr 59 min 16 sec) 
Heartbeat CPU 0 instructions: 1210000002 cycles: 1331229793 heartbeat IPC: 1.23308 cumulative IPC: 0.815923 (Simulation time: 3 hr 59 min 27 sec) 
Heartbeat CPU 0 instructions: 1220000000 cycles: 1339373347 heartbeat IPC: 1.22796 cumulative IPC: 0.818675 (Simulation time: 4 hr 0 min 52 sec) 
Heartbeat CPU 1 instructions: 1650000000 cycles: 1339777353 heartbeat IPC: 1.03254 cumulative IPC: 1.13996 (Simulation time: 4 hr 0 min 57 sec) 
Finished CPU 0 instructions: 1000000001 cycles: 1220715326 cumulative IPC: 0.819192 (Simulation time: 4 hr 1 min 10 sec) 
Heartbeat CPU 3 instructions: 620000000 cycles: 1344837911 heartbeat IPC: 0.391184 cumulative IPC: 0.339192 (Simulation time: 4 hr 1 min 51 sec) 
Heartbeat CPU 2 instructions: 820000000 cycles: 1347011382 heartbeat IPC: 0.543655 cumulative IPC: 0.505429 (Simulation time: 4 hr 2 min 13 sec) 
Heartbeat CPU 0 instructions: 1230000002 cycles: 1348621888 heartbeat IPC: 1.08125 cumulative IPC: 0.820653 (Simulation time: 4 hr 2 min 28 sec) 
Heartbeat CPU 1 instructions: 1660000000 cycles: 1349335691 heartbeat IPC: 1.04621 cumulative IPC: 1.13924 (Simulation time: 4 hr 2 min 35 sec) 
Heartbeat CPU 1 instructions: 1670000003 cycles: 1359016480 heartbeat IPC: 1.03297 cumulative IPC: 1.1384 (Simulation time: 4 hr 3 min 56 sec) 
Heartbeat CPU 0 instructions: 1240000000 cycles: 1364947851 heartbeat IPC: 0.612521 cumulative IPC: 0.817922 (Simulation time: 4 hr 4 min 48 sec) 
Heartbeat CPU 2 instructions: 830000000 cycles: 1366349506 heartbeat IPC: 0.517113 cumulative IPC: 0.50561 (Simulation time: 4 hr 5 min 0 sec) 
Heartbeat CPU 1 instructions: 1680000000 cycles: 1368592588 heartbeat IPC: 1.04427 cumulative IPC: 1.13768 (Simulation time: 4 hr 5 min 19 sec) 
Heartbeat CPU 0 instructions: 1250000003 cycles: 1375921756 heartbeat IPC: 0.911253 cumulative IPC: 0.818738 (Simulation time: 4 hr 6 min 27 sec) 
Heartbeat CPU 0 instructions: 1260000000 cycles: 1384168030 heartbeat IPC: 1.21267 cumulative IPC: 0.821308 (Simulation time: 4 hr 7 min 35 sec) 
Heartbeat CPU 2 instructions: 840000000 cycles: 1384819827 heartbeat IPC: 0.541409 cumulative IPC: 0.506133 (Simulation time: 4 hr 7 min 41 sec) 
Heartbeat CPU 3 instructions: 630000000 cycles: 1387150610 heartbeat IPC: 0.236336 cumulative IPC: 0.335756 (Simulation time: 4 hr 8 min 3 sec) 
Heartbeat CPU 1 instructions: 1690000003 cycles: 1387426062 heartbeat IPC: 0.53097 cumulative IPC: 1.12866 (Simulation time: 4 hr 8 min 6 sec) 
Heartbeat CPU 0 instructions: 1270000003 cycles: 1392323400 heartbeat IPC: 1.22619 cumulative IPC: 0.823904 (Simulation time: 4 hr 8 min 49 sec) 
Heartbeat CPU 0 instructions: 1280000000 cycles: 1401756357 heartbeat IPC: 1.06011 cumulative IPC: 0.825643 (Simulation time: 4 hr 10 min 16 sec) 
Heartbeat CPU 2 instructions: 850000000 cycles: 1401924855 heartbeat IPC: 0.584623 cumulative IPC: 0.507181 (Simulation time: 4 hr 10 min 17 sec) 
Heartbeat CPU 1 instructions: 1700000000 cycles: 1402170621 heartbeat IPC: 0.678216 cumulative IPC: 1.12348 (Simulation time: 4 hr 10 min 20 sec) 
Heartbeat CPU 1 instructions: 1710000003 cycles: 1411779702 heartbeat IPC: 1.04068 cumulative IPC: 1.12287 (Simulation time: 4 hr 11 min 42 sec) 
Heartbeat CPU 0 instructions: 1290000003 cycles: 1418246643 heartbeat IPC: 0.606418 cumulative IPC: 0.822858 (Simulation time: 4 hr 12 min 39 sec) 
Heartbeat CPU 3 instructions: 640000000 cycles: 1420755560 heartbeat IPC: 0.297575 cumulative IPC: 0.33477 (Simulation time: 4 hr 13 min 0 sec) 
Heartbeat CPU 1 instructions: 1720000000 cycles: 1421384400 heartbeat IPC: 1.04116 cumulative IPC: 1.12226 (Simulation time: 4 hr 13 min 6 sec) 
Heartbeat CPU 2 instructions: 860000000 cycles: 1421722682 heartbeat IPC: 0.505106 cumulative IPC: 0.507149 (Simulation time: 4 hr 13 min 9 sec) 
Heartbeat CPU 1 instructions: 1730000001 cycles: 1431016974 heartbeat IPC: 1.03814 cumulative IPC: 1.12165 (Simulation time: 4 hr 14 min 39 sec) 
Heartbeat CPU 0 instructions: 1300000000 cycles: 1431127577 heartbeat IPC: 0.776341 cumulative IPC: 0.822401 (Simulation time: 4 hr 14 min 40 sec) 
Heartbeat CPU 1 instructions: 1740000000 cycles: 1440529940 heartbeat IPC: 1.0512 cumulative IPC: 1.12114 (Simulation time: 4 hr 16 min 9 sec) 
Heartbeat CPU 0 instructions: 1310000002 cycles: 1441300634 heartbeat IPC: 0.982989 cumulative IPC: 0.823637 (Simulation time: 4 hr 16 min 17 sec) 
Heartbeat CPU 2 instructions: 870000002 cycles: 1446572661 heartbeat IPC: 0.402415 cumulative IPC: 0.505187 (Simulation time: 4 hr 17 min 9 sec) 
Heartbeat CPU 1 instructions: 1750000003 cycles: 1450177109 heartbeat IPC: 1.03657 cumulative IPC: 1.12052 (Simulation time: 4 hr 17 min 39 sec) 
Heartbeat CPU 3 instructions: 650000000 cycles: 1452730848 heartbeat IPC: 0.312742 cumulative IPC: 0.334241 (Simulation time: 4 hr 18 min 1 sec) 
Heartbeat CPU 0 instructions: 1320000000 cycles: 1453800825 heartbeat IPC: 0.799988 cumulative IPC: 0.823416 (Simulation time: 4 hr 18 min 11 sec) 
Heartbeat CPU 1 instructions: 1760000000 cycles: 1459687511 heartbeat IPC: 1.05148 cumulative IPC: 1.12003 (Simulation time: 4 hr 19 min 5 sec) 
Heartbeat CPU 1 instructions: 1770000001 cycles: 1469336113 heartbeat IPC: 1.03642 cumulative IPC: 1.11944 (Simulation time: 4 hr 20 min 29 sec) 
Heartbeat CPU 0 instructions: 1330000000 cycles: 1470678374 heartbeat IPC: 0.592503 cumulative IPC: 0.82053 (Simulation time: 4 hr 20 min 40 sec) 
Heartbeat CPU 2 instructions: 880000000 cycles: 1474666328 heartbeat IPC: 0.355952 cumulative IPC: 0.502091 (Simulation time: 4 hr 21 min 14 sec) 
Heartbeat CPU 1 instructions: 1780000000 cycles: 1478875510 heartbeat IPC: 1.04828 cumulative IPC: 1.11894 (Simulation time: 4 hr 21 min 50 sec) 
Heartbeat CPU 3 instructions: 660000000 cycles: 1480695379 heartbeat IPC: 0.357596 cumulative IPC: 0.334721 (Simulation time: 4 hr 22 min 6 sec) 
Heartbeat CPU 0 instructions: 1340000000 cycles: 1482655816 heartbeat IPC: 0.834903 cumulative IPC: 0.820656 (Simulation time: 4 hr 22 min 27 sec) 
Heartbeat CPU 1 instructions: 1790000002 cycles: 1488504922 heartbeat IPC: 1.03849 cumulative IPC: 1.11837 (Simulation time: 4 hr 23 min 25 sec) 
Heartbeat CPU 0 instructions: 1350000002 cycles: 1492874300 heartbeat IPC: 0.978619 cumulative IPC: 0.821832 (Simulation time: 4 hr 24 min 6 sec) 
Heartbeat CPU 1 instructions: 1800000000 cycles: 1498113139 heartbeat IPC: 1.04078 cumulative IPC: 1.11783 (Simulation time: 4 hr 24 min 58 sec) 
Heartbeat CPU 3 instructions: 670000000 cycles: 1503858643 heartbeat IPC: 0.431718 cumulative IPC: 0.336345 (Simulation time: 4 hr 25 min 50 sec) 
Heartbeat CPU 0 instructions: 1360000000 cycles: 1505758828 heartbeat IPC: 0.776125 cumulative IPC: 0.821407 (Simulation time: 4 hr 26 min 7 sec) 
Heartbeat CPU 2 instructions: 890000001 cycles: 1507646198 heartbeat IPC: 0.303215 cumulative IPC: 0.497364 (Simulation time: 4 hr 26 min 24 sec) 
Heartbeat CPU 1 instructions: 1810000000 cycles: 1507694236 heartbeat IPC: 1.04372 cumulative IPC: 1.11732 (Simulation time: 4 hr 26 min 24 sec) 
Heartbeat CPU 1 instructions: 1820000000 cycles: 1517342529 heartbeat IPC: 1.03645 cumulative IPC: 1.11676 (Simulation time: 4 hr 27 min 44 sec) 
Heartbeat CPU 0 instructions: 1370000000 cycles: 1522913053 heartbeat IPC: 0.582947 cumulative IPC: 0.818491 (Simulation time: 4 hr 28 min 33 sec) 
Heartbeat CPU 1 instructions: 1830000003 cycles: 1526884681 heartbeat IPC: 1.04798 cumulative IPC: 1.11629 (Simulation time: 4 hr 29 min 10 sec) 
Heartbeat CPU 2 instructions: 900000000 cycles: 1530554065 heartbeat IPC: 0.436531 cumulative IPC: 0.496375 (Simulation time: 4 hr 29 min 45 sec) 
Heartbeat CPU 3 instructions: 680000000 cycles: 1534511748 heartbeat IPC: 0.326231 cumulative IPC: 0.336126 (Simulation time: 4 hr 30 min 25 sec) 
Heartbeat CPU 0 instructions: 1380000000 cycles: 1535216893 heartbeat IPC: 0.812754 cumulative IPC: 0.818441 (Simulation time: 4 hr 30 min 31 sec) 
Heartbeat CPU 1 instructions: 1840000000 cycles: 1536537868 heartbeat IPC: 1.03593 cumulative IPC: 1.11574 (Simulation time: 4 hr 30 min 43 sec) 
Heartbeat CPU 0 instructions: 1390000002 cycles: 1545486287 heartbeat IPC: 0.973767 cumulative IPC: 0.81956 (Simulation time: 4 hr 32 min 12 sec) 
Heartbeat CPU 1 instructions: 1850000002 cycles: 1546130345 heartbeat IPC: 1.04248 cumulative IPC: 1.11525 (Simulation time: 4 hr 32 min 19 sec) 
Heartbeat CPU 2 instructions: 910000000 cycles: 1553522969 heartbeat IPC: 0.435371 cumulative IPC: 0.495398 (Simulation time: 4 hr 33 min 32 sec) 
Heartbeat CPU 1 instructions: 1860000000 cycles: 1555751456 heartbeat IPC: 1.03938 cumulative IPC: 1.11474 (Simulation time: 4 hr 33 min 49 sec) 
Heartbeat CPU 0 instructions: 1400000000 cycles: 1557657823 heartbeat IPC: 0.821589 cumulative IPC: 0.819577 (Simulation time: 4 hr 34 min 5 sec) 
Heartbeat CPU 3 instructions: 690000000 cycles: 1565363281 heartbeat IPC: 0.324133 cumulative IPC: 0.33587 (Simulation time: 4 hr 35 min 10 sec) 
Heartbeat CPU 1 instructions: 1870000002 cycles: 1565384769 heartbeat IPC: 1.03806 cumulative IPC: 1.11423 (Simulation time: 4 hr 35 min 10 sec) 
Heartbeat CPU 0 instructions: 1410000002 cycles: 1574694695 heartbeat IPC: 0.586962 cumulative IPC: 0.816852 (Simulation time: 4 hr 36 min 32 sec) 
Heartbeat CPU 1 instructions: 1880000000 cycles: 1574873215 heartbeat IPC: 1.05391 cumulative IPC: 1.11384 (Simulation time: 4 hr 36 min 33 sec) 
Heartbeat CPU 2 instructions: 920000000 cycles: 1584108848 heartbeat IPC: 0.326948 cumulative IPC: 0.491878 (Simulation time: 4 hr 37 min 55 sec) 
Heartbeat CPU 1 instructions: 1890000003 cycles: 1584486652 heartbeat IPC: 1.04021 cumulative IPC: 1.11336 (Simulation time: 4 hr 37 min 59 sec) 
Heartbeat CPU 0 instructions: 1420000000 cycles: 1587617437 heartbeat IPC: 0.773829 cumulative IPC: 0.816473 (Simulation time: 4 hr 38 min 29 sec) 
Heartbeat CPU 1 instructions: 1900000000 cycles: 1594044793 heartbeat IPC: 1.04623 cumulative IPC: 1.11292 (Simulation time: 4 hr 39 min 25 sec) 
Heartbeat CPU 3 instructions: 700000000 cycles: 1594956425 heartbeat IPC: 0.337916 cumulative IPC: 0.335911 (Simulation time: 4 hr 39 min 33 sec) 
Heartbeat CPU 0 instructions: 1430000003 cycles: 1597895982 heartbeat IPC: 0.972901 cumulative IPC: 0.817561 (Simulation time: 4 hr 40 min 1 sec) 
Heartbeat CPU 1 instructions: 1910000002 cycles: 1603638512 heartbeat IPC: 1.04235 cumulative IPC: 1.11246 (Simulation time: 4 hr 40 min 57 sec) 
Heartbeat CPU 0 instructions: 1440000000 cycles: 1609682819 heartbeat IPC: 0.848404 cumulative IPC: 0.817805 (Simulation time: 4 hr 41 min 52 sec) 
Heartbeat CPU 1 instructions: 1920000000 cycles: 1613229480 heartbeat IPC: 1.04265 cumulative IPC: 1.11202 (Simulation time: 4 hr 42 min 24 sec) 
Heartbeat CPU 2 instructions: 930000001 cycles: 1613803666 heartbeat IPC: 0.336759 cumulative IPC: 0.488794 (Simulation time: 4 hr 42 min 29 sec) 
Heartbeat CPU 1 instructions: 1930000001 cycles: 1622780840 heartbeat IPC: 1.04697 cumulative IPC: 1.1116 (Simulation time: 4 hr 43 min 47 sec) 
Heartbeat CPU 3 instructions: 710000000 cycles: 1624000085 heartbeat IPC: 0.344309 cumulative IPC: 0.336073 (Simulation time: 4 hr 43 min 57 sec) 
Heartbeat CPU 0 instructions: 1450000003 cycles: 1627083372 heartbeat IPC: 0.574695 cumulative IPC: 0.814998 (Simulation time: 4 hr 44 min 21 sec) 
Heartbeat CPU 1 instructions: 1940000000 cycles: 1632452727 heartbeat IPC: 1.03392 cumulative IPC: 1.1111 (Simulation time: 4 hr 45 min 3 sec) 
Heartbeat CPU 0 instructions: 1460000000 cycles: 1640804454 heartbeat IPC: 0.728805 cumulative IPC: 0.81422 (Simulation time: 4 hr 46 min 16 sec) 
Heartbeat CPU 1 instructions: 1950000000 cycles: 1641979694 heartbeat IPC: 1.04965 cumulative IPC: 1.11072 (Simulation time: 4 hr 46 min 27 sec) 
Heartbeat CPU 2 instructions: 940000000 cycles: 1643768804 heartbeat IPC: 0.333721 cumulative IPC: 0.485743 (Simulation time: 4 hr 46 min 44 sec) 
Heartbeat CPU 0 instructions: 1470000000 cycles: 1651071296 heartbeat IPC: 0.974009 cumulative IPC: 0.815292 (Simulation time: 4 hr 47 min 52 sec) 
Heartbeat CPU 1 instructions: 1960000000 cycles: 1651674826 heartbeat IPC: 1.03145 cumulative IPC: 1.11022 (Simulation time: 4 hr 47 min 57 sec) 
Heartbeat CPU 1 instructions: 1970000003 cycles: 1661249143 heartbeat IPC: 1.04446 cumulative IPC: 1.10981 (Simulation time: 4 hr 49 min 29 sec) 
Heartbeat CPU 0 instructions: 1480000000 cycles: 1661801027 heartbeat IPC: 0.93199 cumulative IPC: 0.816104 (Simulation time: 4 hr 49 min 35 sec) 
Heartbeat CPU 3 instructions: 720000000 cycles: 1663346621 heartbeat IPC: 0.254152 cumulative IPC: 0.333984 (Simulation time: 4 hr 49 min 50 sec) 
Heartbeat CPU 2 instructions: 950000002 cycles: 1668419102 heartbeat IPC: 0.405675 cumulative IPC: 0.484469 (Simulation time: 4 hr 50 min 37 sec) 
Heartbeat CPU 1 instructions: 1980000000 cycles: 1670829937 heartbeat IPC: 1.04375 cumulative IPC: 1.1094 (Simulation time: 4 hr 50 min 58 sec) 
Heartbeat CPU 0 instructions: 1490000000 cycles: 1678041820 heartbeat IPC: 0.615734 cumulative IPC: 0.814015 (Simulation time: 4 hr 52 min 5 sec) 
Heartbeat CPU 1 instructions: 1990000002 cycles: 1680446917 heartbeat IPC: 1.03983 cumulative IPC: 1.10897 (Simulation time: 4 hr 52 min 26 sec) 
*** Reached end of trace for Core: 1 Repeating trace: /scratch/user/djimenez/champsim-traces/speccpu2006/xz/444.namd-166B.champsimtrace.xz
Heartbeat CPU 1 instructions: 2000000000 cycles: 1690024616 heartbeat IPC: 1.04409 cumulative IPC: 1.10858 (Simulation time: 4 hr 53 min 49 sec) 
Heartbeat CPU 2 instructions: 960000000 cycles: 1690299037 heartbeat IPC: 0.45704 cumulative IPC: 0.484086 (Simulation time: 4 hr 53 min 52 sec) 
Heartbeat CPU 3 instructions: 730000001 cycles: 1691840781 heartbeat IPC: 0.350949 cumulative IPC: 0.334292 (Simulation time: 4 hr 54 min 7 sec) 
Heartbeat CPU 0 instructions: 1500000000 cycles: 1692688692 heartbeat IPC: 0.68274 cumulative IPC: 0.812792 (Simulation time: 4 hr 54 min 15 sec) 
Heartbeat CPU 1 instructions: 2010000001 cycles: 1699268251 heartbeat IPC: 1.08183 cumulative IPC: 1.10842 (Simulation time: 4 hr 55 min 21 sec) 
Heartbeat CPU 0 instructions: 1510000002 cycles: 1702925686 heartbeat IPC: 0.976849 cumulative IPC: 0.813853 (Simulation time: 4 hr 55 min 57 sec) 
Heartbeat CPU 1 instructions: 2020000000 cycles: 1708501739 heartbeat IPC: 1.08301 cumulative IPC: 1.10827 (Simulation time: 4 hr 56 min 50 sec) 
Heartbeat CPU 0 instructions: 1520000000 cycles: 1713251082 heartbeat IPC: 0.968486 cumulative IPC: 0.814856 (Simulation time: 4 hr 57 min 40 sec) 
Heartbeat CPU 2 instructions: 970000000 cycles: 1715795391 heartbeat IPC: 0.392213 cumulative IPC: 0.482618 (Simulation time: 4 hr 58 min 3 sec) 
Heartbeat CPU 1 instructions: 2030000000 cycles: 1715927954 heartbeat IPC: 1.34658 cumulative IPC: 1.10938 (Simulation time: 4 hr 58 min 4 sec) 
Heartbeat CPU 3 instructions: 740000000 cycles: 1720426501 heartbeat IPC: 0.349825 cumulative IPC: 0.334569 (Simulation time: 4 hr 58 min 45 sec) 
Heartbeat CPU 1 instructions: 2040000000 cycles: 1724976154 heartbeat IPC: 1.10519 cumulative IPC: 1.10936 (Simulation time: 4 hr 59 min 24 sec) 
Heartbeat CPU 0 instructions: 1530000000 cycles: 1728814706 heartbeat IPC: 0.642524 cumulative IPC: 0.813188 (Simulation time: 4 hr 59 min 58 sec) 
Heartbeat CPU 1 instructions: 2050000002 cycles: 1732227592 heartbeat IPC: 1.37904 cumulative IPC: 1.11057 (Simulation time: 5 hr 0 min 31 sec) 
Heartbeat CPU 1 instructions: 2060000000 cycles: 1741431936 heartbeat IPC: 1.08644 cumulative IPC: 1.11043 (Simulation time: 5 hr 1 min 52 sec) 
Heartbeat CPU 0 instructions: 1540000000 cycles: 1743957523 heartbeat IPC: 0.660379 cumulative IPC: 0.811763 (Simulation time: 5 hr 2 min 12 sec) 
Heartbeat CPU 2 instructions: 980000000 cycles: 1745290491 heartbeat IPC: 0.339039 cumulative IPC: 0.480012 (Simulation time: 5 hr 2 min 24 sec) 
Heartbeat CPU 3 instructions: 750000001 cycles: 1746337351 heartbeat IPC: 0.385939 cumulative IPC: 0.335388 (Simulation time: 5 hr 2 min 34 sec) 
Heartbeat CPU 1 instructions: 2070000000 cycles: 1750414587 heartbeat IPC: 1.11326 cumulative IPC: 1.11045 (Simulation time: 5 hr 3 min 15 sec) 
Heartbeat CPU 0 instructions: 1550000001 cycles: 1754961544 heartbeat IPC: 0.908759 cumulative IPC: 0.812416 (Simulation time: 5 hr 4 min 0 sec) 
Heartbeat CPU 1 instructions: 2080000000 cycles: 1758252681 heartbeat IPC: 1.27582 cumulative IPC: 1.11124 (Simulation time: 5 hr 4 min 32 sec) 
Heartbeat CPU 0 instructions: 1560000000 cycles: 1765312332 heartbeat IPC: 0.96611 cumulative IPC: 0.813383 (Simulation time: 5 hr 5 min 39 sec) 
Heartbeat CPU 1 instructions: 2090000003 cycles: 1766662032 heartbeat IPC: 1.18915 cumulative IPC: 1.11164 (Simulation time: 5 hr 5 min 52 sec) 
Heartbeat CPU 1 instructions: 2100000000 cycles: 1774763546 heartbeat IPC: 1.23434 cumulative IPC: 1.11224 (Simulation time: 5 hr 7 min 2 sec) 
Heartbeat CPU 3 instructions: 760000000 cycles: 1774771844 heartbeat IPC: 0.351685 cumulative IPC: 0.335668 (Simulation time: 5 hr 7 min 3 sec) 
Heartbeat CPU 2 instructions: 990000001 cycles: 1775968288 heartbeat IPC: 0.325969 cumulative IPC: 0.477158 (Simulation time: 5 hr 7 min 13 sec) 
Heartbeat CPU 0 instructions: 1570000000 cycles: 1779473269 heartbeat IPC: 0.706168 cumulative IPC: 0.812468 (Simulation time: 5 hr 7 min 44 sec) 
[...]
Heartbeat CPU 0 instructions: 2490000003 cycles: 2925714246 heartbeat IPC: 0.865773 cumulative IPC: 0.808446 (Simulation time: 7 hr 52 min 21 sec) 
Heartbeat CPU 3 instructions: 1150000002 cycles: 2928867221 heartbeat IPC: 0.409192 cumulative IPC: 0.336596 (Simulation time: 7 hr 52 min 52 sec) 
Heartbeat CPU 1 instructions: 3430000000 cycles: 2929633399 heartbeat IPC: 1.12288 cumulative IPC: 1.12844 (Simulation time: 7 hr 52 min 59 sec) 
Heartbeat CPU 0 instructions: 2500000000 cycles: 2935628478 heartbeat IPC: 1.00865 cumulative IPC: 0.809151 (Simulation time: 7 hr 53 min 55 sec) 
Heartbeat CPU 1 instructions: 3440000000 cycles: 2938401100 heartbeat IPC: 1.14055 cumulative IPC: 1.12848 (Simulation time: 7 hr 54 min 23 sec) 
Heartbeat CPU 2 instructions: 1460000000 cycles: 2945036081 heartbeat IPC: 0.385353 cumulative IPC: 0.446064 (Simulation time: 7 hr 55 min 21 sec) 
Heartbeat CPU 0 instructions: 2510000000 cycles: 2947232433 heartbeat IPC: 0.861775 cumulative IPC: 0.809367 (Simulation time: 7 hr 55 min 40 sec) 
Heartbeat CPU 1 instructions: 3450000003 cycles: 2947490905 heartbeat IPC: 1.10013 cumulative IPC: 1.12839 (Simulation time: 7 hr 55 min 42 sec) 
Heartbeat CPU 1 instructions: 3460000000 cycles: 2956639708 heartbeat IPC: 1.09304 cumulative IPC: 1.12827 (Simulation time: 7 hr 56 min 49 sec) 
Heartbeat CPU 3 instructions: 1160000000 cycles: 2958010211 heartbeat IPC: 0.343136 cumulative IPC: 0.336663 (Simulation time: 7 hr 57 min 1 sec) 
Heartbeat CPU 0 instructions: 2520000000 cycles: 2964391259 heartbeat IPC: 0.58279 cumulative IPC: 0.808 (Simulation time: 7 hr 57 min 55 sec) 
Heartbeat CPU 1 instructions: 3470000000 cycles: 2965822624 heartbeat IPC: 1.08898 cumulative IPC: 1.12814 (Simulation time: 7 hr 58 min 8 sec) 
Heartbeat CPU 2 instructions: 1470000001 cycles: 2970782480 heartbeat IPC: 0.388404 cumulative IPC: 0.445543 (Simulation time: 7 hr 58 min 52 sec) 
Heartbeat CPU 1 instructions: 3480000000 cycles: 2974594291 heartbeat IPC: 1.14003 cumulative IPC: 1.12818 (Simulation time: 7 hr 59 min 24 sec) 
Heartbeat CPU 3 instructions: 1170000003 cycles: 2976593148 heartbeat IPC: 0.538128 cumulative IPC: 0.337974 (Simulation time: 7 hr 59 min 42 sec) 
Heartbeat CPU 0 instructions: 2530000001 cycles: 2978147806 heartbeat IPC: 0.726927 cumulative IPC: 0.80761 (Simulation time: 7 hr 59 min 57 sec) 
Heartbeat CPU 1 instructions: 3490000002 cycles: 2983547458 heartbeat IPC: 1.11692 cumulative IPC: 1.12815 (Simulation time: 8 hr 0 min 47 sec) 
Heartbeat CPU 0 instructions: 2540000000 cycles: 2987933380 heartbeat IPC: 1.02191 cumulative IPC: 0.808341 (Simulation time: 8 hr 1 min 26 sec) 
Heartbeat CPU 1 instructions: 3500000000 cycles: 2992602244 heartbeat IPC: 1.10439 cumulative IPC: 1.12807 (Simulation time: 8 hr 2 min 10 sec) 
Heartbeat CPU 2 instructions: 1480000000 cycles: 2996849357 heartbeat IPC: 0.383629 cumulative IPC: 0.444982 (Simulation time: 8 hr 2 min 48 sec) 
Heartbeat CPU 0 instructions: 2550000002 cycles: 2997853869 heartbeat IPC: 1.00802 cumulative IPC: 0.809029 (Simulation time: 8 hr 2 min 56 sec) 
Heartbeat CPU 1 instructions: 3510000002 cycles: 3001294746 heartbeat IPC: 1.15042 cumulative IPC: 1.12814 (Simulation time: 8 hr 3 min 23 sec) 
Heartbeat CPU 3 instructions: 1180000000 cycles: 3007203228 heartbeat IPC: 0.32669 cumulative IPC: 0.337854 (Simulation time: 8 hr 4 min 10 sec) 
Heartbeat CPU 1 instructions: 3520000000 cycles: 3010527378 heartbeat IPC: 1.08311 cumulative IPC: 1.12799 (Simulation time: 8 hr 4 min 38 sec) 
Heartbeat CPU 0 instructions: 2560000000 cycles: 3013170617 heartbeat IPC: 0.65288 cumulative IPC: 0.808202 (Simulation time: 8 hr 5 min 0 sec) 
Heartbeat CPU 2 instructions: 1490000003 cycles: 3016378364 heartbeat IPC: 0.512059 cumulative IPC: 0.445435 (Simulation time: 8 hr 5 min 26 sec) 
Heartbeat CPU 1 instructions: 3530000002 cycles: 3020249833 heartbeat IPC: 1.02855 cumulative IPC: 1.12766 (Simulation time: 8 hr 5 min 57 sec) 
Heartbeat CPU 0 instructions: 2570000001 cycles: 3029204399 heartbeat IPC: 0.623683 cumulative IPC: 0.807185 (Simulation time: 8 hr 7 min 14 sec) 
Heartbeat CPU 1 instructions: 3540000000 cycles: 3029401691 heartbeat IPC: 1.09267 cumulative IPC: 1.12755 (Simulation time: 8 hr 7 min 16 sec) 
Heartbeat CPU 3 instructions: 1190000000 cycles: 3032487161 heartbeat IPC: 0.395508 cumulative IPC: 0.338355 (Simulation time: 8 hr 7 min 43 sec) 
Heartbeat CPU 2 instructions: 1500000000 cycles: 3035289984 heartbeat IPC: 0.528775 cumulative IPC: 0.445975 (Simulation time: 8 hr 8 min 10 sec) 
Heartbeat CPU 1 instructions: 3550000000 cycles: 3038744842 heartbeat IPC: 1.0703 cumulative IPC: 1.12737 (Simulation time: 8 hr 8 min 42 sec) 
Heartbeat CPU 0 instructions: 2580000000 cycles: 3039905941 heartbeat IPC: 0.934445 cumulative IPC: 0.807652 (Simulation time: 8 hr 8 min 53 sec) 
Heartbeat CPU 1 instructions: 3560000000 cycles: 3047814747 heartbeat IPC: 1.10255 cumulative IPC: 1.12729 (Simulation time: 8 hr 10 min 3 sec) 
Heartbeat CPU 0 instructions: 2590000002 cycles: 3049640241 heartbeat IPC: 1.0273 cumulative IPC: 0.808382 (Simulation time: 8 hr 10 min 20 sec) 
Heartbeat CPU 2 instructions: 1510000001 cycles: 3054693511 heartbeat IPC: 0.51537 cumulative IPC: 0.446434 (Simulation time: 8 hr 11 min 10 sec) 
Heartbeat CPU 1 instructions: 3570000001 cycles: 3056937571 heartbeat IPC: 1.09615 cumulative IPC: 1.12719 (Simulation time: 8 hr 11 min 30 sec) 
Heartbeat CPU 3 instructions: 1200000000 cycles: 3060282363 heartbeat IPC: 0.359774 cumulative IPC: 0.338558 (Simulation time: 8 hr 11 min 59 sec) 
Heartbeat CPU 0 instructions: 2600000000 cycles: 3061109625 heartbeat IPC: 0.871886 cumulative IPC: 0.808629 (Simulation time: 8 hr 12 min 6 sec) 
Heartbeat CPU 1 instructions: 3580000000 cycles: 3065962474 heartbeat IPC: 1.10804 cumulative IPC: 1.12714 (Simulation time: 8 hr 12 min 48 sec) 
Finished CPU 3 instructions: 1000000003 cycles: 2952023008 cumulative IPC: 0.338751 (Simulation time: 8 hr 13 min 41 sec) 

CPU 0 Branch Prediction Accuracy: 97.6452% MPKI: 1.778

CPU 1 Branch Prediction Accuracy: 96.1505% MPKI: 2.0329

CPU 2 Branch Prediction Accuracy: 97.401% MPKI: 4.79115

CPU 3 Branch Prediction Accuracy: 97.3456% MPKI: 2.34078

ChampSim completed all CPUs

Total Simulation Statistics (not including warmup)

CPU 0 cumulative IPC: 0.807806 instructions: 2384662412 cycles: 2952023007
L1D TOTAL     ACCESS:  671607405  HIT:  664188195  MISS:    7419210
L1D LOAD      ACCESS:  510276662  HIT:  504977188  MISS:    5299474
L1D RFO       ACCESS:  161330743  HIT:  159211007  MISS:    2119736
L1D PREFETCH  ACCESS:          0  HIT:          0  MISS:          0
L1D WRITEBACK ACCESS:          0  HIT:          0  MISS:          0
L1I TOTAL     ACCESS:  587069519  HIT:  586911866  MISS:     157653
L1I LOAD      ACCESS:  587069519  HIT:  586911866  MISS:     157653
L1I RFO       ACCESS:          0  HIT:          0  MISS:          0
L1I PREFETCH  ACCESS:          0  HIT:          0  MISS:          0
L1I WRITEBACK ACCESS:          0  HIT:          0  MISS:          0
L2C TOTAL     ACCESS:    9763721  HIT:    5715118  MISS:    4048603
L2C LOAD      ACCESS:    5457115  HIT:    3073318  MISS:    2383797
L2C RFO       ACCESS:    2119648  HIT:     460349  MISS:    1659299
L2C PREFETCH  ACCESS:          0  HIT:          0  MISS:          0
L2C WRITEBACK ACCESS:    2186958  HIT:    2181451  MISS:       5507
LLC TOTAL     ACCESS:    5739767  HIT:    2481708  MISS:    3258059
LLC LOAD      ACCESS:    2383789  HIT:     658539  MISS:    1725250
LLC RFO       ACCESS:    1659298  HIT:     144869  MISS:    1514429
LLC PREFETCH  ACCESS:          0  HIT:          0  MISS:          0
LLC WRITEBACK ACCESS:    1696680  HIT:    1678300  MISS:      18380

CPU 1 cumulative IPC: 1.12697 instructions: 3326848048 cycles: 2952023007
L1D TOTAL     ACCESS:  738433519  HIT:  715100868  MISS:   23332651
L1D LOAD      ACCESS:  584804699  HIT:  562582407  MISS:   22222292
L1D RFO       ACCESS:  153628820  HIT:  152518461  MISS:    1110359
L1D PREFETCH  ACCESS:          0  HIT:          0  MISS:          0
L1D WRITEBACK ACCESS:          0  HIT:          0  MISS:          0
L1I TOTAL     ACCESS:  858866941  HIT:  858866565  MISS:        376
L1I LOAD      ACCESS:  858866941  HIT:  858866565  MISS:        376
L1I RFO       ACCESS:          0  HIT:          0  MISS:          0
L1I PREFETCH  ACCESS:          0  HIT:          0  MISS:          0
L1I WRITEBACK ACCESS:          0  HIT:          0  MISS:          0
L2C TOTAL     ACCESS:   28138973  HIT:   27332154  MISS:     806819
L2C LOAD      ACCESS:   22221880  HIT:   21576036  MISS:     645844
L2C RFO       ACCESS:    1110107  HIT:     949320  MISS:     160787
L2C PREFETCH  ACCESS:          0  HIT:          0  MISS:          0
L2C WRITEBACK ACCESS:    4806986  HIT:    4806798  MISS:        188
LLC TOTAL     ACCESS:    1069840  HIT:     269190  MISS:     800650
LLC LOAD      ACCESS:     645844  HIT:      55023  MISS:     590821
LLC RFO       ACCESS:     160787  HIT:      20250  MISS:     140537
LLC PREFETCH  ACCESS:          0  HIT:          0  MISS:          0
LLC WRITEBACK ACCESS:     263209  HIT:     193917  MISS:      69292

CPU 2 cumulative IPC: 0.446784 instructions: 1318915799 cycles: 2952023007
L1D TOTAL     ACCESS:  435530764  HIT:  430510677  MISS:    5020087
L1D LOAD      ACCESS:  246734163  HIT:  242157151  MISS:    4577012
L1D RFO       ACCESS:  188796601  HIT:  188353526  MISS:     443075
L1D PREFETCH  ACCESS:          0  HIT:          0  MISS:          0
L1D WRITEBACK ACCESS:          0  HIT:          0  MISS:          0
L1I TOTAL     ACCESS:  393017251  HIT:  389501848  MISS:    3515403
L1I LOAD      ACCESS:  393017251  HIT:  389501848  MISS:    3515403
L1I RFO       ACCESS:          0  HIT:          0  MISS:          0
L1I PREFETCH  ACCESS:          0  HIT:          0  MISS:          0
L1I WRITEBACK ACCESS:          0  HIT:          0  MISS:          0
L2C TOTAL     ACCESS:    9839432  HIT:    7782179  MISS:    2057253
L2C LOAD      ACCESS:    8092315  HIT:    6177152  MISS:    1915163
L2C RFO       ACCESS:     443065  HIT:     311154  MISS:     131911
L2C PREFETCH  ACCESS:          0  HIT:          0  MISS:          0
L2C WRITEBACK ACCESS:    1304052  HIT:    1293873  MISS:      10179
LLC TOTAL     ACCESS:    2428893  HIT:    1103174  MISS:    1325719
LLC LOAD      ACCESS:    1915161  HIT:     702671  MISS:    1212490
LLC RFO       ACCESS:     131907  HIT:      51722  MISS:      80185
LLC PREFETCH  ACCESS:          0  HIT:          0  MISS:          0
LLC WRITEBACK ACCESS:     381825  HIT:     348781  MISS:      33044

CPU 3 cumulative IPC: 0.338751 instructions: 1000000003 cycles: 2952023008
L1D TOTAL     ACCESS:  373093058  HIT:  342633014  MISS:   30460044
L1D LOAD      ACCESS:  132447615  HIT:  101993832  MISS:   30453783
L1D RFO       ACCESS:  240645443  HIT:  240639182  MISS:       6261
L1D PREFETCH  ACCESS:          0  HIT:          0  MISS:          0
L1D WRITEBACK ACCESS:          0  HIT:          0  MISS:          0
L1I TOTAL     ACCESS:  252656608  HIT:  252656608  MISS:          0
L1I LOAD      ACCESS:  252656608  HIT:  252656608  MISS:          0
L1I RFO       ACCESS:          0  HIT:          0  MISS:          0
L1I PREFETCH  ACCESS:          0  HIT:          0  MISS:          0
L1I WRITEBACK ACCESS:          0  HIT:          0  MISS:          0
L2C TOTAL     ACCESS:   43723942  HIT:   14049790  MISS:   29674152
L2C LOAD      ACCESS:   30450573  HIT:     810383  MISS:   29640190
L2C RFO       ACCESS:       6261  HIT:       5409  MISS:        852
L2C PREFETCH  ACCESS:          0  HIT:          0  MISS:          0
L2C WRITEBACK ACCESS:   13267108  HIT:   13233998  MISS:      33110
LLC TOTAL     ACCESS:   42294465  HIT:   21831907  MISS:   20462558
LLC LOAD      ACCESS:   29640159  HIT:    9179456  MISS:   20460703
LLC RFO       ACCESS:        852  HIT:        567  MISS:        285
LLC PREFETCH  ACCESS:          0  HIT:          0  MISS:          0
LLC WRITEBACK ACCESS:   12653454  HIT:   12651884  MISS:       1570

Region of Interest Statistics

CPU 0 cumulative IPC: 0.819192 instructions: 1000000001 cycles: 1220715326
L1D TOTAL     ACCESS:  278347081  HIT:  274982058  MISS:    3365023
L1D LOAD      ACCESS:  211983423  HIT:  209684828  MISS:    2298595
L1D RFO       ACCESS:   66363658  HIT:   65297230  MISS:    1066428
L1D PREFETCH  ACCESS:          0  HIT:          0  MISS:          0
L1D WRITEBACK ACCESS:          0  HIT:          0  MISS:          0
L1D PREFETCH  REQUESTED:          0  ISSUED:          0  USEFUL:          0  USELESS:          0
L1I TOTAL     ACCESS:  248718130  HIT:  248656670  MISS:      61460
L1I LOAD      ACCESS:  248718130  HIT:  248656670  MISS:      61460
L1I RFO       ACCESS:          0  HIT:          0  MISS:          0
L1I PREFETCH  ACCESS:          0  HIT:          0  MISS:          0
L1I WRITEBACK ACCESS:          0  HIT:          0  MISS:          0
L1I PREFETCH  REQUESTED:          0  ISSUED:          0  USEFUL:          0  USELESS:          0
L2C TOTAL     ACCESS:    4523898  HIT:    2874796  MISS:    1649102
L2C LOAD      ACCESS:    2360052  HIT:    1403144  MISS:     956908
L2C RFO       ACCESS:    1066393  HIT:     376362  MISS:     690031
L2C PREFETCH  ACCESS:          0  HIT:          0  MISS:          0
L2C WRITEBACK ACCESS:    1097453  HIT:    1095290  MISS:       2163
L2C PREFETCH  REQUESTED:          0  ISSUED:          0  USEFUL:          0  USELESS:          0
LLC TOTAL     ACCESS:    2355448  HIT:    1050959  MISS:    1304489
LLC LOAD      ACCESS:     956900  HIT:     282812  MISS:     674088
LLC RFO       ACCESS:     690031  HIT:      68460  MISS:     621571
LLC PREFETCH  ACCESS:          0  HIT:          0  MISS:          0
LLC WRITEBACK ACCESS:     708517  HIT:     699687  MISS:       8830
LLC PREFETCH  REQUESTED:          0  ISSUED:          0  USEFUL:          0  USELESS:          0
Major fault: 0 Minor fault: 2988

CPU 1 cumulative IPC: 1.15742 instructions: 1000000001 cycles: 863992976
L1D TOTAL     ACCESS:  214914508  HIT:  208660615  MISS:    6253893
L1D LOAD      ACCESS:  175697324  HIT:  169713408  MISS:    5983916
L1D RFO       ACCESS:   39217184  HIT:   38947207  MISS:     269977
L1D PREFETCH  ACCESS:          0  HIT:          0  MISS:          0
L1D WRITEBACK ACCESS:          0  HIT:          0  MISS:          0
L1D PREFETCH  REQUESTED:          0  ISSUED:          0  USEFUL:          0  USELESS:          0
L1I TOTAL     ACCESS:  257256924  HIT:  257256924  MISS:          0
L1I LOAD      ACCESS:  257256924  HIT:  257256924  MISS:          0
L1I RFO       ACCESS:          0  HIT:          0  MISS:          0
L1I PREFETCH  ACCESS:          0  HIT:          0  MISS:          0
L1I WRITEBACK ACCESS:          0  HIT:          0  MISS:          0
L1I PREFETCH  REQUESTED:          0  ISSUED:          0  USEFUL:          0  USELESS:          0
L2C TOTAL     ACCESS:    7386708  HIT:    7228172  MISS:     158536
L2C LOAD      ACCESS:    5983673  HIT:    5826283  MISS:     157390
L2C RFO       ACCESS:     269921  HIT:     268832  MISS:       1089
L2C PREFETCH  ACCESS:          0  HIT:          0  MISS:          0
L2C WRITEBACK ACCESS:    1133114  HIT:    1133057  MISS:         57
L2C PREFETCH  REQUESTED:          0  ISSUED:          0  USEFUL:          0  USELESS:          0
LLC TOTAL     ACCESS:     192384  HIT:      29694  MISS:     162690
LLC LOAD      ACCESS:     157390  HIT:      14304  MISS:     143086
LLC RFO       ACCESS:       1089  HIT:        765  MISS:        324
LLC PREFETCH  ACCESS:          0  HIT:          0  MISS:          0
LLC WRITEBACK ACCESS:      33905  HIT:      14625  MISS:      19280
LLC PREFETCH  REQUESTED:          0  ISSUED:          0  USEFUL:          0  USELESS:          0
Major fault: 0 Minor fault: 3825

CPU 2 cumulative IPC: 0.46129 instructions: 1000000001 cycles: 2167835186
L1D TOTAL     ACCESS:  323707658  HIT:  321121019  MISS:    2586639
L1D LOAD      ACCESS:  182752018  HIT:  180398509  MISS:    2353509
L1D RFO       ACCESS:  140955640  HIT:  140722510  MISS:     233130
L1D PREFETCH  ACCESS:          0  HIT:          0  MISS:          0
L1D WRITEBACK ACCESS:          0  HIT:          0  MISS:          0
L1D PREFETCH  REQUESTED:          0  ISSUED:          0  USEFUL:          0  USELESS:          0
L1I TOTAL     ACCESS:  297045060  HIT:  295257774  MISS:    1787286
L1I LOAD      ACCESS:  297045060  HIT:  295257774  MISS:    1787286
L1I RFO       ACCESS:          0  HIT:          0  MISS:          0
L1I PREFETCH  ACCESS:          0  HIT:          0  MISS:          0
L1I WRITEBACK ACCESS:          0  HIT:          0  MISS:          0
L1I PREFETCH  REQUESTED:          0  ISSUED:          0  USEFUL:          0  USELESS:          0
L2C TOTAL     ACCESS:    5072534  HIT:    3731442  MISS:    1341092
L2C LOAD      ACCESS:    4140750  HIT:    2892795  MISS:    1247955
L2C RFO       ACCESS:     233123  HIT:     146480  MISS:      86643
L2C PREFETCH  ACCESS:          0  HIT:          0  MISS:          0
L2C WRITEBACK ACCESS:     698661  HIT:     692167  MISS:       6494
L2C PREFETCH  REQUESTED:          0  ISSUED:          0  USEFUL:          0  USELESS:          0
LLC TOTAL     ACCESS:    1583876  HIT:     694837  MISS:     889039
LLC LOAD      ACCESS:    1247953  HIT:     435125  MISS:     812828
LLC RFO       ACCESS:      86643  HIT:      33508  MISS:      53135
LLC PREFETCH  ACCESS:          0  HIT:          0  MISS:          0
LLC WRITEBACK ACCESS:     249280  HIT:     226204  MISS:      23076
LLC PREFETCH  REQUESTED:          0  ISSUED:          0  USEFUL:          0  USELESS:          0
Major fault: 0 Minor fault: 5478

CPU 3 cumulative IPC: 0.338751 instructions: 1000000003 cycles: 2952023008
L1D TOTAL     ACCESS:  373093058  HIT:  342633014  MISS:   30460044
L1D LOAD      ACCESS:  132447615  HIT:  101993832  MISS:   30453783
L1D RFO       ACCESS:  240645443  HIT:  240639182  MISS:       6261
L1D PREFETCH  ACCESS:          0  HIT:          0  MISS:          0
L1D WRITEBACK ACCESS:          0  HIT:          0  MISS:          0
L1D PREFETCH  REQUESTED:          0  ISSUED:          0  USEFUL:          0  USELESS:          0
L1I TOTAL     ACCESS:  252656608  HIT:  252656608  MISS:          0
L1I LOAD      ACCESS:  252656608  HIT:  252656608  MISS:          0
L1I RFO       ACCESS:          0  HIT:          0  MISS:          0
L1I PREFETCH  ACCESS:          0  HIT:          0  MISS:          0
L1I WRITEBACK ACCESS:          0  HIT:          0  MISS:          0
L1I PREFETCH  REQUESTED:          0  ISSUED:          0  USEFUL:          0  USELESS:          0
L2C TOTAL     ACCESS:   43723942  HIT:   14049790  MISS:   29674152
L2C LOAD      ACCESS:   30450573  HIT:     810383  MISS:   29640190
L2C RFO       ACCESS:       6261  HIT:       5409  MISS:        852
L2C PREFETCH  ACCESS:          0  HIT:          0  MISS:          0
L2C WRITEBACK ACCESS:   13267108  HIT:   13233998  MISS:      33110
L2C PREFETCH  REQUESTED:          0  ISSUED:          0  USEFUL:          0  USELESS:          0
LLC TOTAL     ACCESS:   42294465  HIT:   21831907  MISS:   20462558
LLC LOAD      ACCESS:   29640159  HIT:    9179456  MISS:   20460703
LLC RFO       ACCESS:        852  HIT:        567  MISS:        285
LLC PREFETCH  ACCESS:          0  HIT:          0  MISS:          0
LLC WRITEBACK ACCESS:   12653454  HIT:   12651884  MISS:       1570
LLC PREFETCH  REQUESTED:          0  ISSUED:          0  USEFUL:          0  USELESS:          0
Major fault: 0 Minor fault: 392607

DRAM Statistics
 CHANNEL 0
 RQ ROW_BUFFER_HIT:    3505669  ROW_BUFFER_MISS:   10806314
 DBUS_CONGESTED:   18715517
 WQ ROW_BUFFER_HIT:     758682  ROW_BUFFER_MISS:    6337620  FULL:          0

 CHANNEL 1
 RQ ROW_BUFFER_HIT:    2425244  ROW_BUFFER_MISS:    8986853
 DBUS_CONGESTED:   18715517
 WQ ROW_BUFFER_HIT:     819459  ROW_BUFFER_MISS:    6198753  FULL:          0

 AVG_CONGESTED_CYCLE: 13
