Initialize SIGNATURE TABLE
ST_SET: 1
ST_WAY: 256
ST_TAG_BIT: 16
ST_TAG_MASK: ffff

Initialize PATTERN TABLE
PT_SET: 512
PT_WAY: 4
SIG_DELTA_BIT: 7
C_SIG_BIT: 4
C_DELTA_BIT: 4

Initialize PREFETCH FILTER
FILTER_SET: 1024

*** ChampSim Multicore Out-of-Order Simulator ***

Warmup Instructions: 20000000
Simulation Instructions: 100000000
Number of CPUs: 4
LLC sets: 8192
LLC ways: 16
Off-chip DRAM Size: 8192 MB Channels: 2 Width: 64-bit Data Rate: 1600 MT/s

CPU 0 runs /scratch/user/eshanbhatia22/THESIS/cloudsuite_traces/cassandra_phase3_core0.trace.gz
CPU 1 runs /scratch/user/eshanbhatia22/THESIS/cloudsuite_traces/cassandra_phase3_core1.trace.gz
CPU 2 runs /scratch/user/eshanbhatia22/THESIS/cloudsuite_traces/cassandra_phase3_core2.trace.gz
CPU 3 runs /scratch/user/eshanbhatia22/THESIS/cloudsuite_traces/cassandra_phase3_core3.trace.gz
Heartbeat CPU 0 instructions: 10000000 cycles: 3232837 heartbeat IPC: 3.09326 cumulative IPC: 3.09326 (Simulation time: 0 hr 1 min 32 sec) 
Heartbeat CPU 2 instructions: 10000000 cycles: 3258235 heartbeat IPC: 3.06915 cumulative IPC: 3.06915 (Simulation time: 0 hr 1 min 33 sec) 
Heartbeat CPU 3 instructions: 10000002 cycles: 3358347 heartbeat IPC: 2.97766 cumulative IPC: 2.97766 (Simulation time: 0 hr 1 min 36 sec) 
Heartbeat CPU 1 instructions: 10000000 cycles: 3372247 heartbeat IPC: 2.96538 cumulative IPC: 2.96538 (Simulation time: 0 hr 1 min 36 sec) 
Heartbeat CPU 2 instructions: 20000000 cycles: 6550002 heartbeat IPC: 3.03788 cumulative IPC: 3.05343 (Simulation time: 0 hr 3 min 7 sec) 
Heartbeat CPU 0 instructions: 20000000 cycles: 6675283 heartbeat IPC: 2.90491 cumulative IPC: 2.99613 (Simulation time: 0 hr 3 min 10 sec) 
Heartbeat CPU 3 instructions: 20000000 cycles: 6688000 heartbeat IPC: 3.00332 cumulative IPC: 2.99043 (Simulation time: 0 hr 3 min 11 sec) 
Heartbeat CPU 1 instructions: 20000000 cycles: 6729295 heartbeat IPC: 2.97881 cumulative IPC: 2.97208 (Simulation time: 0 hr 3 min 12 sec) 

Warmup complete CPU 0 instructions: 20169291 cycles: 6729297 (Simulation time: 0 hr 3 min 12 sec) 
Warmup complete CPU 1 instructions: 20000001 cycles: 6729297 (Simulation time: 0 hr 3 min 12 sec) 
Warmup complete CPU 2 instructions: 20423879 cycles: 6729296 (Simulation time: 0 hr 3 min 12 sec) 
Warmup complete CPU 3 instructions: 20130477 cycles: 6729296 (Simulation time: 0 hr 3 min 12 sec) 

Heartbeat CPU 0 instructions: 30000000 cycles: 40575797 heartbeat IPC: 0.294981 cumulative IPC: 0.29045 (Simulation time: 0 hr 5 min 31 sec) 
Heartbeat CPU 1 instructions: 30000002 cycles: 44351292 heartbeat IPC: 0.265802 cumulative IPC: 0.265802 (Simulation time: 0 hr 5 min 45 sec) 
Heartbeat CPU 3 instructions: 30000000 cycles: 44629032 heartbeat IPC: 0.263567 cumulative IPC: 0.260411 (Simulation time: 0 hr 5 min 46 sec) 
Heartbeat CPU 2 instructions: 30000003 cycles: 50727964 heartbeat IPC: 0.226357 cumulative IPC: 0.217646 (Simulation time: 0 hr 6 min 6 sec) 
Heartbeat CPU 0 instructions: 40000000 cycles: 102204481 heartbeat IPC: 0.162262 cumulative IPC: 0.207705 (Simulation time: 0 hr 8 min 16 sec) 
Heartbeat CPU 3 instructions: 40000000 cycles: 104511398 heartbeat IPC: 0.166994 cumulative IPC: 0.203202 (Simulation time: 0 hr 8 min 21 sec) 
Heartbeat CPU 1 instructions: 40000000 cycles: 110548295 heartbeat IPC: 0.151064 cumulative IPC: 0.192643 (Simulation time: 0 hr 8 min 35 sec) 
Heartbeat CPU 2 instructions: 40000000 cycles: 116104883 heartbeat IPC: 0.152959 cumulative IPC: 0.178981 (Simulation time: 0 hr 8 min 48 sec) 
Heartbeat CPU 3 instructions: 50000001 cycles: 151117952 heartbeat IPC: 0.214562 cumulative IPC: 0.206869 (Simulation time: 0 hr 10 min 33 sec) 
Heartbeat CPU 0 instructions: 50000003 cycles: 152975608 heartbeat IPC: 0.196962 cumulative IPC: 0.203976 (Simulation time: 0 hr 10 min 39 sec) 
Heartbeat CPU 1 instructions: 50000003 cycles: 159718611 heartbeat IPC: 0.203375 cumulative IPC: 0.196092 (Simulation time: 0 hr 11 min 5 sec) 
Heartbeat CPU 2 instructions: 50000002 cycles: 166103077 heartbeat IPC: 0.200007 cumulative IPC: 0.185577 (Simulation time: 0 hr 11 min 33 sec) 
Heartbeat CPU 3 instructions: 60000000 cycles: 182773515 heartbeat IPC: 0.3159 cumulative IPC: 0.226474 (Simulation time: 0 hr 12 min 46 sec) 
Heartbeat CPU 0 instructions: 60000000 cycles: 188330369 heartbeat IPC: 0.282847 cumulative IPC: 0.219331 (Simulation time: 0 hr 13 min 13 sec) 
Heartbeat CPU 1 instructions: 60000000 cycles: 192816316 heartbeat IPC: 0.302136 cumulative IPC: 0.214953 (Simulation time: 0 hr 13 min 34 sec) 
Heartbeat CPU 2 instructions: 60000000 cycles: 195722625 heartbeat IPC: 0.337615 cumulative IPC: 0.209405 (Simulation time: 0 hr 13 min 47 sec) 
Heartbeat CPU 3 instructions: 70000002 cycles: 211390499 heartbeat IPC: 0.349443 cumulative IPC: 0.243669 (Simulation time: 0 hr 15 min 4 sec) 
Heartbeat CPU 0 instructions: 70000000 cycles: 215352615 heartbeat IPC: 0.370065 cumulative IPC: 0.238855 (Simulation time: 0 hr 15 min 25 sec) 
Heartbeat CPU 1 instructions: 70000002 cycles: 220283343 heartbeat IPC: 0.364073 cumulative IPC: 0.234133 (Simulation time: 0 hr 15 min 49 sec) 
Heartbeat CPU 2 instructions: 70000003 cycles: 225986908 heartbeat IPC: 0.330423 cumulative IPC: 0.226109 (Simulation time: 0 hr 16 min 17 sec) 
Heartbeat CPU 0 instructions: 80000000 cycles: 240120732 heartbeat IPC: 0.403745 cumulative IPC: 0.256353 (Simulation time: 0 hr 17 min 35 sec) 
Heartbeat CPU 3 instructions: 80000000 cycles: 240143543 heartbeat IPC: 0.347789 cumulative IPC: 0.256495 (Simulation time: 0 hr 17 min 35 sec) 
Heartbeat CPU 1 instructions: 80000000 cycles: 247068971 heartbeat IPC: 0.373334 cumulative IPC: 0.249647 (Simulation time: 0 hr 18 min 12 sec) 
Heartbeat CPU 2 instructions: 80000000 cycles: 253232427 heartbeat IPC: 0.367033 cumulative IPC: 0.241685 (Simulation time: 0 hr 18 min 45 sec) 
Heartbeat CPU 0 instructions: 90000003 cycles: 267132173 heartbeat IPC: 0.370214 cumulative IPC: 0.268164 (Simulation time: 0 hr 20 min 3 sec) 
Heartbeat CPU 3 instructions: 90000000 cycles: 270433148 heartbeat IPC: 0.330146 cumulative IPC: 0.264955 (Simulation time: 0 hr 20 min 21 sec) 
Heartbeat CPU 1 instructions: 90000003 cycles: 274689592 heartbeat IPC: 0.362048 cumulative IPC: 0.261233 (Simulation time: 0 hr 20 min 43 sec) 
Heartbeat CPU 2 instructions: 90000000 cycles: 280768493 heartbeat IPC: 0.36316 cumulative IPC: 0.253891 (Simulation time: 0 hr 21 min 20 sec) 
*** Reached end of trace for Core: 0 Repeating trace: /scratch/user/eshanbhatia22/THESIS/cloudsuite_traces/cassandra_phase3_core0.trace.gz
Heartbeat CPU 0 instructions: 100000000 cycles: 294325177 heartbeat IPC: 0.367742 cumulative IPC: 0.277579 (Simulation time: 0 hr 22 min 48 sec) 
*** Reached end of trace for Core: 3 Repeating trace: /scratch/user/eshanbhatia22/THESIS/cloudsuite_traces/cassandra_phase3_core3.trace.gz
Heartbeat CPU 3 instructions: 100000000 cycles: 302014090 heartbeat IPC: 0.316647 cumulative IPC: 0.270483 (Simulation time: 0 hr 23 min 37 sec) 
*** Reached end of trace for Core: 1 Repeating trace: /scratch/user/eshanbhatia22/THESIS/cloudsuite_traces/cassandra_phase3_core1.trace.gz
Heartbeat CPU 1 instructions: 100000000 cycles: 302128010 heartbeat IPC: 0.364452 cumulative IPC: 0.27082 (Simulation time: 0 hr 23 min 38 sec) 
*** Reached end of trace for Core: 2 Repeating trace: /scratch/user/eshanbhatia22/THESIS/cloudsuite_traces/cassandra_phase3_core2.trace.gz
Heartbeat CPU 2 instructions: 100000000 cycles: 308068260 heartbeat IPC: 0.366304 cumulative IPC: 0.264075 (Simulation time: 0 hr 24 min 10 sec) 
Heartbeat CPU 0 instructions: 110000001 cycles: 321618524 heartbeat IPC: 0.36639 cumulative IPC: 0.285277 (Simulation time: 0 hr 25 min 30 sec) 
Heartbeat CPU 3 instructions: 110000003 cycles: 332071842 heartbeat IPC: 0.332693 cumulative IPC: 0.27623 (Simulation time: 0 hr 26 min 34 sec) 
Heartbeat CPU 1 instructions: 110000002 cycles: 332481302 heartbeat IPC: 0.329454 cumulative IPC: 0.276284 (Simulation time: 0 hr 26 min 37 sec) 
Heartbeat CPU 2 instructions: 110000002 cycles: 336220450 heartbeat IPC: 0.355212 cumulative IPC: 0.271862 (Simulation time: 0 hr 26 min 59 sec) 
Heartbeat CPU 0 instructions: 120000000 cycles: 350964265 heartbeat IPC: 0.340765 cumulative IPC: 0.290007 (Simulation time: 0 hr 28 min 26 sec) 
Finished CPU 0 instructions: 100000002 cycles: 344727945 cumulative IPC: 0.290084 (Simulation time: 0 hr 28 min 29 sec) 
Heartbeat CPU 1 instructions: 120000000 cycles: 362285178 heartbeat IPC: 0.335527 cumulative IPC: 0.28125 (Simulation time: 0 hr 29 min 34 sec) 
Finished CPU 1 instructions: 100000003 cycles: 355555889 cumulative IPC: 0.28125 (Simulation time: 0 hr 29 min 34 sec) 
Heartbeat CPU 3 instructions: 120000000 cycles: 362379457 heartbeat IPC: 0.32995 cumulative IPC: 0.280808 (Simulation time: 0 hr 29 min 34 sec) 
Finished CPU 3 instructions: 100000000 cycles: 355996004 cumulative IPC: 0.280902 (Simulation time: 0 hr 29 min 36 sec) 
Heartbeat CPU 2 instructions: 120000000 cycles: 363244412 heartbeat IPC: 0.370042 cumulative IPC: 0.279304 (Simulation time: 0 hr 29 min 39 sec) 
Finished CPU 2 instructions: 100000000 cycles: 358711124 cumulative IPC: 0.278776 (Simulation time: 0 hr 29 min 50 sec) 

CPU 0 Branch Prediction Accuracy: 97.1813% MPKI: 4.07731

CPU 1 Branch Prediction Accuracy: 97.376% MPKI: 3.79576

CPU 2 Branch Prediction Accuracy: 97.4639% MPKI: 3.6257

CPU 3 Branch Prediction Accuracy: 97.6644% MPKI: 3.35068

ChampSim completed all CPUs

Total Simulation Statistics (not including warmup)

CPU 0 cumulative IPC: 0.292838 instructions: 105044427 cycles: 358711123
L1D TOTAL     ACCESS:   11721132  HIT:   10719863  MISS:    1001269
L1D LOAD      ACCESS:    8023618  HIT:    7141414  MISS:     882204
L1D RFO       ACCESS:    3697514  HIT:    3578449  MISS:     119065
L1D PREFETCH  ACCESS:          0  HIT:          0  MISS:          0
L1D WRITEBACK ACCESS:          0  HIT:          0  MISS:          0
L1I TOTAL     ACCESS:   22985010  HIT:   22584490  MISS:     400520
L1I LOAD      ACCESS:   22985010  HIT:   22584490  MISS:     400520
L1I RFO       ACCESS:          0  HIT:          0  MISS:          0
L1I PREFETCH  ACCESS:          0  HIT:          0  MISS:          0
L1I WRITEBACK ACCESS:          0  HIT:          0  MISS:          0
L2C TOTAL     ACCESS:    2195969  HIT:    1096823  MISS:    1099146
L2C LOAD      ACCESS:    1282717  HIT:     431958  MISS:     850759
L2C RFO       ACCESS:     119054  HIT:      19523  MISS:      99531
L2C PREFETCH  ACCESS:     475308  HIT:     328692  MISS:     146616
L2C WRITEBACK ACCESS:     318890  HIT:     316650  MISS:       2240
LLC TOTAL     ACCESS:    3230736  HIT:    2053311  MISS:    1177425
LLC LOAD      ACCESS:     826682  HIT:     484770  MISS:     341912
LLC RFO       ACCESS:      99526  HIT:      34102  MISS:      65424
LLC PREFETCH  ACCESS:    2018070  HIT:    1248687  MISS:     769383
LLC WRITEBACK ACCESS:     286458  HIT:     285752  MISS:        706

CPU 1 cumulative IPC: 0.281399 instructions: 100940979 cycles: 358711123
L1D TOTAL     ACCESS:   11739679  HIT:   10844937  MISS:     894742
L1D LOAD      ACCESS:    7808992  HIT:    7042695  MISS:     766297
L1D RFO       ACCESS:    3930687  HIT:    3802242  MISS:     128445
L1D PREFETCH  ACCESS:          0  HIT:          0  MISS:          0
L1D WRITEBACK ACCESS:          0  HIT:          0  MISS:          0
L1I TOTAL     ACCESS:   22507737  HIT:   22208382  MISS:     299355
L1I LOAD      ACCESS:   22507737  HIT:   22208382  MISS:     299355
L1I RFO       ACCESS:          0  HIT:          0  MISS:          0
L1I PREFETCH  ACCESS:          0  HIT:          0  MISS:          0
L1I WRITEBACK ACCESS:          0  HIT:          0  MISS:          0
L2C TOTAL     ACCESS:    1845714  HIT:     918829  MISS:     926885
L2C LOAD      ACCESS:    1065646  HIT:     332551  MISS:     733095
L2C RFO       ACCESS:     128432  HIT:      24297  MISS:     104135
L2C PREFETCH  ACCESS:     355200  HIT:     267364  MISS:      87836
L2C WRITEBACK ACCESS:     296436  HIT:     294617  MISS:       1819
LLC TOTAL     ACCESS:    2571809  HIT:    1484156  MISS:    1087653
LLC LOAD      ACCESS:     708621  HIT:     386113  MISS:     322508
LLC RFO       ACCESS:     104134  HIT:      32960  MISS:      71174
LLC PREFETCH  ACCESS:    1506021  HIT:     813377  MISS:     692644
LLC WRITEBACK ACCESS:     253033  HIT:     251706  MISS:       1327

CPU 2 cumulative IPC: 0.278776 instructions: 100000000 cycles: 358711124
L1D TOTAL     ACCESS:   11383414  HIT:   10373030  MISS:    1010384
L1D LOAD      ACCESS:    7793982  HIT:    6910935  MISS:     883047
L1D RFO       ACCESS:    3589432  HIT:    3462095  MISS:     127337
L1D PREFETCH  ACCESS:          0  HIT:          0  MISS:          0
L1D WRITEBACK ACCESS:          0  HIT:          0  MISS:          0
L1I TOTAL     ACCESS:   22338481  HIT:   22069975  MISS:     268506
L1I LOAD      ACCESS:   22338481  HIT:   22069975  MISS:     268506
L1I RFO       ACCESS:          0  HIT:          0  MISS:          0
L1I PREFETCH  ACCESS:          0  HIT:          0  MISS:          0
L1I WRITEBACK ACCESS:          0  HIT:          0  MISS:          0
L2C TOTAL     ACCESS:    1915522  HIT:     873176  MISS:    1042346
L2C LOAD      ACCESS:    1151549  HIT:     310462  MISS:     841087
L2C RFO       ACCESS:     127316  HIT:      19595  MISS:     107721
L2C PREFETCH  ACCESS:     351692  HIT:     259487  MISS:      92205
L2C WRITEBACK ACCESS:     284965  HIT:     283632  MISS:       1333
LLC TOTAL     ACCESS:    2744295  HIT:    1556069  MISS:    1188226
LLC LOAD      ACCESS:     803628  HIT:     438499  MISS:     365129
LLC RFO       ACCESS:     107719  HIT:      28763  MISS:      78956
LLC PREFETCH  ACCESS:    1578532  HIT:     835189  MISS:     743343
LLC WRITEBACK ACCESS:     254416  HIT:     253618  MISS:        798

CPU 3 cumulative IPC: 0.280878 instructions: 100754052 cycles: 358711124
L1D TOTAL     ACCESS:   11804027  HIT:   10962236  MISS:     841791
L1D LOAD      ACCESS:    8016602  HIT:    7297852  MISS:     718750
L1D RFO       ACCESS:    3787425  HIT:    3664384  MISS:     123041
L1D PREFETCH  ACCESS:          0  HIT:          0  MISS:          0
L1D WRITEBACK ACCESS:          0  HIT:          0  MISS:          0
L1I TOTAL     ACCESS:   22916444  HIT:   22699556  MISS:     216888
L1I LOAD      ACCESS:   22916444  HIT:   22699556  MISS:     216888
L1I RFO       ACCESS:          0  HIT:          0  MISS:          0
L1I PREFETCH  ACCESS:          0  HIT:          0  MISS:          0
L1I WRITEBACK ACCESS:          0  HIT:          0  MISS:          0
L2C TOTAL     ACCESS:    1589733  HIT:     703849  MISS:     885884
L2C LOAD      ACCESS:     935636  HIT:     214289  MISS:     721347
L2C RFO       ACCESS:     123033  HIT:      14477  MISS:     108556
L2C PREFETCH  ACCESS:     241561  HIT:     186622  MISS:      54939
L2C WRITEBACK ACCESS:     289503  HIT:     288461  MISS:       1042
LLC TOTAL     ACCESS:    2318332  HIT:    1187218  MISS:    1131114
LLC LOAD      ACCESS:     695472  HIT:     349586  MISS:     345886
LLC RFO       ACCESS:     108552  HIT:      23504  MISS:      85048
LLC PREFETCH  ACCESS:    1249577  HIT:     550211  MISS:     699366
LLC WRITEBACK ACCESS:     264731  HIT:     263917  MISS:        814

Region of Interest Statistics

CPU 0 cumulative IPC: 0.290084 instructions: 100000002 cycles: 344727945
L1D TOTAL     ACCESS:   11253113  HIT:   10304311  MISS:     948802
L1D LOAD      ACCESS:    7701461  HIT:    6866735  MISS:     834726
L1D RFO       ACCESS:    3551652  HIT:    3437576  MISS:     114076
L1D PREFETCH  ACCESS:          0  HIT:          0  MISS:          0
L1D WRITEBACK ACCESS:          0  HIT:          0  MISS:          0
L1D PREFETCH  REQUESTED:          0  ISSUED:          0  USEFUL:          0  USELESS:          0
L1I TOTAL     ACCESS:   21984395  HIT:   21620296  MISS:     364099
L1I LOAD      ACCESS:   21984395  HIT:   21620296  MISS:     364099
L1I RFO       ACCESS:          0  HIT:          0  MISS:          0
L1I PREFETCH  ACCESS:          0  HIT:          0  MISS:          0
L1I WRITEBACK ACCESS:          0  HIT:          0  MISS:          0
L1I PREFETCH  REQUESTED:          0  ISSUED:          0  USEFUL:          0  USELESS:          0
L2C TOTAL     ACCESS:    2056040  HIT:    1018047  MISS:    1037993
L2C LOAD      ACCESS:    1198818  HIT:     395618  MISS:     803200
L2C RFO       ACCESS:     114066  HIT:      18167  MISS:      95899
L2C PREFETCH  ACCESS:     437804  HIT:     300927  MISS:     136877
L2C WRITEBACK ACCESS:     305352  HIT:     303335  MISS:       2017
L2C PREFETCH  REQUESTED:    3708179  ISSUED:    3706972  USEFUL:     160845  USELESS:      17008
LLC TOTAL     ACCESS:    3043739  HIT:    1928573  MISS:    1115166
LLC LOAD      ACCESS:     779727  HIT:     455308  MISS:     324419
LLC RFO       ACCESS:      95894  HIT:      32591  MISS:      63303
LLC PREFETCH  ACCESS:    1892898  HIT:    1166152  MISS:     726746
LLC WRITEBACK ACCESS:     275220  HIT:     274522  MISS:        698
LLC PREFETCH  REQUESTED:          0  ISSUED:          0  USEFUL:    1199612  USELESS:    2298721
Major fault: 0 Minor fault: 51913

CPU 1 cumulative IPC: 0.28125 instructions: 100000003 cycles: 355555889
L1D TOTAL     ACCESS:   11633053  HIT:   10747591  MISS:     885462
L1D LOAD      ACCESS:    7746565  HIT:    6988567  MISS:     757998
L1D RFO       ACCESS:    3886488  HIT:    3759024  MISS:     127464
L1D PREFETCH  ACCESS:          0  HIT:          0  MISS:          0
L1D WRITEBACK ACCESS:          0  HIT:          0  MISS:          0
L1D PREFETCH  REQUESTED:          0  ISSUED:          0  USEFUL:          0  USELESS:          0
L1I TOTAL     ACCESS:   22296832  HIT:   22002098  MISS:     294734
L1I LOAD      ACCESS:   22296832  HIT:   22002098  MISS:     294734
L1I RFO       ACCESS:          0  HIT:          0  MISS:          0
L1I PREFETCH  ACCESS:          0  HIT:          0  MISS:          0
L1I WRITEBACK ACCESS:          0  HIT:          0  MISS:          0
L1I PREFETCH  REQUESTED:          0  ISSUED:          0  USEFUL:          0  USELESS:          0
L2C TOTAL     ACCESS:    1824614  HIT:     908601  MISS:     916013
L2C LOAD      ACCESS:    1052726  HIT:     329266  MISS:     723460
L2C RFO       ACCESS:     127452  HIT:      23945  MISS:     103507
L2C PREFETCH  ACCESS:     351417  HIT:     264151  MISS:      87266
L2C WRITEBACK ACCESS:     293019  HIT:     291239  MISS:       1780
L2C PREFETCH  REQUESTED:    2973234  ISSUED:    2971999  USEFUL:     100831  USELESS:      14996
LLC TOTAL     ACCESS:    2542430  HIT:    1470386  MISS:    1072044
LLC LOAD      ACCESS:     699281  HIT:     381705  MISS:     317576
LLC RFO       ACCESS:     103506  HIT:      32775  MISS:      70731
LLC PREFETCH  ACCESS:    1488740  HIT:     806313  MISS:     682427
LLC WRITEBACK ACCESS:     250903  HIT:     249593  MISS:       1310
LLC PREFETCH  REQUESTED:          0  ISSUED:          0  USEFUL:    1199612  USELESS:    2298721
Major fault: 0 Minor fault: 49454

CPU 2 cumulative IPC: 0.278776 instructions: 100000000 cycles: 358711124
L1D TOTAL     ACCESS:   11383414  HIT:   10373030  MISS:    1010384
L1D LOAD      ACCESS:    7793982  HIT:    6910935  MISS:     883047
L1D RFO       ACCESS:    3589432  HIT:    3462095  MISS:     127337
L1D PREFETCH  ACCESS:          0  HIT:          0  MISS:          0
L1D WRITEBACK ACCESS:          0  HIT:          0  MISS:          0
L1D PREFETCH  REQUESTED:          0  ISSUED:          0  USEFUL:          0  USELESS:          0
L1I TOTAL     ACCESS:   22338481  HIT:   22069975  MISS:     268506
L1I LOAD      ACCESS:   22338481  HIT:   22069975  MISS:     268506
L1I RFO       ACCESS:          0  HIT:          0  MISS:          0
L1I PREFETCH  ACCESS:          0  HIT:          0  MISS:          0
L1I WRITEBACK ACCESS:          0  HIT:          0  MISS:          0
L1I PREFETCH  REQUESTED:          0  ISSUED:          0  USEFUL:          0  USELESS:          0
L2C TOTAL     ACCESS:    1915522  HIT:     873176  MISS:    1042346
L2C LOAD      ACCESS:    1151549  HIT:     310462  MISS:     841087
L2C RFO       ACCESS:     127316  HIT:      19595  MISS:     107721
L2C PREFETCH  ACCESS:     351692  HIT:     259487  MISS:      92205
L2C WRITEBACK ACCESS:     284965  HIT:     283632  MISS:       1333
L2C PREFETCH  REQUESTED:    3625135  ISSUED:    3623790  USEFUL:     104552  USELESS:      14698
LLC TOTAL     ACCESS:    2744295  HIT:    1556069  MISS:    1188226
LLC LOAD      ACCESS:     803628  HIT:     438499  MISS:     365129
LLC RFO       ACCESS:     107719  HIT:      28763  MISS:      78956
LLC PREFETCH  ACCESS:    1578532  HIT:     835189  MISS:     743343
LLC WRITEBACK ACCESS:     254416  HIT:     253618  MISS:        798
LLC PREFETCH  REQUESTED:          0  ISSUED:          0  USEFUL:    1199612  USELESS:    2298721
Major fault: 0 Minor fault: 50900

CPU 3 cumulative IPC: 0.280902 instructions: 100000000 cycles: 355996004
L1D TOTAL     ACCESS:   11695131  HIT:   10864698  MISS:     830433
L1D LOAD      ACCESS:    7957284  HIT:    7246410  MISS:     710874
L1D RFO       ACCESS:    3737847  HIT:    3618288  MISS:     119559
L1D PREFETCH  ACCESS:          0  HIT:          0  MISS:          0
L1D WRITEBACK ACCESS:          0  HIT:          0  MISS:          0
L1D PREFETCH  REQUESTED:          0  ISSUED:          0  USEFUL:          0  USELESS:          0
L1I TOTAL     ACCESS:   22721164  HIT:   22511558  MISS:     209606
L1I LOAD      ACCESS:   22721164  HIT:   22511558  MISS:     209606
L1I RFO       ACCESS:          0  HIT:          0  MISS:          0
L1I PREFETCH  ACCESS:          0  HIT:          0  MISS:          0
L1I WRITEBACK ACCESS:          0  HIT:          0  MISS:          0
L1I PREFETCH  REQUESTED:          0  ISSUED:          0  USEFUL:          0  USELESS:          0
L2C TOTAL     ACCESS:    1559653  HIT:     688295  MISS:     871358
L2C LOAD      ACCESS:     920478  HIT:     209897  MISS:     710581
L2C RFO       ACCESS:     119552  HIT:      13965  MISS:     105587
L2C PREFETCH  ACCESS:     236213  HIT:     182030  MISS:      54183
L2C WRITEBACK ACCESS:     283410  HIT:     282403  MISS:       1007
L2C PREFETCH  REQUESTED:    2416498  ISSUED:    2416284  USEFUL:      59991  USELESS:      14313
LLC TOTAL     ACCESS:    2283151  HIT:    1167207  MISS:    1115944
LLC LOAD      ACCESS:     685891  HIT:     344127  MISS:     341764
LLC RFO       ACCESS:     105584  HIT:      23211  MISS:      82373
LLC PREFETCH  ACCESS:    1232006  HIT:     541005  MISS:     691001
LLC WRITEBACK ACCESS:     259670  HIT:     258864  MISS:        806
LLC PREFETCH  REQUESTED:          0  ISSUED:          0  USEFUL:    1199612  USELESS:    2298721
Major fault: 0 Minor fault: 47375

DRAM Statistics
 CHANNEL 0
 RQ ROW_BUFFER_HIT:     573157  ROW_BUFFER_MISS:    1709411
 DBUS_CONGESTED:    2427418
 WQ ROW_BUFFER_HIT:      28151  ROW_BUFFER_MISS:     422709  FULL:          0

 CHANNEL 1
 RQ ROW_BUFFER_HIT:     576147  ROW_BUFFER_MISS:    1721900
 DBUS_CONGESTED:    2427418
 WQ ROW_BUFFER_HIT:      28150  ROW_BUFFER_MISS:     424623  FULL:          0

 AVG_CONGESTED_CYCLE: 12
