Initialize SIGNATURE TABLE
ST_SET: 1
ST_WAY: 256
ST_TAG_BIT: 16
ST_TAG_MASK: ffff

Initialize PATTERN TABLE
PT_SET: 512
PT_WAY: 4
SIG_DELTA_BIT: 7
C_SIG_BIT: 4
C_DELTA_BIT: 4

Initialize PREFETCH FILTER
FILTER_SET: 1024

*** ChampSim Multicore Out-of-Order Simulator ***

Warmup Instructions: 20000000
Simulation Instructions: 100000000
Number of CPUs: 4
LLC sets: 8192
LLC ways: 16
Off-chip DRAM Size: 8192 MB Channels: 2 Width: 64-bit Data Rate: 1600 MT/s

CPU 0 runs /scratch/user/eshanbhatia22/THESIS/cloudsuite_traces/cassandra_phase5_core0.trace.gz
CPU 1 runs /scratch/user/eshanbhatia22/THESIS/cloudsuite_traces/cassandra_phase5_core1.trace.gz
CPU 2 runs /scratch/user/eshanbhatia22/THESIS/cloudsuite_traces/cassandra_phase5_core2.trace.gz
CPU 3 runs /scratch/user/eshanbhatia22/THESIS/cloudsuite_traces/cassandra_phase5_core3.trace.gz
Heartbeat CPU 3 instructions: 10000001 cycles: 3273395 heartbeat IPC: 3.05493 cumulative IPC: 3.05493 (Simulation time: 0 hr 1 min 26 sec) 
Heartbeat CPU 0 instructions: 10000003 cycles: 3331948 heartbeat IPC: 3.00125 cumulative IPC: 3.00125 (Simulation time: 0 hr 1 min 27 sec) 
Heartbeat CPU 1 instructions: 10000000 cycles: 3366353 heartbeat IPC: 2.97057 cumulative IPC: 2.97057 (Simulation time: 0 hr 1 min 28 sec) 
Heartbeat CPU 2 instructions: 10000003 cycles: 3418410 heartbeat IPC: 2.92534 cumulative IPC: 2.92534 (Simulation time: 0 hr 1 min 29 sec) 
Heartbeat CPU 3 instructions: 20000000 cycles: 6613205 heartbeat IPC: 2.99418 cumulative IPC: 3.02425 (Simulation time: 0 hr 2 min 54 sec) 
Heartbeat CPU 0 instructions: 20000000 cycles: 6625166 heartbeat IPC: 3.03654 cumulative IPC: 3.01879 (Simulation time: 0 hr 2 min 54 sec) 
Heartbeat CPU 1 instructions: 20000000 cycles: 6727145 heartbeat IPC: 2.97549 cumulative IPC: 2.97303 (Simulation time: 0 hr 2 min 57 sec) 
Heartbeat CPU 2 instructions: 20000000 cycles: 6863836 heartbeat IPC: 2.9024 cumulative IPC: 2.91382 (Simulation time: 0 hr 3 min 0 sec) 

Warmup complete CPU 0 instructions: 20756836 cycles: 6863837 (Simulation time: 0 hr 3 min 0 sec) 
Warmup complete CPU 1 instructions: 20365671 cycles: 6863837 (Simulation time: 0 hr 3 min 0 sec) 
Warmup complete CPU 2 instructions: 20000004 cycles: 6863837 (Simulation time: 0 hr 3 min 0 sec) 
Warmup complete CPU 3 instructions: 20578175 cycles: 6863836 (Simulation time: 0 hr 3 min 0 sec) 

Heartbeat CPU 2 instructions: 30000000 cycles: 33164052 heartbeat IPC: 0.380225 cumulative IPC: 0.380225 (Simulation time: 0 hr 5 min 4 sec) 
Heartbeat CPU 0 instructions: 30000003 cycles: 33612586 heartbeat IPC: 0.370543 cumulative IPC: 0.345555 (Simulation time: 0 hr 5 min 6 sec) 
Heartbeat CPU 1 instructions: 30000003 cycles: 35737852 heartbeat IPC: 0.3447 cumulative IPC: 0.333668 (Simulation time: 0 hr 5 min 18 sec) 
Heartbeat CPU 3 instructions: 30000000 cycles: 36056269 heartbeat IPC: 0.339639 cumulative IPC: 0.322749 (Simulation time: 0 hr 5 min 20 sec) 
Heartbeat CPU 2 instructions: 40000000 cycles: 62406919 heartbeat IPC: 0.341964 cumulative IPC: 0.360081 (Simulation time: 0 hr 7 min 21 sec) 
Heartbeat CPU 0 instructions: 40000000 cycles: 63415115 heartbeat IPC: 0.335542 cumulative IPC: 0.340278 (Simulation time: 0 hr 7 min 26 sec) 
Heartbeat CPU 3 instructions: 40000000 cycles: 63466980 heartbeat IPC: 0.364821 cumulative IPC: 0.343123 (Simulation time: 0 hr 7 min 26 sec) 
Heartbeat CPU 1 instructions: 40000000 cycles: 68218124 heartbeat IPC: 0.307879 cumulative IPC: 0.320016 (Simulation time: 0 hr 7 min 52 sec) 
Heartbeat CPU 0 instructions: 50000002 cycles: 91092485 heartbeat IPC: 0.361306 cumulative IPC: 0.347188 (Simulation time: 0 hr 9 min 43 sec) 
Heartbeat CPU 2 instructions: 50000002 cycles: 91403789 heartbeat IPC: 0.344865 cumulative IPC: 0.354862 (Simulation time: 0 hr 9 min 45 sec) 
Heartbeat CPU 3 instructions: 50000002 cycles: 93377487 heartbeat IPC: 0.334331 cumulative IPC: 0.340083 (Simulation time: 0 hr 9 min 53 sec) 
Heartbeat CPU 1 instructions: 50000002 cycles: 97002220 heartbeat IPC: 0.347414 cumulative IPC: 0.328765 (Simulation time: 0 hr 10 min 11 sec) 
Heartbeat CPU 0 instructions: 60000000 cycles: 119168203 heartbeat IPC: 0.35618 cumulative IPC: 0.349436 (Simulation time: 0 hr 11 min 59 sec) 
Heartbeat CPU 2 instructions: 60000000 cycles: 120881743 heartbeat IPC: 0.339236 cumulative IPC: 0.350822 (Simulation time: 0 hr 12 min 6 sec) 
Heartbeat CPU 3 instructions: 60000000 cycles: 121609159 heartbeat IPC: 0.354212 cumulative IPC: 0.343559 (Simulation time: 0 hr 12 min 10 sec) 
Heartbeat CPU 1 instructions: 60000000 cycles: 126430941 heartbeat IPC: 0.339804 cumulative IPC: 0.331482 (Simulation time: 0 hr 12 min 33 sec) 
Heartbeat CPU 0 instructions: 70000000 cycles: 146400194 heartbeat IPC: 0.367215 cumulative IPC: 0.352906 (Simulation time: 0 hr 14 min 10 sec) 
Heartbeat CPU 2 instructions: 70000000 cycles: 149587061 heartbeat IPC: 0.348368 cumulative IPC: 0.350328 (Simulation time: 0 hr 14 min 25 sec) 
Heartbeat CPU 3 instructions: 70000001 cycles: 151408681 heartbeat IPC: 0.335576 cumulative IPC: 0.341913 (Simulation time: 0 hr 14 min 34 sec) 
Heartbeat CPU 1 instructions: 70000003 cycles: 154315389 heartbeat IPC: 0.358623 cumulative IPC: 0.336615 (Simulation time: 0 hr 14 min 48 sec) 
Heartbeat CPU 0 instructions: 80000000 cycles: 174330039 heartbeat IPC: 0.35804 cumulative IPC: 0.353762 (Simulation time: 0 hr 16 min 29 sec) 
Heartbeat CPU 2 instructions: 80000000 cycles: 177690501 heartbeat IPC: 0.355828 cumulative IPC: 0.351233 (Simulation time: 0 hr 16 min 51 sec) 
Heartbeat CPU 3 instructions: 80000000 cycles: 180075472 heartbeat IPC: 0.348836 cumulative IPC: 0.343059 (Simulation time: 0 hr 17 min 2 sec) 
Heartbeat CPU 1 instructions: 80000000 cycles: 182624818 heartbeat IPC: 0.353239 cumulative IPC: 0.339292 (Simulation time: 0 hr 17 min 15 sec) 
Heartbeat CPU 0 instructions: 90000002 cycles: 203381205 heartbeat IPC: 0.34422 cumulative IPC: 0.352351 (Simulation time: 0 hr 18 min 56 sec) 
Heartbeat CPU 2 instructions: 90000003 cycles: 204418956 heartbeat IPC: 0.374133 cumulative IPC: 0.354331 (Simulation time: 0 hr 19 min 2 sec) 
Heartbeat CPU 3 instructions: 90000001 cycles: 210528398 heartbeat IPC: 0.328376 cumulative IPC: 0.340864 (Simulation time: 0 hr 19 min 37 sec) 
Heartbeat CPU 1 instructions: 90000000 cycles: 220448213 heartbeat IPC: 0.264387 cumulative IPC: 0.326027 (Simulation time: 0 hr 20 min 28 sec) 
*** Reached end of trace for Core: 0 Repeating trace: /scratch/user/eshanbhatia22/THESIS/cloudsuite_traces/cassandra_phase5_core0.trace.gz
Heartbeat CPU 0 instructions: 100000000 cycles: 231264239 heartbeat IPC: 0.358641 cumulative IPC: 0.353133 (Simulation time: 0 hr 21 min 29 sec) 
*** Reached end of trace for Core: 2 Repeating trace: /scratch/user/eshanbhatia22/THESIS/cloudsuite_traces/cassandra_phase5_core2.trace.gz
Heartbeat CPU 2 instructions: 100000000 cycles: 234678723 heartbeat IPC: 0.330472 cumulative IPC: 0.351162 (Simulation time: 0 hr 21 min 45 sec) 
*** Reached end of trace for Core: 3 Repeating trace: /scratch/user/eshanbhatia22/THESIS/cloudsuite_traces/cassandra_phase5_core3.trace.gz
Heartbeat CPU 3 instructions: 100000000 cycles: 241960788 heartbeat IPC: 0.318143 cumulative IPC: 0.337826 (Simulation time: 0 hr 22 min 25 sec) 
*** Reached end of trace for Core: 1 Repeating trace: /scratch/user/eshanbhatia22/THESIS/cloudsuite_traces/cassandra_phase5_core1.trace.gz
Heartbeat CPU 1 instructions: 100000000 cycles: 257027195 heartbeat IPC: 0.273381 cumulative IPC: 0.318329 (Simulation time: 0 hr 23 min 56 sec) 
Heartbeat CPU 0 instructions: 110000001 cycles: 259361797 heartbeat IPC: 0.355903 cumulative IPC: 0.353441 (Simulation time: 0 hr 24 min 11 sec) 
Heartbeat CPU 2 instructions: 110000001 cycles: 265033496 heartbeat IPC: 0.329438 cumulative IPC: 0.348608 (Simulation time: 0 hr 24 min 45 sec) 
Heartbeat CPU 3 instructions: 110000000 cycles: 271405190 heartbeat IPC: 0.339623 cumulative IPC: 0.338026 (Simulation time: 0 hr 25 min 24 sec) 
Heartbeat CPU 1 instructions: 110000002 cycles: 286368693 heartbeat IPC: 0.340814 cumulative IPC: 0.32069 (Simulation time: 0 hr 26 min 51 sec) 
Heartbeat CPU 0 instructions: 120000000 cycles: 288242743 heartbeat IPC: 0.346249 cumulative IPC: 0.352703 (Simulation time: 0 hr 27 min 0 sec) 
Finished CPU 0 instructions: 100000001 cycles: 283521725 cumulative IPC: 0.352707 (Simulation time: 0 hr 27 min 12 sec) 
Heartbeat CPU 2 instructions: 120000000 cycles: 295960282 heartbeat IPC: 0.323344 cumulative IPC: 0.345905 (Simulation time: 0 hr 27 min 45 sec) 
Finished CPU 2 instructions: 100000000 cycles: 289096453 cumulative IPC: 0.345905 (Simulation time: 0 hr 27 min 45 sec) 
Heartbeat CPU 3 instructions: 120000000 cycles: 301186813 heartbeat IPC: 0.335778 cumulative IPC: 0.337798 (Simulation time: 0 hr 28 min 16 sec) 
Finished CPU 3 instructions: 100000002 cycles: 296662380 cumulative IPC: 0.337084 (Simulation time: 0 hr 28 min 29 sec) 
Heartbeat CPU 1 instructions: 120000000 cycles: 316942995 heartbeat IPC: 0.327072 cumulative IPC: 0.321319 (Simulation time: 0 hr 29 min 48 sec) 
Heartbeat CPU 0 instructions: 130000000 cycles: 317144310 heartbeat IPC: 0.346002 cumulative IPC: 0.352079 (Simulation time: 0 hr 29 min 49 sec) 
Finished CPU 1 instructions: 100000001 cycles: 311388452 cumulative IPC: 0.321142 (Simulation time: 0 hr 29 min 55 sec) 

CPU 0 Branch Prediction Accuracy: 98.0984% MPKI: 2.33928

CPU 1 Branch Prediction Accuracy: 96.8417% MPKI: 3.95009

CPU 2 Branch Prediction Accuracy: 97.8372% MPKI: 2.68316

CPU 3 Branch Prediction Accuracy: 97.5093% MPKI: 3.06648

ChampSim completed all CPUs

Total Simulation Statistics (not including warmup)

CPU 0 cumulative IPC: 0.3527 instructions: 109826737 cycles: 311388452
L1D TOTAL     ACCESS:   10663003  HIT:    9718080  MISS:     944923
L1D LOAD      ACCESS:    7190793  HIT:    6335201  MISS:     855592
L1D RFO       ACCESS:    3472210  HIT:    3382879  MISS:      89331
L1D PREFETCH  ACCESS:          0  HIT:          0  MISS:          0
L1D WRITEBACK ACCESS:          0  HIT:          0  MISS:          0
L1I TOTAL     ACCESS:   22914484  HIT:   22697505  MISS:     216979
L1I LOAD      ACCESS:   22914484  HIT:   22697505  MISS:     216979
L1I RFO       ACCESS:          0  HIT:          0  MISS:          0
L1I PREFETCH  ACCESS:          0  HIT:          0  MISS:          0
L1I WRITEBACK ACCESS:          0  HIT:          0  MISS:          0
L2C TOTAL     ACCESS:    1673344  HIT:     640813  MISS:    1032531
L2C LOAD      ACCESS:    1072564  HIT:     213579  MISS:     858985
L2C RFO       ACCESS:      89327  HIT:      13670  MISS:      75657
L2C PREFETCH  ACCESS:     256208  HIT:     159295  MISS:      96913
L2C WRITEBACK ACCESS:     255245  HIT:     254269  MISS:        976
LLC TOTAL     ACCESS:    2832527  HIT:    1509798  MISS:    1322729
LLC LOAD      ACCESS:     831204  HIT:     437933  MISS:     393271
LLC RFO       ACCESS:      75652  HIT:      19429  MISS:      56223
LLC PREFETCH  ACCESS:    1689795  HIT:     816852  MISS:     872943
LLC WRITEBACK ACCESS:     235876  HIT:     235584  MISS:        292

CPU 1 cumulative IPC: 0.321142 instructions: 100000001 cycles: 311388452
L1D TOTAL     ACCESS:   10254820  HIT:    9235885  MISS:    1018935
L1D LOAD      ACCESS:    6775627  HIT:    5885594  MISS:     890033
L1D RFO       ACCESS:    3479193  HIT:    3350291  MISS:     128902
L1D PREFETCH  ACCESS:          0  HIT:          0  MISS:          0
L1D WRITEBACK ACCESS:          0  HIT:          0  MISS:          0
L1I TOTAL     ACCESS:   20956953  HIT:   20454459  MISS:     502494
L1I LOAD      ACCESS:   20956953  HIT:   20454459  MISS:     502494
L1I RFO       ACCESS:          0  HIT:          0  MISS:          0
L1I PREFETCH  ACCESS:          0  HIT:          0  MISS:          0
L1I WRITEBACK ACCESS:          0  HIT:          0  MISS:          0
L2C TOTAL     ACCESS:    2326608  HIT:    1192233  MISS:    1134375
L2C LOAD      ACCESS:    1392510  HIT:     460474  MISS:     932036
L2C RFO       ACCESS:     128886  HIT:      29644  MISS:      99242
L2C PREFETCH  ACCESS:     494895  HIT:     394675  MISS:     100220
L2C WRITEBACK ACCESS:     310317  HIT:     307440  MISS:       2877
LLC TOTAL     ACCESS:    3143164  HIT:    1894305  MISS:    1248859
LLC LOAD      ACCESS:     902475  HIT:     534408  MISS:     368067
LLC RFO       ACCESS:      99237  HIT:      36002  MISS:      63235
LLC PREFETCH  ACCESS:    1881370  HIT:    1064194  MISS:     817176
LLC WRITEBACK ACCESS:     260082  HIT:     259701  MISS:        381

CPU 2 cumulative IPC: 0.347924 instructions: 108339626 cycles: 311388452
L1D TOTAL     ACCESS:   10612686  HIT:    9649710  MISS:     962976
L1D LOAD      ACCESS:    7146285  HIT:    6283946  MISS:     862339
L1D RFO       ACCESS:    3466401  HIT:    3365764  MISS:     100637
L1D PREFETCH  ACCESS:          0  HIT:          0  MISS:          0
L1D WRITEBACK ACCESS:          0  HIT:          0  MISS:          0
L1I TOTAL     ACCESS:   22554331  HIT:   22283245  MISS:     271086
L1I LOAD      ACCESS:   22554331  HIT:   22283245  MISS:     271086
L1I RFO       ACCESS:          0  HIT:          0  MISS:          0
L1I PREFETCH  ACCESS:          0  HIT:          0  MISS:          0
L1I WRITEBACK ACCESS:          0  HIT:          0  MISS:          0
L2C TOTAL     ACCESS:    1792256  HIT:     721285  MISS:    1070971
L2C LOAD      ACCESS:    1133420  HIT:     245317  MISS:     888103
L2C RFO       ACCESS:     100630  HIT:      15108  MISS:      85522
L2C PREFETCH  ACCESS:     289978  HIT:     193728  MISS:      96250
L2C WRITEBACK ACCESS:     268228  HIT:     267132  MISS:       1096
LLC TOTAL     ACCESS:    2922202  HIT:    1615133  MISS:    1307069
LLC LOAD      ACCESS:     859856  HIT:     472020  MISS:     387836
LLC RFO       ACCESS:      85522  HIT:      22577  MISS:      62945
LLC PREFETCH  ACCESS:    1731199  HIT:     875177  MISS:     856022
LLC WRITEBACK ACCESS:     245625  HIT:     245359  MISS:        266

CPU 3 cumulative IPC: 0.335841 instructions: 104576899 cycles: 311388453
L1D TOTAL     ACCESS:   10639785  HIT:    9665189  MISS:     974596
L1D LOAD      ACCESS:    7092997  HIT:    6232332  MISS:     860665
L1D RFO       ACCESS:    3546788  HIT:    3432857  MISS:     113931
L1D PREFETCH  ACCESS:          0  HIT:          0  MISS:          0
L1D WRITEBACK ACCESS:          0  HIT:          0  MISS:          0
L1I TOTAL     ACCESS:   22035681  HIT:   21691761  MISS:     343920
L1I LOAD      ACCESS:   22035681  HIT:   21691761  MISS:     343920
L1I RFO       ACCESS:          0  HIT:          0  MISS:          0
L1I PREFETCH  ACCESS:          0  HIT:          0  MISS:          0
L1I WRITEBACK ACCESS:          0  HIT:          0  MISS:          0
L2C TOTAL     ACCESS:    1952576  HIT:     847664  MISS:    1104912
L2C LOAD      ACCESS:    1204579  HIT:     294500  MISS:     910079
L2C RFO       ACCESS:     113904  HIT:      19631  MISS:      94273
L2C PREFETCH  ACCESS:     351641  HIT:     252831  MISS:      98810
L2C WRITEBACK ACCESS:     282452  HIT:     280702  MISS:       1750
LLC TOTAL     ACCESS:    3010039  HIT:    1742980  MISS:    1267059
LLC LOAD      ACCESS:     880053  HIT:     504488  MISS:     375565
LLC RFO       ACCESS:      94272  HIT:      33689  MISS:      60583
LLC PREFETCH  ACCESS:    1782379  HIT:     951927  MISS:     830452
LLC WRITEBACK ACCESS:     253335  HIT:     252876  MISS:        459

Region of Interest Statistics

CPU 0 cumulative IPC: 0.352707 instructions: 100000001 cycles: 283521725
L1D TOTAL     ACCESS:    9699422  HIT:    8847175  MISS:     852247
L1D LOAD      ACCESS:    6548262  HIT:    5773871  MISS:     774391
L1D RFO       ACCESS:    3151160  HIT:    3073304  MISS:      77856
L1D PREFETCH  ACCESS:          0  HIT:          0  MISS:          0
L1D WRITEBACK ACCESS:          0  HIT:          0  MISS:          0
L1D PREFETCH  REQUESTED:          0  ISSUED:          0  USEFUL:          0  USELESS:          0
L1I TOTAL     ACCESS:   20872265  HIT:   20683193  MISS:     189072
L1I LOAD      ACCESS:   20872265  HIT:   20683193  MISS:     189072
L1I RFO       ACCESS:          0  HIT:          0  MISS:          0
L1I PREFETCH  ACCESS:          0  HIT:          0  MISS:          0
L1I WRITEBACK ACCESS:          0  HIT:          0  MISS:          0
L1I PREFETCH  REQUESTED:          0  ISSUED:          0  USEFUL:          0  USELESS:          0
L2C TOTAL     ACCESS:    1495668  HIT:     567879  MISS:     927789
L2C LOAD      ACCESS:     963458  HIT:     188904  MISS:     774554
L2C RFO       ACCESS:      77853  HIT:      12054  MISS:      65799
L2C PREFETCH  ACCESS:     226783  HIT:     140208  MISS:      86575
L2C WRITEBACK ACCESS:     227574  HIT:     226713  MISS:        861
L2C PREFETCH  REQUESTED:    3011877  ISSUED:    3011628  USEFUL:     108999  USELESS:      13377
LLC TOTAL     ACCESS:    2543817  HIT:    1350148  MISS:    1193669
LLC LOAD      ACCESS:     750502  HIT:     394095  MISS:     356407
LLC RFO       ACCESS:      65794  HIT:      18105  MISS:      47689
LLC PREFETCH  ACCESS:    1517205  HIT:     727895  MISS:     789310
LLC WRITEBACK ACCESS:     210316  HIT:     210053  MISS:        263
LLC PREFETCH  REQUESTED:          0  ISSUED:          0  USEFUL:    1320126  USELESS:    2685905
Major fault: 0 Minor fault: 42870

CPU 1 cumulative IPC: 0.321142 instructions: 100000001 cycles: 311388452
L1D TOTAL     ACCESS:   10254820  HIT:    9235885  MISS:    1018935
L1D LOAD      ACCESS:    6775627  HIT:    5885594  MISS:     890033
L1D RFO       ACCESS:    3479193  HIT:    3350291  MISS:     128902
L1D PREFETCH  ACCESS:          0  HIT:          0  MISS:          0
L1D WRITEBACK ACCESS:          0  HIT:          0  MISS:          0
L1D PREFETCH  REQUESTED:          0  ISSUED:          0  USEFUL:          0  USELESS:          0
L1I TOTAL     ACCESS:   20956953  HIT:   20454459  MISS:     502494
L1I LOAD      ACCESS:   20956953  HIT:   20454459  MISS:     502494
L1I RFO       ACCESS:          0  HIT:          0  MISS:          0
L1I PREFETCH  ACCESS:          0  HIT:          0  MISS:          0
L1I WRITEBACK ACCESS:          0  HIT:          0  MISS:          0
L1I PREFETCH  REQUESTED:          0  ISSUED:          0  USEFUL:          0  USELESS:          0
L2C TOTAL     ACCESS:    2326608  HIT:    1192233  MISS:    1134375
L2C LOAD      ACCESS:    1392510  HIT:     460474  MISS:     932036
L2C RFO       ACCESS:     128886  HIT:      29644  MISS:      99242
L2C PREFETCH  ACCESS:     494895  HIT:     394675  MISS:     100220
L2C WRITEBACK ACCESS:     310317  HIT:     307440  MISS:       2877
L2C PREFETCH  REQUESTED:    3667455  ISSUED:    3665729  USEFUL:     110947  USELESS:      17319
LLC TOTAL     ACCESS:    3143164  HIT:    1894305  MISS:    1248859
LLC LOAD      ACCESS:     902475  HIT:     534408  MISS:     368067
LLC RFO       ACCESS:      99237  HIT:      36002  MISS:      63235
LLC PREFETCH  ACCESS:    1881370  HIT:    1064194  MISS:     817176
LLC WRITEBACK ACCESS:     260082  HIT:     259701  MISS:        381
LLC PREFETCH  REQUESTED:          0  ISSUED:          0  USEFUL:    1320126  USELESS:    2685905
Major fault: 0 Minor fault: 45763

CPU 2 cumulative IPC: 0.345905 instructions: 100000000 cycles: 289096453
L1D TOTAL     ACCESS:    9848103  HIT:    8948013  MISS:     900090
L1D LOAD      ACCESS:    6612417  HIT:    5810814  MISS:     801603
L1D RFO       ACCESS:    3235686  HIT:    3137199  MISS:      98487
L1D PREFETCH  ACCESS:          0  HIT:          0  MISS:          0
L1D WRITEBACK ACCESS:          0  HIT:          0  MISS:          0
L1D PREFETCH  REQUESTED:          0  ISSUED:          0  USEFUL:          0  USELESS:          0
L1I TOTAL     ACCESS:   20877942  HIT:   20617091  MISS:     260851
L1I LOAD      ACCESS:   20877942  HIT:   20617091  MISS:     260851
L1I RFO       ACCESS:          0  HIT:          0  MISS:          0
L1I PREFETCH  ACCESS:          0  HIT:          0  MISS:          0
L1I WRITEBACK ACCESS:          0  HIT:          0  MISS:          0
L1I PREFETCH  REQUESTED:          0  ISSUED:          0  USEFUL:          0  USELESS:          0
L2C TOTAL     ACCESS:    1690629  HIT:     686229  MISS:    1004400
L2C LOAD      ACCESS:    1062449  HIT:     231823  MISS:     830626
L2C RFO       ACCESS:      98480  HIT:      14564  MISS:      83916
L2C PREFETCH  ACCESS:     274236  HIT:     185438  MISS:      88798
L2C WRITEBACK ACCESS:     255464  HIT:     254404  MISS:       1060
L2C PREFETCH  REQUESTED:    3182421  ISSUED:    3182024  USEFUL:     110812  USELESS:      14696
LLC TOTAL     ACCESS:    2730374  HIT:    1517363  MISS:    1213011
LLC LOAD      ACCESS:     802737  HIT:     443796  MISS:     358941
LLC RFO       ACCESS:      83916  HIT:      21904  MISS:      62012
LLC PREFETCH  ACCESS:    1610180  HIT:     818352  MISS:     791828
LLC WRITEBACK ACCESS:     233541  HIT:     233311  MISS:        230
LLC PREFETCH  REQUESTED:          0  ISSUED:          0  USEFUL:    1320126  USELESS:    2685905
Major fault: 0 Minor fault: 44983

CPU 3 cumulative IPC: 0.337084 instructions: 100000002 cycles: 296662380
L1D TOTAL     ACCESS:   10147781  HIT:    9231244  MISS:     916537
L1D LOAD      ACCESS:    6767153  HIT:    5954092  MISS:     813061
L1D RFO       ACCESS:    3380628  HIT:    3277152  MISS:     103476
L1D PREFETCH  ACCESS:          0  HIT:          0  MISS:          0
L1D WRITEBACK ACCESS:          0  HIT:          0  MISS:          0
L1D PREFETCH  REQUESTED:          0  ISSUED:          0  USEFUL:          0  USELESS:          0
L1I TOTAL     ACCESS:   21071312  HIT:   20769195  MISS:     302117
L1I LOAD      ACCESS:   21071312  HIT:   20769195  MISS:     302117
L1I RFO       ACCESS:          0  HIT:          0  MISS:          0
L1I PREFETCH  ACCESS:          0  HIT:          0  MISS:          0
L1I WRITEBACK ACCESS:          0  HIT:          0  MISS:          0
L1I PREFETCH  REQUESTED:          0  ISSUED:          0  USEFUL:          0  USELESS:          0
L2C TOTAL     ACCESS:    1796846  HIT:     768302  MISS:    1028544
L2C LOAD      ACCESS:    1115173  HIT:     265251  MISS:     849922
L2C RFO       ACCESS:     103451  HIT:      17582  MISS:      85869
L2C PREFETCH  ACCESS:     315037  HIT:     223803  MISS:      91234
L2C WRITEBACK ACCESS:     263185  HIT:     261666  MISS:       1519
L2C PREFETCH  REQUESTED:    3320635  ISSUED:    3320135  USEFUL:     111272  USELESS:      14719
LLC TOTAL     ACCESS:    2803692  HIT:    1593310  MISS:    1210382
LLC LOAD      ACCESS:     821987  HIT:     461579  MISS:     360408
LLC RFO       ACCESS:      85868  HIT:      29147  MISS:      56721
LLC PREFETCH  ACCESS:    1659120  HIT:     866323  MISS:     792797
LLC WRITEBACK ACCESS:     236717  HIT:     236261  MISS:        456
LLC PREFETCH  REQUESTED:          0  ISSUED:          0  USEFUL:    1320126  USELESS:    2685905
Major fault: 0 Minor fault: 44691

DRAM Statistics
 CHANNEL 0
 RQ ROW_BUFFER_HIT:     508701  ROW_BUFFER_MISS:    2054561
 DBUS_CONGESTED:    2617946
 WQ ROW_BUFFER_HIT:      20904  ROW_BUFFER_MISS:     403633  FULL:          0

 CHANNEL 1
 RQ ROW_BUFFER_HIT:     511246  ROW_BUFFER_MISS:    2069658
 DBUS_CONGESTED:    2617946
 WQ ROW_BUFFER_HIT:      20588  ROW_BUFFER_MISS:     402818  FULL:          0

 AVG_CONGESTED_CYCLE: 12
