Initialize SIGNATURE TABLE
ST_SET: 1
ST_WAY: 256
ST_TAG_BIT: 16
ST_TAG_MASK: ffff

Initialize PATTERN TABLE
PT_SET: 512
PT_WAY: 4
SIG_DELTA_BIT: 7
C_SIG_BIT: 4
C_DELTA_BIT: 4

Initialize PREFETCH FILTER
FILTER_SET: 1024

*** ChampSim Multicore Out-of-Order Simulator ***

Warmup Instructions: 20000000
Simulation Instructions: 100000000
Number of CPUs: 4
LLC sets: 8192
LLC ways: 16
Off-chip DRAM Size: 8192 MB Channels: 2 Width: 64-bit Data Rate: 1600 MT/s

CPU 0 runs /scratch/user/eshanbhatia22/THESIS/cloudsuite_traces/nutch_phase5_core0.trace.gz
CPU 1 runs /scratch/user/eshanbhatia22/THESIS/cloudsuite_traces/nutch_phase5_core1.trace.gz
CPU 2 runs /scratch/user/eshanbhatia22/THESIS/cloudsuite_traces/nutch_phase5_core2.trace.gz
CPU 3 runs /scratch/user/eshanbhatia22/THESIS/cloudsuite_traces/nutch_phase5_core3.trace.gz
Heartbeat CPU 2 instructions: 10000002 cycles: 5768635 heartbeat IPC: 1.73351 cumulative IPC: 1.73351 (Simulation time: 0 hr 1 min 57 sec) 
Heartbeat CPU 1 instructions: 10000001 cycles: 5892204 heartbeat IPC: 1.69716 cumulative IPC: 1.69716 (Simulation time: 0 hr 2 min 0 sec) 
Heartbeat CPU 3 instructions: 10000000 cycles: 6140071 heartbeat IPC: 1.62865 cumulative IPC: 1.62865 (Simulation time: 0 hr 2 min 4 sec) 
Heartbeat CPU 0 instructions: 10000000 cycles: 6140279 heartbeat IPC: 1.62859 cumulative IPC: 1.62859 (Simulation time: 0 hr 2 min 4 sec) 
Heartbeat CPU 2 instructions: 20000000 cycles: 11908628 heartbeat IPC: 1.62867 cumulative IPC: 1.67945 (Simulation time: 0 hr 3 min 58 sec) 
Heartbeat CPU 1 instructions: 20000000 cycles: 12028848 heartbeat IPC: 1.62955 cumulative IPC: 1.66267 (Simulation time: 0 hr 4 min 0 sec) 
Heartbeat CPU 3 instructions: 20000000 cycles: 12278918 heartbeat IPC: 1.62897 cumulative IPC: 1.62881 (Simulation time: 0 hr 4 min 5 sec) 
Heartbeat CPU 0 instructions: 20000000 cycles: 12280964 heartbeat IPC: 1.62848 cumulative IPC: 1.62854 (Simulation time: 0 hr 4 min 5 sec) 

Warmup complete CPU 0 instructions: 20000001 cycles: 12280965 (Simulation time: 0 hr 4 min 5 sec) 
Warmup complete CPU 1 instructions: 20410835 cycles: 12280964 (Simulation time: 0 hr 4 min 5 sec) 
Warmup complete CPU 2 instructions: 20606426 cycles: 12280964 (Simulation time: 0 hr 4 min 5 sec) 
Warmup complete CPU 3 instructions: 20003322 cycles: 12280964 (Simulation time: 0 hr 4 min 5 sec) 

Heartbeat CPU 2 instructions: 30000003 cycles: 19859994 heartbeat IPC: 1.25765 cumulative IPC: 1.23942 (Simulation time: 0 hr 6 min 31 sec) 
Heartbeat CPU 1 instructions: 30000003 cycles: 20046534 heartbeat IPC: 1.24724 cumulative IPC: 1.23483 (Simulation time: 0 hr 6 min 36 sec) 
Heartbeat CPU 3 instructions: 30000001 cycles: 20350797 heartbeat IPC: 1.23887 cumulative IPC: 1.23877 (Simulation time: 0 hr 6 min 42 sec) 
Heartbeat CPU 0 instructions: 30000000 cycles: 20404641 heartbeat IPC: 1.23097 cumulative IPC: 1.23097 (Simulation time: 0 hr 6 min 42 sec) 
Heartbeat CPU 2 instructions: 40000000 cycles: 27963344 heartbeat IPC: 1.23406 cumulative IPC: 1.23665 (Simulation time: 0 hr 9 min 14 sec) 
Heartbeat CPU 1 instructions: 40000000 cycles: 28183134 heartbeat IPC: 1.22901 cumulative IPC: 1.23185 (Simulation time: 0 hr 9 min 19 sec) 
Heartbeat CPU 3 instructions: 40000000 cycles: 28513118 heartbeat IPC: 1.22514 cumulative IPC: 1.23192 (Simulation time: 0 hr 9 min 26 sec) 
Heartbeat CPU 0 instructions: 40000000 cycles: 28582817 heartbeat IPC: 1.22277 cumulative IPC: 1.22685 (Simulation time: 0 hr 9 min 27 sec) 
Heartbeat CPU 2 instructions: 50000000 cycles: 36040907 heartbeat IPC: 1.238 cumulative IPC: 1.23711 (Simulation time: 0 hr 11 min 46 sec) 
Heartbeat CPU 1 instructions: 50000002 cycles: 36324917 heartbeat IPC: 1.22823 cumulative IPC: 1.23063 (Simulation time: 0 hr 11 min 51 sec) 
Heartbeat CPU 3 instructions: 50000002 cycles: 36642822 heartbeat IPC: 1.23006 cumulative IPC: 1.2313 (Simulation time: 0 hr 11 min 57 sec) 
Heartbeat CPU 0 instructions: 50000003 cycles: 36649522 heartbeat IPC: 1.23966 cumulative IPC: 1.23109 (Simulation time: 0 hr 11 min 57 sec) 
Heartbeat CPU 1 instructions: 60000000 cycles: 44189263 heartbeat IPC: 1.27156 cumulative IPC: 1.24072 (Simulation time: 0 hr 13 min 56 sec) 
Heartbeat CPU 3 instructions: 60000000 cycles: 44782682 heartbeat IPC: 1.22852 cumulative IPC: 1.2306 (Simulation time: 0 hr 14 min 4 sec) 
Heartbeat CPU 0 instructions: 60000000 cycles: 45367868 heartbeat IPC: 1.14701 cumulative IPC: 1.20894 (Simulation time: 0 hr 14 min 13 sec) 
Heartbeat CPU 1 instructions: 70000001 cycles: 52683134 heartbeat IPC: 1.17732 cumulative IPC: 1.22739 (Simulation time: 0 hr 16 min 8 sec) 
Heartbeat CPU 3 instructions: 70000003 cycles: 54507761 heartbeat IPC: 1.02827 cumulative IPC: 1.184 (Simulation time: 0 hr 16 min 19 sec) 
Heartbeat CPU 0 instructions: 70000001 cycles: 55191498 heartbeat IPC: 1.01795 cumulative IPC: 1.16522 (Simulation time: 0 hr 16 min 22 sec) 
Heartbeat CPU 2 instructions: 60000000 cycles: 58221825 heartbeat IPC: 0.450838 cumulative IPC: 0.857484 (Simulation time: 0 hr 16 min 44 sec) 
Heartbeat CPU 0 instructions: 80000000 cycles: 81780136 heartbeat IPC: 0.3761 cumulative IPC: 0.86332 (Simulation time: 0 hr 18 min 53 sec) 
Heartbeat CPU 1 instructions: 80000000 cycles: 82612072 heartbeat IPC: 0.334125 cumulative IPC: 0.847266 (Simulation time: 0 hr 18 min 59 sec) 
Heartbeat CPU 2 instructions: 70000002 cycles: 84199632 heartbeat IPC: 0.384944 cumulative IPC: 0.686798 (Simulation time: 0 hr 19 min 6 sec) 
Heartbeat CPU 3 instructions: 80000000 cycles: 85580354 heartbeat IPC: 0.321827 cumulative IPC: 0.818515 (Simulation time: 0 hr 19 min 12 sec) 
Heartbeat CPU 2 instructions: 80000000 cycles: 114690715 heartbeat IPC: 0.327965 cumulative IPC: 0.57996 (Simulation time: 0 hr 21 min 33 sec) 
Heartbeat CPU 1 instructions: 90000002 cycles: 120038262 heartbeat IPC: 0.267193 cumulative IPC: 0.645795 (Simulation time: 0 hr 21 min 59 sec) 
Heartbeat CPU 0 instructions: 90000002 cycles: 120230274 heartbeat IPC: 0.260077 cumulative IPC: 0.648453 (Simulation time: 0 hr 22 min 1 sec) 
Heartbeat CPU 3 instructions: 90000001 cycles: 122502974 heartbeat IPC: 0.270837 cumulative IPC: 0.635052 (Simulation time: 0 hr 22 min 17 sec) 
*** Reached end of trace for Core: 3 Repeating trace: /scratch/user/eshanbhatia22/THESIS/cloudsuite_traces/nutch_phase5_core3.trace.gz
Heartbeat CPU 3 instructions: 100000000 cycles: 149292046 heartbeat IPC: 0.373287 cumulative IPC: 0.58387 (Simulation time: 0 hr 24 min 51 sec) 
Heartbeat CPU 2 instructions: 90000000 cycles: 151627751 heartbeat IPC: 0.270731 cumulative IPC: 0.497992 (Simulation time: 0 hr 25 min 11 sec) 
*** Reached end of trace for Core: 0 Repeating trace: /scratch/user/eshanbhatia22/THESIS/cloudsuite_traces/nutch_phase5_core0.trace.gz
Heartbeat CPU 0 instructions: 100000000 cycles: 151809791 heartbeat IPC: 0.316661 cumulative IPC: 0.573358 (Simulation time: 0 hr 25 min 13 sec) 
*** Reached end of trace for Core: 1 Repeating trace: /scratch/user/eshanbhatia22/THESIS/cloudsuite_traces/nutch_phase5_core1.trace.gz
Heartbeat CPU 1 instructions: 100000000 cycles: 157137338 heartbeat IPC: 0.269548 cumulative IPC: 0.549435 (Simulation time: 0 hr 26 min 34 sec) 
Heartbeat CPU 3 instructions: 110000002 cycles: 157780314 heartbeat IPC: 1.1781 cumulative IPC: 0.618537 (Simulation time: 0 hr 26 min 47 sec) 
Heartbeat CPU 0 instructions: 110000001 cycles: 159894537 heartbeat IPC: 1.2369 cumulative IPC: 0.6097 (Simulation time: 0 hr 27 min 30 sec) 
Heartbeat CPU 1 instructions: 110000002 cycles: 165129879 heartbeat IPC: 1.25117 cumulative IPC: 0.586129 (Simulation time: 0 hr 29 min 13 sec) 
Heartbeat CPU 3 instructions: 120000000 cycles: 165923221 heartbeat IPC: 1.22806 cumulative IPC: 0.650841 (Simulation time: 0 hr 29 min 29 sec) 
Finished CPU 3 instructions: 100000000 cycles: 153644941 cumulative IPC: 0.650851 (Simulation time: 0 hr 29 min 29 sec) 
Heartbeat CPU 0 instructions: 120000000 cycles: 168020185 heartbeat IPC: 1.23067 cumulative IPC: 0.642099 (Simulation time: 0 hr 30 min 8 sec) 
Finished CPU 0 instructions: 100000001 cycles: 155739228 cumulative IPC: 0.642099 (Simulation time: 0 hr 30 min 8 sec) 
Heartbeat CPU 1 instructions: 120000000 cycles: 173276126 heartbeat IPC: 1.22756 cumulative IPC: 0.618585 (Simulation time: 0 hr 31 min 34 sec) 
Finished CPU 1 instructions: 100000002 cycles: 161327910 cumulative IPC: 0.619856 (Simulation time: 0 hr 31 min 40 sec) 
Heartbeat CPU 3 instructions: 130000002 cycles: 174050430 heartbeat IPC: 1.23043 cumulative IPC: 0.679959 (Simulation time: 0 hr 31 min 46 sec) 
Heartbeat CPU 0 instructions: 130000001 cycles: 176086875 heartbeat IPC: 1.23967 cumulative IPC: 0.671526 (Simulation time: 0 hr 32 min 15 sec) 
Heartbeat CPU 1 instructions: 130000000 cycles: 181374310 heartbeat IPC: 1.23484 cumulative IPC: 0.648099 (Simulation time: 0 hr 33 min 24 sec) 
Heartbeat CPU 3 instructions: 140000000 cycles: 182196829 heartbeat IPC: 1.22754 cumulative IPC: 0.706212 (Simulation time: 0 hr 33 min 34 sec) 
Heartbeat CPU 0 instructions: 140000000 cycles: 184291782 heartbeat IPC: 1.21878 cumulative IPC: 0.697631 (Simulation time: 0 hr 34 min 0 sec) 
*** Reached end of trace for Core: 2 Repeating trace: /scratch/user/eshanbhatia22/THESIS/cloudsuite_traces/nutch_phase5_core2.trace.gz
Heartbeat CPU 2 instructions: 100000000 cycles: 188762367 heartbeat IPC: 0.269291 cumulative IPC: 0.449869 (Simulation time: 0 hr 34 min 53 sec) 
Heartbeat CPU 1 instructions: 140000000 cycles: 189512259 heartbeat IPC: 1.22881 cumulative IPC: 0.674763 (Simulation time: 0 hr 35 min 2 sec) 
Heartbeat CPU 3 instructions: 150000003 cycles: 190276043 heartbeat IPC: 1.23774 cumulative IPC: 0.730339 (Simulation time: 0 hr 35 min 11 sec) 
Heartbeat CPU 0 instructions: 150000002 cycles: 192415415 heartbeat IPC: 1.23098 cumulative IPC: 0.721683 (Simulation time: 0 hr 35 min 33 sec) 
Heartbeat CPU 1 instructions: 150000002 cycles: 197654015 heartbeat IPC: 1.22824 cumulative IPC: 0.699072 (Simulation time: 0 hr 36 min 29 sec) 
Heartbeat CPU 3 instructions: 160000000 cycles: 198361137 heartbeat IPC: 1.23684 cumulative IPC: 0.752346 (Simulation time: 0 hr 36 min 39 sec) 
Heartbeat CPU 0 instructions: 160000000 cycles: 201228606 heartbeat IPC: 1.13466 cumulative IPC: 0.740946 (Simulation time: 0 hr 37 min 19 sec) 
Heartbeat CPU 2 instructions: 110000001 cycles: 203670105 heartbeat IPC: 0.670793 cumulative IPC: 0.467078 (Simulation time: 0 hr 37 min 53 sec) 
Heartbeat CPU 1 instructions: 160000000 cycles: 205632992 heartbeat IPC: 1.25329 cumulative IPC: 0.721943 (Simulation time: 0 hr 38 min 20 sec) 
Heartbeat CPU 3 instructions: 170000001 cycles: 208156067 heartbeat IPC: 1.02094 cumulative IPC: 0.765777 (Simulation time: 0 hr 38 min 49 sec) 
Heartbeat CPU 0 instructions: 170000003 cycles: 211149674 heartbeat IPC: 1.00796 cumulative IPC: 0.754267 (Simulation time: 0 hr 39 min 15 sec) 
Heartbeat CPU 2 instructions: 120000000 cycles: 211821841 heartbeat IPC: 1.22673 cumulative IPC: 0.498111 (Simulation time: 0 hr 39 min 23 sec) 
Finished CPU 2 instructions: 100000000 cycles: 200033501 cumulative IPC: 0.499916 (Simulation time: 0 hr 39 min 27 sec) 

CPU 0 Branch Prediction Accuracy: 99.3475% MPKI: 1.54598

CPU 1 Branch Prediction Accuracy: 99.4086% MPKI: 1.40984

CPU 2 Branch Prediction Accuracy: 98.3004% MPKI: 3.58327

CPU 3 Branch Prediction Accuracy: 99.2663% MPKI: 1.7392

ChampSim completed all CPUs

Total Simulation Statistics (not including warmup)

CPU 0 cumulative IPC: 0.754433 instructions: 150911875 cycles: 200033500
L1D TOTAL     ACCESS:   27333860  HIT:   27129703  MISS:     204157
L1D LOAD      ACCESS:   22714173  HIT:   22561531  MISS:     152642
L1D RFO       ACCESS:    4619687  HIT:    4568172  MISS:      51515
L1D PREFETCH  ACCESS:          0  HIT:          0  MISS:          0
L1D WRITEBACK ACCESS:          0  HIT:          0  MISS:          0
L1I TOTAL     ACCESS:   42970743  HIT:   42763273  MISS:     207470
L1I LOAD      ACCESS:   42970743  HIT:   42763273  MISS:     207470
L1I RFO       ACCESS:          0  HIT:          0  MISS:          0
L1I PREFETCH  ACCESS:          0  HIT:          0  MISS:          0
L1I WRITEBACK ACCESS:          0  HIT:          0  MISS:          0
L2C TOTAL     ACCESS:     784347  HIT:     658751  MISS:     125596
L2C LOAD      ACCESS:     360107  HIT:     269841  MISS:      90266
L2C RFO       ACCESS:      51498  HIT:      36639  MISS:      14859
L2C PREFETCH  ACCESS:     254808  HIT:     235191  MISS:      19617
L2C WRITEBACK ACCESS:     117934  HIT:     117080  MISS:        854
LLC TOTAL     ACCESS:     512702  HIT:     407285  MISS:     105417
LLC LOAD      ACCESS:      86110  HIT:      67593  MISS:      18517
LLC RFO       ACCESS:      14858  HIT:       3736  MISS:      11122
LLC PREFETCH  ACCESS:     346471  HIT:     270725  MISS:      75746
LLC WRITEBACK ACCESS:      65263  HIT:      65231  MISS:         32

CPU 1 cumulative IPC: 0.741413 instructions: 148307468 cycles: 200033501
L1D TOTAL     ACCESS:   26837119  HIT:   26640737  MISS:     196382
L1D LOAD      ACCESS:   22528749  HIT:   22379103  MISS:     149646
L1D RFO       ACCESS:    4308370  HIT:    4261634  MISS:      46736
L1D PREFETCH  ACCESS:          0  HIT:          0  MISS:          0
L1D WRITEBACK ACCESS:          0  HIT:          0  MISS:          0
L1I TOTAL     ACCESS:   43344720  HIT:   43162241  MISS:     182479
L1I LOAD      ACCESS:   43344720  HIT:   43162241  MISS:     182479
L1I RFO       ACCESS:          0  HIT:          0  MISS:          0
L1I PREFETCH  ACCESS:          0  HIT:          0  MISS:          0
L1I WRITEBACK ACCESS:          0  HIT:          0  MISS:          0
L2C TOTAL     ACCESS:     698407  HIT:     553385  MISS:     145022
L2C LOAD      ACCESS:     332120  HIT:     224958  MISS:     107162
L2C RFO       ACCESS:      46733  HIT:      32422  MISS:      14311
L2C PREFETCH  ACCESS:     205984  HIT:     183260  MISS:      22724
L2C WRITEBACK ACCESS:     113570  HIT:     112745  MISS:        825
LLC TOTAL     ACCESS:     561280  HIT:     454738  MISS:     106542
LLC LOAD      ACCESS:     103678  HIT:      85244  MISS:      18434
LLC RFO       ACCESS:      14311  HIT:       4258  MISS:      10053
LLC PREFETCH  ACCESS:     375570  HIT:     297515  MISS:      78055
LLC WRITEBACK ACCESS:      67721  HIT:      67721  MISS:          0

CPU 2 cumulative IPC: 0.499916 instructions: 100000000 cycles: 200033501
L1D TOTAL     ACCESS:   19052828  HIT:   18744153  MISS:     308675
L1D LOAD      ACCESS:   13986355  HIT:   13747309  MISS:     239046
L1D RFO       ACCESS:    5066473  HIT:    4996844  MISS:      69629
L1D PREFETCH  ACCESS:          0  HIT:          0  MISS:          0
L1D WRITEBACK ACCESS:          0  HIT:          0  MISS:          0
L1I TOTAL     ACCESS:   25600834  HIT:   25192256  MISS:     408578
L1I LOAD      ACCESS:   25600834  HIT:   25192256  MISS:     408578
L1I RFO       ACCESS:          0  HIT:          0  MISS:          0
L1I PREFETCH  ACCESS:          0  HIT:          0  MISS:          0
L1I WRITEBACK ACCESS:          0  HIT:          0  MISS:          0
L2C TOTAL     ACCESS:    1373084  HIT:    1212043  MISS:     161041
L2C LOAD      ACCESS:     647594  HIT:     535755  MISS:     111839
L2C RFO       ACCESS:      69591  HIT:      50956  MISS:      18635
L2C PREFETCH  ACCESS:     494460  HIT:     464914  MISS:      29546
L2C WRITEBACK ACCESS:     161439  HIT:     160418  MISS:       1021
LLC TOTAL     ACCESS:     797689  HIT:     672384  MISS:     125305
LLC LOAD      ACCESS:     109125  HIT:      88765  MISS:      20360
LLC RFO       ACCESS:      18635  HIT:       3279  MISS:      15356
LLC PREFETCH  ACCESS:     591739  HIT:     502293  MISS:      89446
LLC WRITEBACK ACCESS:      78190  HIT:      78047  MISS:        143

CPU 3 cumulative IPC: 0.755367 instructions: 151098697 cycles: 200033501
L1D TOTAL     ACCESS:   27592695  HIT:   27370872  MISS:     221823
L1D LOAD      ACCESS:   23031950  HIT:   22865485  MISS:     166465
L1D RFO       ACCESS:    4560745  HIT:    4505387  MISS:      55358
L1D PREFETCH  ACCESS:          0  HIT:          0  MISS:          0
L1D WRITEBACK ACCESS:          0  HIT:          0  MISS:          0
L1I TOTAL     ACCESS:   42958649  HIT:   42639688  MISS:     318961
L1I LOAD      ACCESS:   42958649  HIT:   42639688  MISS:     318961
L1I RFO       ACCESS:          0  HIT:          0  MISS:          0
L1I PREFETCH  ACCESS:          0  HIT:          0  MISS:          0
L1I WRITEBACK ACCESS:          0  HIT:          0  MISS:          0
L2C TOTAL     ACCESS:    1009375  HIT:     882594  MISS:     126781
L2C LOAD      ACCESS:     485410  HIT:     389434  MISS:      95976
L2C RFO       ACCESS:      55337  HIT:      41091  MISS:      14246
L2C PREFETCH  ACCESS:     354611  HIT:     339089  MISS:      15522
L2C WRITEBACK ACCESS:     114017  HIT:     112980  MISS:       1037
LLC TOTAL     ACCESS:     518244  HIT:     422730  MISS:      95514
LLC LOAD      ACCESS:      93224  HIT:      72669  MISS:      20555
LLC RFO       ACCESS:      14246  HIT:       4053  MISS:      10193
LLC PREFETCH  ACCESS:     361842  HIT:     297178  MISS:      64664
LLC WRITEBACK ACCESS:      48932  HIT:      48830  MISS:        102

Region of Interest Statistics

CPU 0 cumulative IPC: 0.642099 instructions: 100000001 cycles: 155739228
L1D TOTAL     ACCESS:   18297774  HIT:   18101739  MISS:     196035
L1D LOAD      ACCESS:   14537505  HIT:   14391264  MISS:     146241
L1D RFO       ACCESS:    3760269  HIT:    3710475  MISS:      49794
L1D PREFETCH  ACCESS:          0  HIT:          0  MISS:          0
L1D WRITEBACK ACCESS:          0  HIT:          0  MISS:          0
L1D PREFETCH  REQUESTED:          0  ISSUED:          0  USEFUL:          0  USELESS:          0
L1I TOTAL     ACCESS:   27544349  HIT:   27356352  MISS:     187997
L1I LOAD      ACCESS:   27544349  HIT:   27356352  MISS:     187997
L1I RFO       ACCESS:          0  HIT:          0  MISS:          0
L1I PREFETCH  ACCESS:          0  HIT:          0  MISS:          0
L1I WRITEBACK ACCESS:          0  HIT:          0  MISS:          0
L1I PREFETCH  REQUESTED:          0  ISSUED:          0  USEFUL:          0  USELESS:          0
L2C TOTAL     ACCESS:     738083  HIT:     622289  MISS:     115794
L2C LOAD      ACCESS:     334233  HIT:     252691  MISS:      81542
L2C RFO       ACCESS:      49777  HIT:      35613  MISS:      14164
L2C PREFETCH  ACCESS:     239741  HIT:     220342  MISS:      19399
L2C WRITEBACK ACCESS:     114332  HIT:     113643  MISS:        689
L2C PREFETCH  REQUESTED:     746456  ISSUED:     744646  USEFUL:      18817  USELESS:        829
LLC TOTAL     ACCESS:     477124  HIT:     379569  MISS:      97555
LLC LOAD      ACCESS:      77399  HIT:      61167  MISS:      16232
LLC RFO       ACCESS:      14163  HIT:       3494  MISS:      10669
LLC PREFETCH  ACCESS:     324396  HIT:     253758  MISS:      70638
LLC WRITEBACK ACCESS:      61166  HIT:      61150  MISS:         16
LLC PREFETCH  REQUESTED:          0  ISSUED:          0  USEFUL:     164097  USELESS:     105866
Major fault: 0 Minor fault: 3402

CPU 1 cumulative IPC: 0.619856 instructions: 100000002 cycles: 161327910
L1D TOTAL     ACCESS:   18327327  HIT:   18131368  MISS:     195959
L1D LOAD      ACCESS:   14750720  HIT:   14601403  MISS:     149317
L1D RFO       ACCESS:    3576607  HIT:    3529965  MISS:      46642
L1D PREFETCH  ACCESS:          0  HIT:          0  MISS:          0
L1D WRITEBACK ACCESS:          0  HIT:          0  MISS:          0
L1D PREFETCH  REQUESTED:          0  ISSUED:          0  USEFUL:          0  USELESS:          0
L1I TOTAL     ACCESS:   28279340  HIT:   28097709  MISS:     181631
L1I LOAD      ACCESS:   28279340  HIT:   28097709  MISS:     181631
L1I RFO       ACCESS:          0  HIT:          0  MISS:          0
L1I PREFETCH  ACCESS:          0  HIT:          0  MISS:          0
L1I WRITEBACK ACCESS:          0  HIT:          0  MISS:          0
L1I PREFETCH  REQUESTED:          0  ISSUED:          0  USEFUL:          0  USELESS:          0
L2C TOTAL     ACCESS:     696567  HIT:     552558  MISS:     144009
L2C LOAD      ACCESS:     330943  HIT:     224680  MISS:     106263
L2C RFO       ACCESS:      46639  HIT:      32420  MISS:      14219
L2C PREFETCH  ACCESS:     205734  HIT:     183012  MISS:      22722
L2C WRITEBACK ACCESS:     113251  HIT:     112446  MISS:        805
L2C PREFETCH  REQUESTED:     698878  ISSUED:     697140  USEFUL:      21812  USELESS:        905
LLC TOTAL     ACCESS:     558317  HIT:     453215  MISS:     105102
LLC LOAD      ACCESS:     102779  HIT:      84931  MISS:      17848
LLC RFO       ACCESS:      14219  HIT:       4255  MISS:       9964
LLC PREFETCH  ACCESS:     374554  HIT:     297264  MISS:      77290
LLC WRITEBACK ACCESS:      66765  HIT:      66765  MISS:          0
LLC PREFETCH  REQUESTED:          0  ISSUED:          0  USEFUL:     164097  USELESS:     105866
Major fault: 0 Minor fault: 3831

CPU 2 cumulative IPC: 0.499916 instructions: 100000000 cycles: 200033501
L1D TOTAL     ACCESS:   19052828  HIT:   18744153  MISS:     308675
L1D LOAD      ACCESS:   13986355  HIT:   13747309  MISS:     239046
L1D RFO       ACCESS:    5066473  HIT:    4996844  MISS:      69629
L1D PREFETCH  ACCESS:          0  HIT:          0  MISS:          0
L1D WRITEBACK ACCESS:          0  HIT:          0  MISS:          0
L1D PREFETCH  REQUESTED:          0  ISSUED:          0  USEFUL:          0  USELESS:          0
L1I TOTAL     ACCESS:   25600834  HIT:   25192256  MISS:     408578
L1I LOAD      ACCESS:   25600834  HIT:   25192256  MISS:     408578
L1I RFO       ACCESS:          0  HIT:          0  MISS:          0
L1I PREFETCH  ACCESS:          0  HIT:          0  MISS:          0
L1I WRITEBACK ACCESS:          0  HIT:          0  MISS:          0
L1I PREFETCH  REQUESTED:          0  ISSUED:          0  USEFUL:          0  USELESS:          0
L2C TOTAL     ACCESS:    1373084  HIT:    1212043  MISS:     161041
L2C LOAD      ACCESS:     647594  HIT:     535755  MISS:     111839
L2C RFO       ACCESS:      69591  HIT:      50956  MISS:      18635
L2C PREFETCH  ACCESS:     494460  HIT:     464914  MISS:      29546
L2C WRITEBACK ACCESS:     161439  HIT:     160418  MISS:       1021
L2C PREFETCH  REQUESTED:    1354630  ISSUED:    1352415  USEFUL:      28193  USELESS:       1639
LLC TOTAL     ACCESS:     797689  HIT:     672384  MISS:     125305
LLC LOAD      ACCESS:     109125  HIT:      88765  MISS:      20360
LLC RFO       ACCESS:      18635  HIT:       3279  MISS:      15356
LLC PREFETCH  ACCESS:     591739  HIT:     502293  MISS:      89446
LLC WRITEBACK ACCESS:      78190  HIT:      78047  MISS:        143
LLC PREFETCH  REQUESTED:          0  ISSUED:          0  USEFUL:     164097  USELESS:     105866
Major fault: 0 Minor fault: 3991

CPU 3 cumulative IPC: 0.650851 instructions: 100000000 cycles: 153644941
L1D TOTAL     ACCESS:   18486165  HIT:   18277445  MISS:     208720
L1D LOAD      ACCESS:   14864393  HIT:   14707742  MISS:     156651
L1D RFO       ACCESS:    3621772  HIT:    3569703  MISS:      52069
L1D PREFETCH  ACCESS:          0  HIT:          0  MISS:          0
L1D WRITEBACK ACCESS:          0  HIT:          0  MISS:          0
L1D PREFETCH  REQUESTED:          0  ISSUED:          0  USEFUL:          0  USELESS:          0
L1I TOTAL     ACCESS:   27596164  HIT:   27308324  MISS:     287840
L1I LOAD      ACCESS:   27596164  HIT:   27308324  MISS:     287840
L1I RFO       ACCESS:          0  HIT:          0  MISS:          0
L1I PREFETCH  ACCESS:          0  HIT:          0  MISS:          0
L1I WRITEBACK ACCESS:          0  HIT:          0  MISS:          0
L1I PREFETCH  REQUESTED:          0  ISSUED:          0  USEFUL:          0  USELESS:          0
L2C TOTAL     ACCESS:     930494  HIT:     810952  MISS:     119542
L2C LOAD      ACCESS:     444476  HIT:     354759  MISS:      89717
L2C RFO       ACCESS:      52048  HIT:      38557  MISS:      13491
L2C PREFETCH  ACCESS:     325686  HIT:     310304  MISS:      15382
L2C WRITEBACK ACCESS:     108284  HIT:     107332  MISS:        952
L2C PREFETCH  REQUESTED:     868040  ISSUED:     865852  USEFUL:      14152  USELESS:       1349
LLC TOTAL     ACCESS:     489158  HIT:     402115  MISS:      87043
LLC LOAD      ACCESS:      86976  HIT:      69570  MISS:      17406
LLC RFO       ACCESS:      13491  HIT:       3926  MISS:       9565
LLC PREFETCH  ACCESS:     341266  HIT:     281216  MISS:      60050
LLC WRITEBACK ACCESS:      47425  HIT:      47403  MISS:         22
LLC PREFETCH  REQUESTED:          0  ISSUED:          0  USEFUL:     164097  USELESS:     105866
Major fault: 0 Minor fault: 3410

DRAM Statistics
 CHANNEL 0
 RQ ROW_BUFFER_HIT:     122415  ROW_BUFFER_MISS:      93404
 DBUS_CONGESTED:     237481
 WQ ROW_BUFFER_HIT:      11916  ROW_BUFFER_MISS:      75675  FULL:          0

 CHANNEL 1
 RQ ROW_BUFFER_HIT:     122895  ROW_BUFFER_MISS:      93764
 DBUS_CONGESTED:     237481
 WQ ROW_BUFFER_HIT:      11978  ROW_BUFFER_MISS:      75894  FULL:          0

 AVG_CONGESTED_CYCLE: 13
