Initialize SIGNATURE TABLE
ST_SET: 1
ST_WAY: 256
ST_TAG_BIT: 16
ST_TAG_MASK: ffff

Initialize PATTERN TABLE
PT_SET: 512
PT_WAY: 4
SIG_DELTA_BIT: 7
C_SIG_BIT: 4
C_DELTA_BIT: 4

Initialize PREFETCH FILTER
FILTER_SET: 1024

*** ChampSim Multicore Out-of-Order Simulator ***

Warmup Instructions: 20000000
Simulation Instructions: 100000000
Number of CPUs: 4
LLC sets: 8192
LLC ways: 16
Off-chip DRAM Size: 8192 MB Channels: 2 Width: 64-bit Data Rate: 1600 MT/s

CPU 0 runs /scratch/user/eshanbhatia22/THESIS/cloudsuite_traces/streaming_phase0_core0.trace.gz
CPU 1 runs /scratch/user/eshanbhatia22/THESIS/cloudsuite_traces/streaming_phase0_core1.trace.gz
CPU 2 runs /scratch/user/eshanbhatia22/THESIS/cloudsuite_traces/streaming_phase0_core2.trace.gz
CPU 3 runs /scratch/user/eshanbhatia22/THESIS/cloudsuite_traces/streaming_phase0_core3.trace.gz
Heartbeat CPU 2 instructions: 10000001 cycles: 2665880 heartbeat IPC: 3.75111 cumulative IPC: 3.75111 (Simulation time: 0 hr 1 min 57 sec) 
Heartbeat CPU 1 instructions: 10000003 cycles: 2727737 heartbeat IPC: 3.66604 cumulative IPC: 3.66604 (Simulation time: 0 hr 2 min 0 sec) 
Heartbeat CPU 0 instructions: 10000000 cycles: 2990879 heartbeat IPC: 3.3435 cumulative IPC: 3.3435 (Simulation time: 0 hr 2 min 9 sec) 
Heartbeat CPU 3 instructions: 10000001 cycles: 3087209 heartbeat IPC: 3.23917 cumulative IPC: 3.23917 (Simulation time: 0 hr 2 min 13 sec) 
Heartbeat CPU 2 instructions: 20000000 cycles: 5491414 heartbeat IPC: 3.53915 cumulative IPC: 3.64205 (Simulation time: 0 hr 3 min 42 sec) 
Heartbeat CPU 3 instructions: 20000000 cycles: 5932741 heartbeat IPC: 3.51428 cumulative IPC: 3.37112 (Simulation time: 0 hr 3 min 58 sec) 
Heartbeat CPU 1 instructions: 20000000 cycles: 7214970 heartbeat IPC: 2.22854 cumulative IPC: 2.77201 (Simulation time: 0 hr 4 min 43 sec) 
Heartbeat CPU 0 instructions: 20000000 cycles: 7552978 heartbeat IPC: 2.19197 cumulative IPC: 2.64796 (Simulation time: 0 hr 4 min 55 sec) 

Warmup complete CPU 0 instructions: 20000002 cycles: 7552981 (Simulation time: 0 hr 4 min 55 sec) 
Warmup complete CPU 1 instructions: 20768146 cycles: 7552980 (Simulation time: 0 hr 4 min 55 sec) 
Warmup complete CPU 2 instructions: 25383659 cycles: 7552980 (Simulation time: 0 hr 4 min 55 sec) 
Warmup complete CPU 3 instructions: 23491785 cycles: 7552980 (Simulation time: 0 hr 4 min 55 sec) 

Heartbeat CPU 2 instructions: 30000001 cycles: 36727109 heartbeat IPC: 0.320147 cumulative IPC: 0.158234 (Simulation time: 0 hr 6 min 27 sec) 
Heartbeat CPU 1 instructions: 30000001 cycles: 57133953 heartbeat IPC: 0.200325 cumulative IPC: 0.186198 (Simulation time: 0 hr 7 min 34 sec) 
Heartbeat CPU 0 instructions: 30000000 cycles: 61133011 heartbeat IPC: 0.186637 cumulative IPC: 0.186637 (Simulation time: 0 hr 7 min 51 sec) 
Heartbeat CPU 3 instructions: 30000000 cycles: 71200848 heartbeat IPC: 0.153214 cumulative IPC: 0.102253 (Simulation time: 0 hr 8 min 23 sec) 
Heartbeat CPU 2 instructions: 40000000 cycles: 77454667 heartbeat IPC: 0.245534 cumulative IPC: 0.209099 (Simulation time: 0 hr 8 min 42 sec) 
Heartbeat CPU 1 instructions: 40000000 cycles: 110172820 heartbeat IPC: 0.188541 cumulative IPC: 0.187409 (Simulation time: 0 hr 10 min 22 sec) 
Heartbeat CPU 0 instructions: 40000000 cycles: 114619914 heartbeat IPC: 0.186962 cumulative IPC: 0.186799 (Simulation time: 0 hr 10 min 35 sec) 
Heartbeat CPU 2 instructions: 50000000 cycles: 121673324 heartbeat IPC: 0.226149 cumulative IPC: 0.215705 (Simulation time: 0 hr 11 min 6 sec) 
Heartbeat CPU 2 instructions: 60000000 cycles: 154592787 heartbeat IPC: 0.303772 cumulative IPC: 0.235422 (Simulation time: 0 hr 12 min 59 sec) 
Heartbeat CPU 1 instructions: 50000001 cycles: 163414401 heartbeat IPC: 0.187823 cumulative IPC: 0.18755 (Simulation time: 0 hr 13 min 26 sec) 
Heartbeat CPU 3 instructions: 40000000 cycles: 167188642 heartbeat IPC: 0.10418 cumulative IPC: 0.103412 (Simulation time: 0 hr 13 min 43 sec) 
Heartbeat CPU 2 instructions: 70000003 cycles: 189169303 heartbeat IPC: 0.289214 cumulative IPC: 0.245663 (Simulation time: 0 hr 15 min 0 sec) 
Heartbeat CPU 0 instructions: 50000001 cycles: 193940277 heartbeat IPC: 0.126071 cumulative IPC: 0.160955 (Simulation time: 0 hr 15 min 16 sec) 
Heartbeat CPU 1 instructions: 60000000 cycles: 195346036 heartbeat IPC: 0.313169 cumulative IPC: 0.20891 (Simulation time: 0 hr 15 min 21 sec) 
Heartbeat CPU 2 instructions: 80000000 cycles: 208480804 heartbeat IPC: 0.517826 cumulative IPC: 0.271821 (Simulation time: 0 hr 16 min 23 sec) 
Heartbeat CPU 2 instructions: 90000003 cycles: 227112111 heartbeat IPC: 0.536731 cumulative IPC: 0.2943 (Simulation time: 0 hr 17 min 40 sec) 
Heartbeat CPU 1 instructions: 70000002 cycles: 227740317 heartbeat IPC: 0.308697 cumulative IPC: 0.223591 (Simulation time: 0 hr 17 min 43 sec) 
Heartbeat CPU 3 instructions: 50000001 cycles: 238955982 heartbeat IPC: 0.139339 cumulative IPC: 0.114554 (Simulation time: 0 hr 18 min 19 sec) 
Heartbeat CPU 1 instructions: 80000000 cycles: 258836596 heartbeat IPC: 0.321582 cumulative IPC: 0.235717 (Simulation time: 0 hr 19 min 32 sec) 
Heartbeat CPU 0 instructions: 60000000 cycles: 271707042 heartbeat IPC: 0.12859 cumulative IPC: 0.151427 (Simulation time: 0 hr 20 min 20 sec) 
*** Reached end of trace for Core: 2 Repeating trace: /scratch/user/eshanbhatia22/THESIS/cloudsuite_traces/streaming_phase0_core2.trace.gz
Heartbeat CPU 2 instructions: 100000000 cycles: 272586045 heartbeat IPC: 0.219906 cumulative IPC: 0.281536 (Simulation time: 0 hr 20 min 24 sec) 
Heartbeat CPU 2 instructions: 110000003 cycles: 281151460 heartbeat IPC: 1.16749 cumulative IPC: 0.309272 (Simulation time: 0 hr 21 min 15 sec) 
Heartbeat CPU 3 instructions: 60000000 cycles: 292259883 heartbeat IPC: 0.187604 cumulative IPC: 0.128231 (Simulation time: 0 hr 22 min 10 sec) 
Heartbeat CPU 1 instructions: 90000003 cycles: 295092480 heartbeat IPC: 0.275817 cumulative IPC: 0.240773 (Simulation time: 0 hr 22 min 25 sec) 
Heartbeat CPU 2 instructions: 120000000 cycles: 298230128 heartbeat IPC: 0.585526 cumulative IPC: 0.325503 (Simulation time: 0 hr 22 min 38 sec) 
Finished CPU 2 instructions: 100000003 cycles: 312405270 cumulative IPC: 0.320097 (Simulation time: 0 hr 23 min 52 sec) 
Heartbeat CPU 0 instructions: 70000003 cycles: 321012197 heartbeat IPC: 0.202819 cumulative IPC: 0.15951 (Simulation time: 0 hr 23 min 55 sec) 
Heartbeat CPU 3 instructions: 70000003 cycles: 345793988 heartbeat IPC: 0.186797 cumulative IPC: 0.1375 (Simulation time: 0 hr 25 min 8 sec) 
Heartbeat CPU 2 instructions: 130000002 cycles: 349129072 heartbeat IPC: 0.196468 cumulative IPC: 0.306275 (Simulation time: 0 hr 25 min 18 sec) 
Heartbeat CPU 0 instructions: 80000000 cycles: 373085139 heartbeat IPC: 0.192038 cumulative IPC: 0.164144 (Simulation time: 0 hr 26 min 39 sec) 
*** Reached end of trace for Core: 1 Repeating trace: /scratch/user/eshanbhatia22/THESIS/cloudsuite_traces/streaming_phase0_core1.trace.gz
Heartbeat CPU 1 instructions: 100000000 cycles: 374396537 heartbeat IPC: 0.126097 cumulative IPC: 0.215983 (Simulation time: 0 hr 26 min 44 sec) 
Heartbeat CPU 1 instructions: 110000002 cycles: 384026047 heartbeat IPC: 1.03847 cumulative IPC: 0.237021 (Simulation time: 0 hr 27 min 35 sec) 
Heartbeat CPU 2 instructions: 140000000 cycles: 389941083 heartbeat IPC: 0.245026 cumulative IPC: 0.299738 (Simulation time: 0 hr 27 min 56 sec) 
Heartbeat CPU 3 instructions: 80000000 cycles: 398476780 heartbeat IPC: 0.189815 cumulative IPC: 0.14455 (Simulation time: 0 hr 28 min 23 sec) 
Heartbeat CPU 0 instructions: 90000002 cycles: 426300931 heartbeat IPC: 0.187914 cumulative IPC: 0.167165 (Simulation time: 0 hr 29 min 51 sec) 
Heartbeat CPU 2 instructions: 150000002 cycles: 434122611 heartbeat IPC: 0.226339 cumulative IPC: 0.292136 (Simulation time: 0 hr 30 min 27 sec) 
Heartbeat CPU 1 instructions: 120000000 cycles: 436636952 heartbeat IPC: 0.190075 cumulative IPC: 0.231264 (Simulation time: 0 hr 30 min 39 sec) 
Finished CPU 1 instructions: 100000002 cycles: 433160442 cumulative IPC: 0.230861 (Simulation time: 0 hr 31 min 5 sec) 
Heartbeat CPU 3 instructions: 90000000 cycles: 441980706 heartbeat IPC: 0.229864 cumulative IPC: 0.153094 (Simulation time: 0 hr 31 min 9 sec) 
Heartbeat CPU 2 instructions: 160000000 cycles: 467831790 heartbeat IPC: 0.296655 cumulative IPC: 0.292467 (Simulation time: 0 hr 32 min 30 sec) 
*** Reached end of trace for Core: 0 Repeating trace: /scratch/user/eshanbhatia22/THESIS/cloudsuite_traces/streaming_phase0_core0.trace.gz
Heartbeat CPU 0 instructions: 100000000 cycles: 479008796 heartbeat IPC: 0.189725 cumulative IPC: 0.169687 (Simulation time: 0 hr 33 min 4 sec) 
Heartbeat CPU 1 instructions: 130000000 cycles: 490423024 heartbeat IPC: 0.185922 cumulative IPC: 0.226214 (Simulation time: 0 hr 33 min 54 sec) 
Heartbeat CPU 0 instructions: 110000002 cycles: 494592692 heartbeat IPC: 0.641688 cumulative IPC: 0.18479 (Simulation time: 0 hr 34 min 4 sec) 
*** Reached end of trace for Core: 3 Repeating trace: /scratch/user/eshanbhatia22/THESIS/cloudsuite_traces/streaming_phase0_core3.trace.gz
Heartbeat CPU 3 instructions: 100000000 cycles: 495564535 heartbeat IPC: 0.186623 cumulative IPC: 0.156775 (Simulation time: 0 hr 34 min 7 sec) 
Heartbeat CPU 2 instructions: 170000002 cycles: 502237386 heartbeat IPC: 0.29065 cumulative IPC: 0.292341 (Simulation time: 0 hr 34 min 33 sec) 
Heartbeat CPU 2 instructions: 180000000 cycles: 521797762 heartbeat IPC: 0.511238 cumulative IPC: 0.300667 (Simulation time: 0 hr 35 min 35 sec) 
Heartbeat CPU 3 instructions: 110000001 cycles: 524198454 heartbeat IPC: 0.349236 cumulative IPC: 0.167442 (Simulation time: 0 hr 35 min 49 sec) 
Heartbeat CPU 3 instructions: 120000000 cycles: 535899119 heartbeat IPC: 0.854652 cumulative IPC: 0.182661 (Simulation time: 0 hr 36 min 43 sec) 
Heartbeat CPU 2 instructions: 190000000 cycles: 540477396 heartbeat IPC: 0.535342 cumulative IPC: 0.308892 (Simulation time: 0 hr 36 min 59 sec) 
Heartbeat CPU 1 instructions: 140000000 cycles: 543563788 heartbeat IPC: 0.188179 cumulative IPC: 0.222443 (Simulation time: 0 hr 37 min 8 sec) 
Heartbeat CPU 0 instructions: 120000000 cycles: 548176049 heartbeat IPC: 0.186625 cumulative IPC: 0.184972 (Simulation time: 0 hr 37 min 19 sec) 
Finished CPU 0 instructions: 100000000 cycles: 540623278 cumulative IPC: 0.184972 (Simulation time: 0 hr 37 min 19 sec) 
Finished CPU 3 instructions: 100000000 cycles: 546869185 cumulative IPC: 0.182859 (Simulation time: 0 hr 37 min 34 sec) 

CPU 0 Branch Prediction Accuracy: 97.5152% MPKI: 4.67945

CPU 1 Branch Prediction Accuracy: 97.4867% MPKI: 4.39367

CPU 2 Branch Prediction Accuracy: 97.7685% MPKI: 3.34166

CPU 3 Branch Prediction Accuracy: 97.9251% MPKI: 3.74184

ChampSim completed all CPUs

Total Simulation Statistics (not including warmup)

CPU 0 cumulative IPC: 0.184986 instructions: 101163034 cycles: 546869184
L1D TOTAL     ACCESS:   15912267  HIT:   13830268  MISS:    2081999
L1D LOAD      ACCESS:    9597789  HIT:    7973587  MISS:    1624202
L1D RFO       ACCESS:    6314478  HIT:    5856681  MISS:     457797
L1D PREFETCH  ACCESS:          0  HIT:          0  MISS:          0
L1D WRITEBACK ACCESS:          0  HIT:          0  MISS:          0
L1I TOTAL     ACCESS:   23533485  HIT:   20268309  MISS:    3265176
L1I LOAD      ACCESS:   23533485  HIT:   20268309  MISS:    3265176
L1I RFO       ACCESS:          0  HIT:          0  MISS:          0
L1I PREFETCH  ACCESS:          0  HIT:          0  MISS:          0
L1I WRITEBACK ACCESS:          0  HIT:          0  MISS:          0
L2C TOTAL     ACCESS:    9895885  HIT:    8823387  MISS:    1072498
L2C LOAD      ACCESS:    4889331  HIT:    4104184  MISS:     785147
L2C RFO       ACCESS:     457546  HIT:     255698  MISS:     201848
L2C PREFETCH  ACCESS:    3830463  HIT:    3751424  MISS:      79039
L2C WRITEBACK ACCESS:     718545  HIT:     712081  MISS:       6464
LLC TOTAL     ACCESS:    3633535  HIT:    2814513  MISS:     819022
LLC LOAD      ACCESS:     750676  HIT:     497042  MISS:     253634
LLC RFO       ACCESS:     201834  HIT:      82260  MISS:     119574
LLC PREFETCH  ACCESS:    2354022  HIT:    1909894  MISS:     444128
LLC WRITEBACK ACCESS:     327003  HIT:     325317  MISS:       1686

CPU 1 cumulative IPC: 0.221728 instructions: 121256325 cycles: 546869185
L1D TOTAL     ACCESS:   16977414  HIT:   14798973  MISS:    2178441
L1D LOAD      ACCESS:   10342521  HIT:    8672066  MISS:    1670455
L1D RFO       ACCESS:    6634893  HIT:    6126907  MISS:     507986
L1D PREFETCH  ACCESS:          0  HIT:          0  MISS:          0
L1D WRITEBACK ACCESS:          0  HIT:          0  MISS:          0
L1I TOTAL     ACCESS:   26563673  HIT:   22931839  MISS:    3631834
L1I LOAD      ACCESS:   26563673  HIT:   22931839  MISS:    3631834
L1I RFO       ACCESS:          0  HIT:          0  MISS:          0
L1I PREFETCH  ACCESS:          0  HIT:          0  MISS:          0
L1I WRITEBACK ACCESS:          0  HIT:          0  MISS:          0
L2C TOTAL     ACCESS:   10804744  HIT:    9637508  MISS:    1167236
L2C LOAD      ACCESS:    5302227  HIT:    4532116  MISS:     770111
L2C RFO       ACCESS:     507750  HIT:     281454  MISS:     226296
L2C PREFETCH  ACCESS:    4241166  HIT:    4078501  MISS:     162665
L2C WRITEBACK ACCESS:     753601  HIT:     745437  MISS:       8164
LLC TOTAL     ACCESS:    4418935  HIT:    3568454  MISS:     850481
LLC LOAD      ACCESS:     724023  HIT:     511656  MISS:     212367
LLC RFO       ACCESS:     226253  HIT:      91186  MISS:     135067
LLC PREFETCH  ACCESS:    3140967  HIT:    2640123  MISS:     500844
LLC WRITEBACK ACCESS:     327692  HIT:     325489  MISS:       2203

CPU 2 cumulative IPC: 0.306492 instructions: 167611017 cycles: 546869185
L1D TOTAL     ACCESS:   16777221  HIT:   14539325  MISS:    2237896
L1D LOAD      ACCESS:   11684751  HIT:    9806041  MISS:    1878710
L1D RFO       ACCESS:    5092470  HIT:    4733284  MISS:     359186
L1D PREFETCH  ACCESS:          0  HIT:          0  MISS:          0
L1D WRITEBACK ACCESS:          0  HIT:          0  MISS:          0
L1I TOTAL     ACCESS:   32418180  HIT:   30174999  MISS:    2243181
L1I LOAD      ACCESS:   32418180  HIT:   30174999  MISS:    2243181
L1I RFO       ACCESS:          0  HIT:          0  MISS:          0
L1I PREFETCH  ACCESS:          0  HIT:          0  MISS:          0
L1I WRITEBACK ACCESS:          0  HIT:          0  MISS:          0
L2C TOTAL     ACCESS:    7963763  HIT:    6456944  MISS:    1506819
L2C LOAD      ACCESS:    4121806  HIT:    3134007  MISS:     987799
L2C RFO       ACCESS:     359051  HIT:     234047  MISS:     125004
L2C PREFETCH  ACCESS:    2816587  HIT:    2428439  MISS:     388148
L2C WRITEBACK ACCESS:     666319  HIT:     660451  MISS:       5868
LLC TOTAL     ACCESS:    5120399  HIT:    3865888  MISS:    1254511
LLC LOAD      ACCESS:     949001  HIT:     734137  MISS:     214864
LLC RFO       ACCESS:     124983  HIT:      61962  MISS:      63021
LLC PREFETCH  ACCESS:    3780416  HIT:    2805844  MISS:     974572
LLC WRITEBACK ACCESS:     265999  HIT:     263945  MISS:       2054

CPU 3 cumulative IPC: 0.182859 instructions: 100000000 cycles: 546869185
L1D TOTAL     ACCESS:   14379862  HIT:   12482407  MISS:    1897455
L1D LOAD      ACCESS:    8900845  HIT:    7353733  MISS:    1547112
L1D RFO       ACCESS:    5479017  HIT:    5128674  MISS:     350343
L1D PREFETCH  ACCESS:          0  HIT:          0  MISS:          0
L1D WRITEBACK ACCESS:          0  HIT:          0  MISS:          0
L1I TOTAL     ACCESS:   22922636  HIT:   20517205  MISS:    2405431
L1I LOAD      ACCESS:   22922636  HIT:   20517205  MISS:    2405431
L1I RFO       ACCESS:          0  HIT:          0  MISS:          0
L1I PREFETCH  ACCESS:          0  HIT:          0  MISS:          0
L1I WRITEBACK ACCESS:          0  HIT:          0  MISS:          0
L2C TOTAL     ACCESS:    7863119  HIT:    6638642  MISS:    1224477
L2C LOAD      ACCESS:    3952450  HIT:    3012951  MISS:     939499
L2C RFO       ACCESS:     350206  HIT:     190300  MISS:     159906
L2C PREFETCH  ACCESS:    2935303  HIT:    2814269  MISS:     121034
L2C WRITEBACK ACCESS:     625160  HIT:     621122  MISS:       4038
LLC TOTAL     ACCESS:    3778728  HIT:    2881074  MISS:     897654
LLC LOAD      ACCESS:     909787  HIT:     645443  MISS:     264344
LLC RFO       ACCESS:     159896  HIT:      62394  MISS:      97502
LLC PREFETCH  ACCESS:    2367904  HIT:    1833529  MISS:     534375
LLC WRITEBACK ACCESS:     341141  HIT:     339708  MISS:       1433

Region of Interest Statistics

CPU 0 cumulative IPC: 0.184972 instructions: 100000000 cycles: 540623278
L1D TOTAL     ACCESS:   15716600  HIT:   13659374  MISS:    2057226
L1D LOAD      ACCESS:    9484473  HIT:    7877543  MISS:    1606930
L1D RFO       ACCESS:    6232127  HIT:    5781831  MISS:     450296
L1D PREFETCH  ACCESS:          0  HIT:          0  MISS:          0
L1D WRITEBACK ACCESS:          0  HIT:          0  MISS:          0
L1D PREFETCH  REQUESTED:          0  ISSUED:          0  USEFUL:          0  USELESS:          0
L1I TOTAL     ACCESS:   23264014  HIT:   20045288  MISS:    3218726
L1I LOAD      ACCESS:   23264014  HIT:   20045288  MISS:    3218726
L1I RFO       ACCESS:          0  HIT:          0  MISS:          0
L1I PREFETCH  ACCESS:          0  HIT:          0  MISS:          0
L1I WRITEBACK ACCESS:          0  HIT:          0  MISS:          0
L1I PREFETCH  REQUESTED:          0  ISSUED:          0  USEFUL:          0  USELESS:          0
L2C TOTAL     ACCESS:    9762254  HIT:    8700208  MISS:    1062046
L2C LOAD      ACCESS:    4825609  HIT:    4047143  MISS:     778466
L2C RFO       ACCESS:     450048  HIT:     251602  MISS:     198446
L2C PREFETCH  ACCESS:    3778359  HIT:    3699606  MISS:      78753
L2C WRITEBACK ACCESS:     708238  HIT:     701857  MISS:       6381
L2C PREFETCH  REQUESTED:    9159425  ISSUED:    9071227  USEFUL:     112946  USELESS:      25039
LLC TOTAL     ACCESS:    3598825  HIT:    2787944  MISS:     810881
LLC LOAD      ACCESS:     744761  HIT:     493663  MISS:     251098
LLC RFO       ACCESS:     198432  HIT:      81091  MISS:     117341
LLC PREFETCH  ACCESS:    2332463  HIT:    1891649  MISS:     440814
LLC WRITEBACK ACCESS:     323169  HIT:     321541  MISS:       1628
LLC PREFETCH  REQUESTED:          0  ISSUED:          0  USEFUL:    1311243  USELESS:    1702919
Major fault: 0 Minor fault: 17423

CPU 1 cumulative IPC: 0.230861 instructions: 100000002 cycles: 433160442
L1D TOTAL     ACCESS:   13417216  HIT:   11663723  MISS:    1753493
L1D LOAD      ACCESS:    8305898  HIT:    6942571  MISS:    1363327
L1D RFO       ACCESS:    5111318  HIT:    4721152  MISS:     390166
L1D PREFETCH  ACCESS:          0  HIT:          0  MISS:          0
L1D WRITEBACK ACCESS:          0  HIT:          0  MISS:          0
L1D PREFETCH  REQUESTED:          0  ISSUED:          0  USEFUL:          0  USELESS:          0
L1I TOTAL     ACCESS:   21655237  HIT:   18907846  MISS:    2747391
L1I LOAD      ACCESS:   21655237  HIT:   18907846  MISS:    2747391
L1I RFO       ACCESS:          0  HIT:          0  MISS:          0
L1I PREFETCH  ACCESS:          0  HIT:          0  MISS:          0
L1I WRITEBACK ACCESS:          0  HIT:          0  MISS:          0
L1I PREFETCH  REQUESTED:          0  ISSUED:          0  USEFUL:          0  USELESS:          0
L2C TOTAL     ACCESS:    8274787  HIT:    7289333  MISS:     985454
L2C LOAD      ACCESS:    4110675  HIT:    3459243  MISS:     651432
L2C RFO       ACCESS:     389984  HIT:     213790  MISS:     176194
L2C PREFETCH  ACCESS:    3187245  HIT:    3035389  MISS:     151856
L2C WRITEBACK ACCESS:     586883  HIT:     580911  MISS:       5972
L2C PREFETCH  REQUESTED:   10536641  ISSUED:   10415192  USEFUL:     202462  USELESS:      24428
LLC TOTAL     ACCESS:    3711626  HIT:    2987612  MISS:     724014
LLC LOAD      ACCESS:     614488  HIT:     440970  MISS:     173518
LLC RFO       ACCESS:     176171  HIT:      70077  MISS:     106094
LLC PREFETCH  ACCESS:    2657755  HIT:    2214706  MISS:     443049
LLC WRITEBACK ACCESS:     263212  HIT:     261859  MISS:       1353
LLC PREFETCH  REQUESTED:          0  ISSUED:          0  USEFUL:    1311243  USELESS:    1702919
Major fault: 0 Minor fault: 19035

CPU 2 cumulative IPC: 0.320097 instructions: 100000003 cycles: 312405270
L1D TOTAL     ACCESS:    9742893  HIT:    8432026  MISS:    1310867
L1D LOAD      ACCESS:    6843342  HIT:    5739643  MISS:    1103699
L1D RFO       ACCESS:    2899551  HIT:    2692383  MISS:     207168
L1D PREFETCH  ACCESS:          0  HIT:          0  MISS:          0
L1D WRITEBACK ACCESS:          0  HIT:          0  MISS:          0
L1D PREFETCH  REQUESTED:          0  ISSUED:          0  USEFUL:          0  USELESS:          0
L1I TOTAL     ACCESS:   19186045  HIT:   17902182  MISS:    1283863
L1I LOAD      ACCESS:   19186045  HIT:   17902182  MISS:    1283863
L1I RFO       ACCESS:          0  HIT:          0  MISS:          0
L1I PREFETCH  ACCESS:          0  HIT:          0  MISS:          0
L1I WRITEBACK ACCESS:          0  HIT:          0  MISS:          0
L1I PREFETCH  REQUESTED:          0  ISSUED:          0  USEFUL:          0  USELESS:          0
L2C TOTAL     ACCESS:    4571399  HIT:    3685069  MISS:     886330
L2C LOAD      ACCESS:    2387516  HIT:    1818002  MISS:     569514
L2C RFO       ACCESS:     207089  HIT:     134269  MISS:      72820
L2C PREFETCH  ACCESS:    1595520  HIT:    1354774  MISS:     240746
L2C WRITEBACK ACCESS:     381274  HIT:     378024  MISS:       3250
L2C PREFETCH  REQUESTED:    8782354  ISSUED:    8717957  USEFUL:     448276  USELESS:      26862
LLC TOTAL     ACCESS:    3155136  HIT:    2400813  MISS:     754323
LLC LOAD      ACCESS:     548089  HIT:     428028  MISS:     120061
LLC RFO       ACCESS:      72809  HIT:      35026  MISS:      37783
LLC PREFETCH  ACCESS:    2383028  HIT:    1787714  MISS:     595314
LLC WRITEBACK ACCESS:     151210  HIT:     150045  MISS:       1165
LLC PREFETCH  REQUESTED:          0  ISSUED:          0  USEFUL:    1311243  USELESS:    1702919
Major fault: 0 Minor fault: 17714

CPU 3 cumulative IPC: 0.182859 instructions: 100000000 cycles: 546869185
L1D TOTAL     ACCESS:   14379862  HIT:   12482407  MISS:    1897455
L1D LOAD      ACCESS:    8900845  HIT:    7353733  MISS:    1547112
L1D RFO       ACCESS:    5479017  HIT:    5128674  MISS:     350343
L1D PREFETCH  ACCESS:          0  HIT:          0  MISS:          0
L1D WRITEBACK ACCESS:          0  HIT:          0  MISS:          0
L1D PREFETCH  REQUESTED:          0  ISSUED:          0  USEFUL:          0  USELESS:          0
L1I TOTAL     ACCESS:   22922636  HIT:   20517205  MISS:    2405431
L1I LOAD      ACCESS:   22922636  HIT:   20517205  MISS:    2405431
L1I RFO       ACCESS:          0  HIT:          0  MISS:          0
L1I PREFETCH  ACCESS:          0  HIT:          0  MISS:          0
L1I WRITEBACK ACCESS:          0  HIT:          0  MISS:          0
L1I PREFETCH  REQUESTED:          0  ISSUED:          0  USEFUL:          0  USELESS:          0
L2C TOTAL     ACCESS:    7863119  HIT:    6638642  MISS:    1224477
L2C LOAD      ACCESS:    3952450  HIT:    3012951  MISS:     939499
L2C RFO       ACCESS:     350206  HIT:     190300  MISS:     159906
L2C PREFETCH  ACCESS:    2935303  HIT:    2814269  MISS:     121034
L2C WRITEBACK ACCESS:     625160  HIT:     621122  MISS:       4038
L2C PREFETCH  REQUESTED:    7627762  ISSUED:    7560179  USEFUL:     181335  USELESS:      19087
LLC TOTAL     ACCESS:    3778728  HIT:    2881074  MISS:     897654
LLC LOAD      ACCESS:     909787  HIT:     645443  MISS:     264344
LLC RFO       ACCESS:     159896  HIT:      62394  MISS:      97502
LLC PREFETCH  ACCESS:    2367904  HIT:    1833529  MISS:     534375
LLC WRITEBACK ACCESS:     341141  HIT:     339708  MISS:       1433
LLC PREFETCH  REQUESTED:          0  ISSUED:          0  USEFUL:    1311243  USELESS:    1702919
Major fault: 0 Minor fault: 15536

DRAM Statistics
 CHANNEL 0
 RQ ROW_BUFFER_HIT:     975324  ROW_BUFFER_MISS:     931406
 DBUS_CONGESTED:    1499113
 WQ ROW_BUFFER_HIT:      28655  ROW_BUFFER_MISS:     328656  FULL:          0

 CHANNEL 1
 RQ ROW_BUFFER_HIT:     974386  ROW_BUFFER_MISS:     932233
 DBUS_CONGESTED:    1499113
 WQ ROW_BUFFER_HIT:      28624  ROW_BUFFER_MISS:     326286  FULL:          0

 AVG_CONGESTED_CYCLE: 12
