Initialize SIGNATURE TABLE
ST_SET: 1
ST_WAY: 256
ST_TAG_BIT: 16
ST_TAG_MASK: ffff

Initialize PATTERN TABLE
PT_SET: 512
PT_WAY: 4
SIG_DELTA_BIT: 7
C_SIG_BIT: 4
C_DELTA_BIT: 4

Initialize PREFETCH FILTER
FILTER_SET: 1024

*** ChampSim Multicore Out-of-Order Simulator ***

Warmup Instructions: 20000000
Simulation Instructions: 100000000
Number of CPUs: 4
LLC sets: 8192
LLC ways: 16
Off-chip DRAM Size: 8192 MB Channels: 2 Width: 64-bit Data Rate: 1600 MT/s

CPU 0 runs /scratch/user/eshanbhatia22/THESIS/cloudsuite_traces/streaming_phase1_core0.trace.gz
CPU 1 runs /scratch/user/eshanbhatia22/THESIS/cloudsuite_traces/streaming_phase1_core1.trace.gz
CPU 2 runs /scratch/user/eshanbhatia22/THESIS/cloudsuite_traces/streaming_phase1_core2.trace.gz
CPU 3 runs /scratch/user/eshanbhatia22/THESIS/cloudsuite_traces/streaming_phase1_core3.trace.gz
Heartbeat CPU 2 instructions: 10000001 cycles: 3735159 heartbeat IPC: 2.67726 cumulative IPC: 2.67726 (Simulation time: 0 hr 1 min 40 sec) 
Heartbeat CPU 3 instructions: 10000003 cycles: 4421083 heartbeat IPC: 2.26189 cumulative IPC: 2.26189 (Simulation time: 0 hr 1 min 58 sec) 
Heartbeat CPU 1 instructions: 10000001 cycles: 4545008 heartbeat IPC: 2.20022 cumulative IPC: 2.20022 (Simulation time: 0 hr 2 min 1 sec) 
Heartbeat CPU 0 instructions: 10000003 cycles: 4589012 heartbeat IPC: 2.17912 cumulative IPC: 2.17912 (Simulation time: 0 hr 2 min 3 sec) 
Heartbeat CPU 2 instructions: 20000000 cycles: 6742370 heartbeat IPC: 3.32534 cumulative IPC: 2.96632 (Simulation time: 0 hr 3 min 11 sec) 
Heartbeat CPU 3 instructions: 20000000 cycles: 8917190 heartbeat IPC: 2.22415 cumulative IPC: 2.24286 (Simulation time: 0 hr 4 min 20 sec) 
Heartbeat CPU 1 instructions: 20000000 cycles: 9017570 heartbeat IPC: 2.23585 cumulative IPC: 2.21789 (Simulation time: 0 hr 4 min 23 sec) 
Heartbeat CPU 0 instructions: 20000000 cycles: 9043620 heartbeat IPC: 2.24487 cumulative IPC: 2.2115 (Simulation time: 0 hr 4 min 23 sec) 

Warmup complete CPU 0 instructions: 20000001 cycles: 9043631 (Simulation time: 0 hr 4 min 23 sec) 
Warmup complete CPU 1 instructions: 20058561 cycles: 9043630 (Simulation time: 0 hr 4 min 23 sec) 
Warmup complete CPU 2 instructions: 27991260 cycles: 9043630 (Simulation time: 0 hr 4 min 23 sec) 
Warmup complete CPU 3 instructions: 20277379 cycles: 9043630 (Simulation time: 0 hr 4 min 23 sec) 

Heartbeat CPU 2 instructions: 30000000 cycles: 13190711 heartbeat IPC: 1.55079 cumulative IPC: 0.484374 (Simulation time: 0 hr 4 min 40 sec) 
Heartbeat CPU 2 instructions: 40000000 cycles: 48607758 heartbeat IPC: 0.28235 cumulative IPC: 0.303526 (Simulation time: 0 hr 6 min 29 sec) 
Heartbeat CPU 3 instructions: 30000001 cycles: 60184654 heartbeat IPC: 0.195055 cumulative IPC: 0.190114 (Simulation time: 0 hr 7 min 4 sec) 
Heartbeat CPU 1 instructions: 30000003 cycles: 61198782 heartbeat IPC: 0.19164 cumulative IPC: 0.190613 (Simulation time: 0 hr 7 min 7 sec) 
Heartbeat CPU 0 instructions: 30000002 cycles: 62261603 heartbeat IPC: 0.187906 cumulative IPC: 0.187906 (Simulation time: 0 hr 7 min 11 sec) 
Heartbeat CPU 2 instructions: 50000003 cycles: 112362649 heartbeat IPC: 0.156851 cumulative IPC: 0.213017 (Simulation time: 0 hr 9 min 43 sec) 
Heartbeat CPU 3 instructions: 40000000 cycles: 112948341 heartbeat IPC: 0.189524 cumulative IPC: 0.189815 (Simulation time: 0 hr 9 min 45 sec) 
Heartbeat CPU 1 instructions: 40000000 cycles: 114074492 heartbeat IPC: 0.189123 cumulative IPC: 0.189863 (Simulation time: 0 hr 9 min 48 sec) 
Heartbeat CPU 0 instructions: 40000000 cycles: 114887971 heartbeat IPC: 0.190019 cumulative IPC: 0.188957 (Simulation time: 0 hr 9 min 51 sec) 
Heartbeat CPU 3 instructions: 50000000 cycles: 166567784 heartbeat IPC: 0.1865 cumulative IPC: 0.188686 (Simulation time: 0 hr 12 min 23 sec) 
Heartbeat CPU 2 instructions: 60000000 cycles: 166978269 heartbeat IPC: 0.183098 cumulative IPC: 0.202671 (Simulation time: 0 hr 12 min 24 sec) 
Heartbeat CPU 1 instructions: 50000002 cycles: 167731104 heartbeat IPC: 0.18637 cumulative IPC: 0.188682 (Simulation time: 0 hr 12 min 27 sec) 
Heartbeat CPU 0 instructions: 50000002 cycles: 168161915 heartbeat IPC: 0.187709 cumulative IPC: 0.188539 (Simulation time: 0 hr 12 min 28 sec) 
Heartbeat CPU 2 instructions: 70000001 cycles: 189109431 heartbeat IPC: 0.451852 cumulative IPC: 0.233297 (Simulation time: 0 hr 13 min 45 sec) 
Heartbeat CPU 3 instructions: 60000000 cycles: 219964389 heartbeat IPC: 0.187278 cumulative IPC: 0.18833 (Simulation time: 0 hr 15 min 25 sec) 
Heartbeat CPU 0 instructions: 60000000 cycles: 221383255 heartbeat IPC: 0.187895 cumulative IPC: 0.188377 (Simulation time: 0 hr 15 min 29 sec) 
Heartbeat CPU 1 instructions: 60000000 cycles: 221442142 heartbeat IPC: 0.186181 cumulative IPC: 0.18805 (Simulation time: 0 hr 15 min 29 sec) 
Heartbeat CPU 2 instructions: 80000000 cycles: 231591324 heartbeat IPC: 0.235394 cumulative IPC: 0.233697 (Simulation time: 0 hr 15 min 59 sec) 
Heartbeat CPU 0 instructions: 70000001 cycles: 246593367 heartbeat IPC: 0.396666 cumulative IPC: 0.210482 (Simulation time: 0 hr 17 min 8 sec) 
Heartbeat CPU 1 instructions: 70000000 cycles: 255976625 heartbeat IPC: 0.289566 cumulative IPC: 0.202247 (Simulation time: 0 hr 17 min 46 sec) 
Heartbeat CPU 3 instructions: 70000003 cycles: 272993940 heartbeat IPC: 0.188574 cumulative IPC: 0.188379 (Simulation time: 0 hr 18 min 41 sec) 
Heartbeat CPU 2 instructions: 90000001 cycles: 291325889 heartbeat IPC: 0.167407 cumulative IPC: 0.219669 (Simulation time: 0 hr 19 min 46 sec) 
Heartbeat CPU 0 instructions: 80000000 cycles: 295848565 heartbeat IPC: 0.203024 cumulative IPC: 0.209201 (Simulation time: 0 hr 20 min 6 sec) 
Heartbeat CPU 1 instructions: 80000000 cycles: 308989683 heartbeat IPC: 0.188633 cumulative IPC: 0.199841 (Simulation time: 0 hr 20 min 50 sec) 
Heartbeat CPU 3 instructions: 80000000 cycles: 326508867 heartbeat IPC: 0.186864 cumulative IPC: 0.188123 (Simulation time: 0 hr 21 min 50 sec) 
Heartbeat CPU 0 instructions: 90000000 cycles: 349355048 heartbeat IPC: 0.186893 cumulative IPC: 0.205694 (Simulation time: 0 hr 23 min 14 sec) 
*** Reached end of trace for Core: 2 Repeating trace: /scratch/user/eshanbhatia22/THESIS/cloudsuite_traces/streaming_phase1_core2.trace.gz
Heartbeat CPU 2 instructions: 100000000 cycles: 354406750 heartbeat IPC: 0.158527 cumulative IPC: 0.208502 (Simulation time: 0 hr 23 min 33 sec) 
Heartbeat CPU 1 instructions: 90000000 cycles: 362598590 heartbeat IPC: 0.186536 cumulative IPC: 0.197823 (Simulation time: 0 hr 24 min 10 sec) 
Heartbeat CPU 3 instructions: 90000000 cycles: 379997988 heartbeat IPC: 0.186954 cumulative IPC: 0.187955 (Simulation time: 0 hr 25 min 23 sec) 
Heartbeat CPU 2 instructions: 110000002 cycles: 392055901 heartbeat IPC: 0.26561 cumulative IPC: 0.214115 (Simulation time: 0 hr 26 min 10 sec) 
*** Reached end of trace for Core: 0 Repeating trace: /scratch/user/eshanbhatia22/THESIS/cloudsuite_traces/streaming_phase1_core0.trace.gz
Heartbeat CPU 0 instructions: 100000000 cycles: 403375379 heartbeat IPC: 0.185115 cumulative IPC: 0.202875 (Simulation time: 0 hr 27 min 1 sec) 
*** Reached end of trace for Core: 1 Repeating trace: /scratch/user/eshanbhatia22/THESIS/cloudsuite_traces/streaming_phase1_core1.trace.gz
Heartbeat CPU 2 instructions: 120000000 cycles: 415739814 heartbeat IPC: 0.422227 cumulative IPC: 0.226235 (Simulation time: 0 hr 28 min 4 sec) 
Heartbeat CPU 1 instructions: 100000000 cycles: 415888391 heartbeat IPC: 0.187653 cumulative IPC: 0.196491 (Simulation time: 0 hr 28 min 5 sec) 
Finished CPU 2 instructions: 100000003 cycles: 423540479 cumulative IPC: 0.236105 (Simulation time: 0 hr 29 min 31 sec) 
*** Reached end of trace for Core: 3 Repeating trace: /scratch/user/eshanbhatia22/THESIS/cloudsuite_traces/streaming_phase1_core3.trace.gz
Heartbeat CPU 3 instructions: 100000000 cycles: 433853734 heartbeat IPC: 0.185681 cumulative IPC: 0.187666 (Simulation time: 0 hr 29 min 38 sec) 
Heartbeat CPU 2 instructions: 130000003 cycles: 436705835 heartbeat IPC: 0.476962 cumulative IPC: 0.238526 (Simulation time: 0 hr 29 min 52 sec) 
Heartbeat CPU 0 instructions: 110000001 cycles: 454546720 heartbeat IPC: 0.195422 cumulative IPC: 0.202019 (Simulation time: 0 hr 31 min 3 sec) 
Heartbeat CPU 1 instructions: 110000002 cycles: 468495292 heartbeat IPC: 0.190089 cumulative IPC: 0.195758 (Simulation time: 0 hr 31 min 46 sec) 
Heartbeat CPU 2 instructions: 140000000 cycles: 472441848 heartbeat IPC: 0.27983 cumulative IPC: 0.241712 (Simulation time: 0 hr 31 min 57 sec) 
Heartbeat CPU 3 instructions: 110000000 cycles: 483321006 heartbeat IPC: 0.202154 cumulative IPC: 0.189178 (Simulation time: 0 hr 32 min 26 sec) 
Heartbeat CPU 0 instructions: 120000000 cycles: 507344197 heartbeat IPC: 0.189403 cumulative IPC: 0.200682 (Simulation time: 0 hr 33 min 26 sec) 
Finished CPU 0 instructions: 100000001 cycles: 498300574 cumulative IPC: 0.200682 (Simulation time: 0 hr 33 min 26 sec) 
Heartbeat CPU 1 instructions: 120000000 cycles: 521530880 heartbeat IPC: 0.188553 cumulative IPC: 0.195013 (Simulation time: 0 hr 34 min 0 sec) 
Finished CPU 1 instructions: 100000002 cycles: 512787055 cumulative IPC: 0.195013 (Simulation time: 0 hr 34 min 1 sec) 
Heartbeat CPU 3 instructions: 120000000 cycles: 535907208 heartbeat IPC: 0.190164 cumulative IPC: 0.189276 (Simulation time: 0 hr 34 min 32 sec) 
Heartbeat CPU 2 instructions: 150000000 cycles: 536166090 heartbeat IPC: 0.156926 cumulative IPC: 0.231462 (Simulation time: 0 hr 34 min 33 sec) 
Finished CPU 3 instructions: 100000000 cycles: 528289643 cumulative IPC: 0.18929 (Simulation time: 0 hr 34 min 35 sec) 

CPU 0 Branch Prediction Accuracy: 97.3744% MPKI: 4.82875

CPU 1 Branch Prediction Accuracy: 97.3213% MPKI: 4.98127

CPU 2 Branch Prediction Accuracy: 97.1966% MPKI: 4.42474

CPU 3 Branch Prediction Accuracy: 97.2413% MPKI: 5.15428

ChampSim completed all CPUs

Total Simulation Statistics (not including warmup)

CPU 0 cumulative IPC: 0.19984 instructions: 105573360 cycles: 528289642
L1D TOTAL     ACCESS:   16838735  HIT:   14836124  MISS:    2002611
L1D LOAD      ACCESS:    9776582  HIT:    8316561  MISS:    1460021
L1D RFO       ACCESS:    7062153  HIT:    6519563  MISS:     542590
L1D PREFETCH  ACCESS:          0  HIT:          0  MISS:          0
L1D WRITEBACK ACCESS:          0  HIT:          0  MISS:          0
L1I TOTAL     ACCESS:   23944538  HIT:   19828002  MISS:    4116536
L1I LOAD      ACCESS:   23944538  HIT:   19828002  MISS:    4116536
L1I RFO       ACCESS:          0  HIT:          0  MISS:          0
L1I PREFETCH  ACCESS:          0  HIT:          0  MISS:          0
L1I WRITEBACK ACCESS:          0  HIT:          0  MISS:          0
L2C TOTAL     ACCESS:   11485560  HIT:   10611677  MISS:     873883
L2C LOAD      ACCESS:    5576435  HIT:    5012571  MISS:     563864
L2C RFO       ACCESS:     542302  HIT:     306565  MISS:     235737
L2C PREFETCH  ACCESS:    4606484  HIT:    4540018  MISS:      66466
L2C WRITEBACK ACCESS:     760339  HIT:     752523  MISS:       7816
LLC TOTAL     ACCESS:    3276387  HIT:    2728547  MISS:     547840
LLC LOAD      ACCESS:     528380  HIT:     355498  MISS:     172882
LLC RFO       ACCESS:     235711  HIT:     126224  MISS:     109487
LLC PREFETCH  ACCESS:    2212111  HIT:    1947324  MISS:     264787
LLC WRITEBACK ACCESS:     300185  HIT:     299501  MISS:        684

CPU 1 cumulative IPC: 0.194942 instructions: 102985659 cycles: 528289643
L1D TOTAL     ACCESS:   16777986  HIT:   14814448  MISS:    1963538
L1D LOAD      ACCESS:    9647489  HIT:    8218455  MISS:    1429034
L1D RFO       ACCESS:    7130497  HIT:    6595993  MISS:     534504
L1D PREFETCH  ACCESS:          0  HIT:          0  MISS:          0
L1D WRITEBACK ACCESS:          0  HIT:          0  MISS:          0
L1I TOTAL     ACCESS:   23560341  HIT:   19446222  MISS:    4114119
L1I LOAD      ACCESS:   23560341  HIT:   19446222  MISS:    4114119
L1I RFO       ACCESS:          0  HIT:          0  MISS:          0
L1I PREFETCH  ACCESS:          0  HIT:          0  MISS:          0
L1I WRITEBACK ACCESS:          0  HIT:          0  MISS:          0
L2C TOTAL     ACCESS:   11471316  HIT:   10646949  MISS:     824367
L2C LOAD      ACCESS:    5543051  HIT:    5006421  MISS:     536630
L2C RFO       ACCESS:     534306  HIT:     306512  MISS:     227794
L2C PREFETCH  ACCESS:    4647918  HIT:    4596298  MISS:      51620
L2C WRITEBACK ACCESS:     746041  HIT:     737718  MISS:       8323
LLC TOTAL     ACCESS:    3122065  HIT:    2607472  MISS:     514593
LLC LOAD      ACCESS:     505072  HIT:     334188  MISS:     170884
LLC RFO       ACCESS:     227778  HIT:     124703  MISS:     103075
LLC PREFETCH  ACCESS:    2097059  HIT:    1857382  MISS:     239677
LLC WRITEBACK ACCESS:     292156  HIT:     291199  MISS:        957

CPU 2 cumulative IPC: 0.231297 instructions: 122192027 cycles: 528289643
L1D TOTAL     ACCESS:   15481574  HIT:   13559004  MISS:    1922570
L1D LOAD      ACCESS:   10000833  HIT:    8501701  MISS:    1499132
L1D RFO       ACCESS:    5480741  HIT:    5057303  MISS:     423438
L1D PREFETCH  ACCESS:          0  HIT:          0  MISS:          0
L1D WRITEBACK ACCESS:          0  HIT:          0  MISS:          0
L1I TOTAL     ACCESS:   24771832  HIT:   22037770  MISS:    2734062
L1I LOAD      ACCESS:   24771832  HIT:   22037770  MISS:    2734062
L1I RFO       ACCESS:          0  HIT:          0  MISS:          0
L1I PREFETCH  ACCESS:          0  HIT:          0  MISS:          0
L1I WRITEBACK ACCESS:          0  HIT:          0  MISS:          0
L2C TOTAL     ACCESS:    8577654  HIT:    7637294  MISS:     940360
L2C LOAD      ACCESS:    4233031  HIT:    3585143  MISS:     647888
L2C RFO       ACCESS:     423296  HIT:     290164  MISS:     133132
L2C PREFETCH  ACCESS:    3199637  HIT:    3046484  MISS:     153153
L2C WRITEBACK ACCESS:     721690  HIT:     715503  MISS:       6187
LLC TOTAL     ACCESS:    3221043  HIT:    2563327  MISS:     657716
LLC LOAD      ACCESS:     620207  HIT:     488225  MISS:     131982
LLC RFO       ACCESS:     133105  HIT:      74323  MISS:      58782
LLC PREFETCH  ACCESS:    2230010  HIT:    1764154  MISS:     465856
LLC WRITEBACK ACCESS:     237721  HIT:     236625  MISS:       1096

CPU 3 cumulative IPC: 0.18929 instructions: 100000000 cycles: 528289643
L1D TOTAL     ACCESS:   16709123  HIT:   14737043  MISS:    1972080
L1D LOAD      ACCESS:    9595827  HIT:    8172554  MISS:    1423273
L1D RFO       ACCESS:    7113296  HIT:    6564489  MISS:     548807
L1D PREFETCH  ACCESS:          0  HIT:          0  MISS:          0
L1D WRITEBACK ACCESS:          0  HIT:          0  MISS:          0
L1I TOTAL     ACCESS:   23046297  HIT:   18909921  MISS:    4136376
L1I LOAD      ACCESS:   23046297  HIT:   18909921  MISS:    4136376
L1I RFO       ACCESS:          0  HIT:          0  MISS:          0
L1I PREFETCH  ACCESS:          0  HIT:          0  MISS:          0
L1I WRITEBACK ACCESS:          0  HIT:          0  MISS:          0
L2C TOTAL     ACCESS:   11535340  HIT:   10715922  MISS:     819418
L2C LOAD      ACCESS:    5559573  HIT:    5027825  MISS:     531748
L2C RFO       ACCESS:     548534  HIT:     306645  MISS:     241889
L2C PREFETCH  ACCESS:    4667379  HIT:    4628223  MISS:      39156
L2C WRITEBACK ACCESS:     759854  HIT:     753229  MISS:       6625
LLC TOTAL     ACCESS:    3037386  HIT:    2532635  MISS:     504751
LLC LOAD      ACCESS:     494798  HIT:     324796  MISS:     170002
LLC RFO       ACCESS:     241867  HIT:     126274  MISS:     115593
LLC PREFETCH  ACCESS:    1996899  HIT:    1778584  MISS:     218315
LLC WRITEBACK ACCESS:     303822  HIT:     302981  MISS:        841

Region of Interest Statistics

CPU 0 cumulative IPC: 0.200682 instructions: 100000001 cycles: 498300574
L1D TOTAL     ACCESS:   15890550  HIT:   13988323  MISS:    1902227
L1D LOAD      ACCESS:    9242979  HIT:    7856085  MISS:    1386894
L1D RFO       ACCESS:    6647571  HIT:    6132238  MISS:     515333
L1D PREFETCH  ACCESS:          0  HIT:          0  MISS:          0
L1D WRITEBACK ACCESS:          0  HIT:          0  MISS:          0
L1D PREFETCH  REQUESTED:          0  ISSUED:          0  USEFUL:          0  USELESS:          0
L1I TOTAL     ACCESS:   22651816  HIT:   18771784  MISS:    3880032
L1I LOAD      ACCESS:   22651816  HIT:   18771784  MISS:    3880032
L1I RFO       ACCESS:          0  HIT:          0  MISS:          0
L1I PREFETCH  ACCESS:          0  HIT:          0  MISS:          0
L1I WRITEBACK ACCESS:          0  HIT:          0  MISS:          0
L1I PREFETCH  REQUESTED:          0  ISSUED:          0  USEFUL:          0  USELESS:          0
L2C TOTAL     ACCESS:   10843164  HIT:    9998629  MISS:     844535
L2C LOAD      ACCESS:    5266817  HIT:    4722371  MISS:     544446
L2C RFO       ACCESS:     515074  HIT:     288154  MISS:     226920
L2C PREFETCH  ACCESS:    4338410  HIT:    4272683  MISS:      65727
L2C WRITEBACK ACCESS:     722863  HIT:     715421  MISS:       7442
L2C PREFETCH  REQUESTED:    9652976  ISSUED:    9565623  USEFUL:      59284  USELESS:      29349
LLC TOTAL     ACCESS:    3127827  HIT:    2596311  MISS:     531516
LLC LOAD      ACCESS:     509610  HIT:     343608  MISS:     166002
LLC RFO       ACCESS:     226896  HIT:     119491  MISS:     107405
LLC PREFETCH  ACCESS:    2102207  HIT:    1844748  MISS:     257459
LLC WRITEBACK ACCESS:     289114  HIT:     288464  MISS:        650
LLC PREFETCH  REQUESTED:          0  ISSUED:          0  USEFUL:     741408  USELESS:     761406
Major fault: 0 Minor fault: 17973

CPU 1 cumulative IPC: 0.195013 instructions: 100000002 cycles: 512787055
L1D TOTAL     ACCESS:   16272318  HIT:   14361608  MISS:    1910710
L1D LOAD      ACCESS:    9365561  HIT:    7974354  MISS:    1391207
L1D RFO       ACCESS:    6906757  HIT:    6387254  MISS:     519503
L1D PREFETCH  ACCESS:          0  HIT:          0  MISS:          0
L1D WRITEBACK ACCESS:          0  HIT:          0  MISS:          0
L1D PREFETCH  REQUESTED:          0  ISSUED:          0  USEFUL:          0  USELESS:          0
L1I TOTAL     ACCESS:   22865716  HIT:   18872019  MISS:    3993697
L1I LOAD      ACCESS:   22865716  HIT:   18872019  MISS:    3993697
L1I RFO       ACCESS:          0  HIT:          0  MISS:          0
L1I PREFETCH  ACCESS:          0  HIT:          0  MISS:          0
L1I WRITEBACK ACCESS:          0  HIT:          0  MISS:          0
L1I PREFETCH  REQUESTED:          0  ISSUED:          0  USEFUL:          0  USELESS:          0
L2C TOTAL     ACCESS:   11143243  HIT:   10337226  MISS:     806017
L2C LOAD      ACCESS:    5384805  HIT:    4860055  MISS:     524750
L2C RFO       ACCESS:     519309  HIT:     297346  MISS:     221963
L2C PREFETCH  ACCESS:    4513669  HIT:    4462509  MISS:      51160
L2C WRITEBACK ACCESS:     725460  HIT:     717316  MISS:       8144
L2C PREFETCH  REQUESTED:    9569266  ISSUED:    9483181  USEFUL:      40770  USELESS:      25689
LLC TOTAL     ACCESS:    3040508  HIT:    2537013  MISS:     503495
LLC LOAD      ACCESS:     494026  HIT:     327041  MISS:     166985
LLC RFO       ACCESS:     221947  HIT:     121201  MISS:     100746
LLC PREFETCH  ACCESS:    2039374  HIT:    1804545  MISS:     234829
LLC WRITEBACK ACCESS:     285161  HIT:     284226  MISS:        935
LLC PREFETCH  REQUESTED:          0  ISSUED:          0  USEFUL:     741408  USELESS:     761406
Major fault: 0 Minor fault: 17503

CPU 2 cumulative IPC: 0.236105 instructions: 100000003 cycles: 423540479
L1D TOTAL     ACCESS:   12439531  HIT:   10893925  MISS:    1545606
L1D LOAD      ACCESS:    8078056  HIT:    6867986  MISS:    1210070
L1D RFO       ACCESS:    4361475  HIT:    4025939  MISS:     335536
L1D PREFETCH  ACCESS:          0  HIT:          0  MISS:          0
L1D WRITEBACK ACCESS:          0  HIT:          0  MISS:          0
L1D PREFETCH  REQUESTED:          0  ISSUED:          0  USEFUL:          0  USELESS:          0
L1I TOTAL     ACCESS:   20185637  HIT:   18042458  MISS:    2143179
L1I LOAD      ACCESS:   20185637  HIT:   18042458  MISS:    2143179
L1I RFO       ACCESS:          0  HIT:          0  MISS:          0
L1I PREFETCH  ACCESS:          0  HIT:          0  MISS:          0
L1I WRITEBACK ACCESS:          0  HIT:          0  MISS:          0
L1I PREFETCH  REQUESTED:          0  ISSUED:          0  USEFUL:          0  USELESS:          0
L2C TOTAL     ACCESS:    6773816  HIT:    5990052  MISS:     783764
L2C LOAD      ACCESS:    3353116  HIT:    2814036  MISS:     539080
L2C RFO       ACCESS:     335425  HIT:     226604  MISS:     108821
L2C PREFETCH  ACCESS:    2511813  HIT:    2380886  MISS:     130927
L2C WRITEBACK ACCESS:     573462  HIT:     568526  MISS:       4936
L2C PREFETCH  REQUESTED:    7111380  ISSUED:    7015166  USEFUL:     153249  USELESS:      28173
LLC TOTAL     ACCESS:    2628855  HIT:    2078264  MISS:     550591
LLC LOAD      ACCESS:     515697  HIT:     407414  MISS:     108283
LLC RFO       ACCESS:     108798  HIT:      59926  MISS:      48872
LLC PREFETCH  ACCESS:    1809030  HIT:    1416478  MISS:     392552
LLC WRITEBACK ACCESS:     195330  HIT:     194446  MISS:        884
LLC PREFETCH  REQUESTED:          0  ISSUED:          0  USEFUL:     741408  USELESS:     761406
Major fault: 0 Minor fault: 15290

CPU 3 cumulative IPC: 0.18929 instructions: 100000000 cycles: 528289643
L1D TOTAL     ACCESS:   16709123  HIT:   14737043  MISS:    1972080
L1D LOAD      ACCESS:    9595827  HIT:    8172554  MISS:    1423273
L1D RFO       ACCESS:    7113296  HIT:    6564489  MISS:     548807
L1D PREFETCH  ACCESS:          0  HIT:          0  MISS:          0
L1D WRITEBACK ACCESS:          0  HIT:          0  MISS:          0
L1D PREFETCH  REQUESTED:          0  ISSUED:          0  USEFUL:          0  USELESS:          0
L1I TOTAL     ACCESS:   23046297  HIT:   18909921  MISS:    4136376
L1I LOAD      ACCESS:   23046297  HIT:   18909921  MISS:    4136376
L1I RFO       ACCESS:          0  HIT:          0  MISS:          0
L1I PREFETCH  ACCESS:          0  HIT:          0  MISS:          0
L1I WRITEBACK ACCESS:          0  HIT:          0  MISS:          0
L1I PREFETCH  REQUESTED:          0  ISSUED:          0  USEFUL:          0  USELESS:          0
L2C TOTAL     ACCESS:   11535340  HIT:   10715922  MISS:     819418
L2C LOAD      ACCESS:    5559573  HIT:    5027825  MISS:     531748
L2C RFO       ACCESS:     548534  HIT:     306645  MISS:     241889
L2C PREFETCH  ACCESS:    4667379  HIT:    4628223  MISS:      39156
L2C WRITEBACK ACCESS:     759854  HIT:     753229  MISS:       6625
L2C PREFETCH  REQUESTED:    9499251  ISSUED:    9407389  USEFUL:      34058  USELESS:      27832
LLC TOTAL     ACCESS:    3037386  HIT:    2532635  MISS:     504751
LLC LOAD      ACCESS:     494798  HIT:     324796  MISS:     170002
LLC RFO       ACCESS:     241867  HIT:     126274  MISS:     115593
LLC PREFETCH  ACCESS:    1996899  HIT:    1778584  MISS:     218315
LLC WRITEBACK ACCESS:     303822  HIT:     302981  MISS:        841
LLC PREFETCH  REQUESTED:          0  ISSUED:          0  USEFUL:     741408  USELESS:     761406
Major fault: 0 Minor fault: 17867

DRAM Statistics
 CHANNEL 0
 RQ ROW_BUFFER_HIT:     566886  ROW_BUFFER_MISS:     544102
 DBUS_CONGESTED:     866817
 WQ ROW_BUFFER_HIT:      20451  ROW_BUFFER_MISS:     217042  FULL:          0

 CHANNEL 1
 RQ ROW_BUFFER_HIT:     566171  ROW_BUFFER_MISS:     543719
 DBUS_CONGESTED:     866817
 WQ ROW_BUFFER_HIT:      20183  ROW_BUFFER_MISS:     216573  FULL:          0

 AVG_CONGESTED_CYCLE: 12
