
*** ChampSim Multicore Out-of-Order Simulator ***

Warmup Instructions: 20000000
Simulation Instructions: 100000000
Number of CPUs: 8
LLC sets: 16384
LLC ways: 16
Off-chip DRAM Size: 8192 MB Channels: 2 Width: 64-bit Data Rate: 1600 MT/s

CPU 0 runs /scratch/user/djimenez/champsim-traces/speccpu2017/xz/623.xalancbmk_s/623.xalancbmk_s-325B.champsimtrace.xz
CPU 1 runs /scratch/user/djimenez/champsim-traces/speccpu2017/xz/627.cam4_s/627.cam4_s-490B.champsimtrace.xz
CPU 2 runs /scratch/user/djimenez/champsim-traces/speccpu2017/xz/621.wrf_s/621.wrf_s-575B.champsimtrace.xz
CPU 3 runs /scratch/user/djimenez/champsim-traces/speccpu2017/xz/641.leela_s/641.leela_s-149B.champsimtrace.xz
CPU 4 runs /scratch/user/djimenez/champsim-traces/speccpu2017/xz/648.exchange2_s/648.exchange2_s-387B.champsimtrace.xz
CPU 5 runs /scratch/user/djimenez/champsim-traces/speccpu2017/xz/603.bwaves_s/603.bwaves_s-891B.champsimtrace.xz
CPU 6 runs /scratch/user/djimenez/champsim-traces/speccpu2017/xz/603.bwaves_s/603.bwaves_s-2931B.champsimtrace.xz
CPU 7 runs /scratch/user/djimenez/champsim-traces/speccpu2017/xz/605.mcf_s/605.mcf_s-994B.champsimtrace.xz
L2C DA-AMPM prefetcher
L2C DA-AMPM prefetcher
L2C DA-AMPM prefetcher
L2C DA-AMPM prefetcher
L2C DA-AMPM prefetcher
L2C DA-AMPM prefetcher
L2C DA-AMPM prefetcher
L2C DA-AMPM prefetcher
Heartbeat CPU 5 instructions: 10000003 cycles: 3199533 heartbeat IPC: 3.12546 cumulative IPC: 3.12546 (Simulation time: 0 hr 2 min 24 sec) 
Heartbeat CPU 1 instructions: 10000002 cycles: 3993587 heartbeat IPC: 2.50401 cumulative IPC: 2.50401 (Simulation time: 0 hr 3 min 2 sec) 
Heartbeat CPU 4 instructions: 10000000 cycles: 4364098 heartbeat IPC: 2.29142 cumulative IPC: 2.29142 (Simulation time: 0 hr 3 min 19 sec) 
Heartbeat CPU 6 instructions: 10000000 cycles: 5227860 heartbeat IPC: 1.91283 cumulative IPC: 1.91283 (Simulation time: 0 hr 4 min 0 sec) 
Heartbeat CPU 2 instructions: 10000002 cycles: 5339385 heartbeat IPC: 1.87288 cumulative IPC: 1.87288 (Simulation time: 0 hr 4 min 5 sec) 
Heartbeat CPU 7 instructions: 10000000 cycles: 5597512 heartbeat IPC: 1.78651 cumulative IPC: 1.78651 (Simulation time: 0 hr 4 min 18 sec) 
Heartbeat CPU 0 instructions: 10000000 cycles: 6123936 heartbeat IPC: 1.63294 cumulative IPC: 1.63294 (Simulation time: 0 hr 4 min 43 sec) 
Heartbeat CPU 3 instructions: 10000000 cycles: 6140213 heartbeat IPC: 1.62861 cumulative IPC: 1.62861 (Simulation time: 0 hr 4 min 43 sec) 
Heartbeat CPU 5 instructions: 20000000 cycles: 6399214 heartbeat IPC: 3.12531 cumulative IPC: 3.12538 (Simulation time: 0 hr 4 min 56 sec) 
Heartbeat CPU 1 instructions: 20000000 cycles: 7765452 heartbeat IPC: 2.65121 cumulative IPC: 2.57551 (Simulation time: 0 hr 6 min 1 sec) 
Heartbeat CPU 4 instructions: 20000000 cycles: 8782807 heartbeat IPC: 2.2631 cumulative IPC: 2.27718 (Simulation time: 0 hr 6 min 48 sec) 
Heartbeat CPU 5 instructions: 30000003 cycles: 9599634 heartbeat IPC: 3.12459 cumulative IPC: 1.04171 (Simulation time: 0 hr 7 min 27 sec) 
Heartbeat CPU 6 instructions: 20000000 cycles: 10455153 heartbeat IPC: 1.91304 cumulative IPC: 1.91293 (Simulation time: 0 hr 8 min 9 sec) 
Heartbeat CPU 2 instructions: 20000000 cycles: 10707390 heartbeat IPC: 1.86289 cumulative IPC: 1.86787 (Simulation time: 0 hr 8 min 20 sec) 
Heartbeat CPU 7 instructions: 20000000 cycles: 11252175 heartbeat IPC: 1.76845 cumulative IPC: 1.77743 (Simulation time: 0 hr 8 min 46 sec) 
Heartbeat CPU 1 instructions: 30000000 cycles: 11729669 heartbeat IPC: 2.52257 cumulative IPC: 0.852539 (Simulation time: 0 hr 9 min 9 sec) 
Heartbeat CPU 0 instructions: 20000000 cycles: 12333648 heartbeat IPC: 1.61038 cumulative IPC: 1.62158 (Simulation time: 0 hr 9 min 37 sec) 
Heartbeat CPU 5 instructions: 40000000 cycles: 12799826 heartbeat IPC: 3.12481 cumulative IPC: 1.56252 (Simulation time: 0 hr 9 min 59 sec) 
Heartbeat CPU 4 instructions: 30000000 cycles: 13182822 heartbeat IPC: 2.27272 cumulative IPC: 0.758563 (Simulation time: 0 hr 10 min 16 sec) 
Heartbeat CPU 3 instructions: 20000000 cycles: 13345925 heartbeat IPC: 1.38779 cumulative IPC: 1.49858 (Simulation time: 0 hr 10 min 24 sec) 

Warmup complete CPU 0 instructions: 21570189 cycles: 13345926 (Simulation time: 0 hr 10 min 24 sec) 
Warmup complete CPU 1 instructions: 34323054 cycles: 13345926 (Simulation time: 0 hr 10 min 24 sec) 
Warmup complete CPU 2 instructions: 24836324 cycles: 13345926 (Simulation time: 0 hr 10 min 24 sec) 
Warmup complete CPU 3 instructions: 20000003 cycles: 13345926 (Simulation time: 0 hr 10 min 24 sec) 
Warmup complete CPU 4 instructions: 30362020 cycles: 13345925 (Simulation time: 0 hr 10 min 24 sec) 
Warmup complete CPU 5 instructions: 41699956 cycles: 13345925 (Simulation time: 0 hr 10 min 24 sec) 
Warmup complete CPU 6 instructions: 25529615 cycles: 13345925 (Simulation time: 0 hr 10 min 24 sec) 
Warmup complete CPU 7 instructions: 23744043 cycles: 13345925 (Simulation time: 0 hr 10 min 24 sec) 

Heartbeat CPU 6 instructions: 30000000 cycles: 17671110 heartbeat IPC: 1.38582 cumulative IPC: 1.03357 (Simulation time: 0 hr 12 min 18 sec) 
Heartbeat CPU 1 instructions: 40000000 cycles: 18776718 heartbeat IPC: 1.41903 cumulative IPC: 1.04533 (Simulation time: 0 hr 12 min 47 sec) 
Heartbeat CPU 5 instructions: 50000001 cycles: 22089725 heartbeat IPC: 1.07644 cumulative IPC: 0.949249 (Simulation time: 0 hr 14 min 4 sec) 
Heartbeat CPU 2 instructions: 30000000 cycles: 22171363 heartbeat IPC: 0.872298 cumulative IPC: 0.58509 (Simulation time: 0 hr 14 min 6 sec) 
Heartbeat CPU 4 instructions: 40000000 cycles: 22494148 heartbeat IPC: 1.07396 cumulative IPC: 1.05354 (Simulation time: 0 hr 14 min 14 sec) 
Heartbeat CPU 6 instructions: 40000000 cycles: 26974076 heartbeat IPC: 1.07493 cumulative IPC: 1.0618 (Simulation time: 0 hr 15 min 58 sec) 
Heartbeat CPU 1 instructions: 50000000 cycles: 28029539 heartbeat IPC: 1.08075 cumulative IPC: 1.06765 (Simulation time: 0 hr 16 min 22 sec) 
Heartbeat CPU 5 instructions: 60000000 cycles: 31319410 heartbeat IPC: 1.08346 cumulative IPC: 1.01817 (Simulation time: 0 hr 17 min 39 sec) 
Heartbeat CPU 4 instructions: 50000001 cycles: 32203097 heartbeat IPC: 1.02998 cumulative IPC: 1.04141 (Simulation time: 0 hr 18 min 1 sec) 
Heartbeat CPU 0 instructions: 30000001 cycles: 34867497 heartbeat IPC: 0.443777 cumulative IPC: 0.391691 (Simulation time: 0 hr 19 min 6 sec) 
Heartbeat CPU 6 instructions: 50000002 cycles: 36189196 heartbeat IPC: 1.08517 cumulative IPC: 1.07123 (Simulation time: 0 hr 19 min 38 sec) 
Heartbeat CPU 1 instructions: 60000000 cycles: 37813560 heartbeat IPC: 1.02207 cumulative IPC: 1.04943 (Simulation time: 0 hr 20 min 17 sec) 
Heartbeat CPU 3 instructions: 30000001 cycles: 38436658 heartbeat IPC: 0.398554 cumulative IPC: 0.398553 (Simulation time: 0 hr 20 min 32 sec) 
Heartbeat CPU 2 instructions: 40000000 cycles: 39439939 heartbeat IPC: 0.579087 cumulative IPC: 0.581117 (Simulation time: 0 hr 20 min 55 sec) 
Heartbeat CPU 5 instructions: 70000000 cycles: 40500038 heartbeat IPC: 1.08925 cumulative IPC: 1.0422 (Simulation time: 0 hr 21 min 20 sec) 
Heartbeat CPU 7 instructions: 30000000 cycles: 41079165 heartbeat IPC: 0.335267 cumulative IPC: 0.225576 (Simulation time: 0 hr 21 min 33 sec) 
Heartbeat CPU 4 instructions: 60000000 cycles: 42336466 heartbeat IPC: 0.986839 cumulative IPC: 1.02233 (Simulation time: 0 hr 22 min 5 sec) 
Heartbeat CPU 6 instructions: 60000000 cycles: 45410115 heartbeat IPC: 1.08449 cumulative IPC: 1.07504 (Simulation time: 0 hr 23 min 20 sec) 
Heartbeat CPU 1 instructions: 70000000 cycles: 46678122 heartbeat IPC: 1.12809 cumulative IPC: 1.07034 (Simulation time: 0 hr 23 min 51 sec) 
Heartbeat CPU 5 instructions: 80000000 cycles: 49318712 heartbeat IPC: 1.13396 cumulative IPC: 1.06469 (Simulation time: 0 hr 25 min 4 sec) 
Heartbeat CPU 4 instructions: 70000003 cycles: 52333893 heartbeat IPC: 1.00026 cumulative IPC: 1.01667 (Simulation time: 0 hr 26 min 26 sec) 
Heartbeat CPU 6 instructions: 70000001 cycles: 54642964 heartbeat IPC: 1.08309 cumulative IPC: 1.07684 (Simulation time: 0 hr 27 min 26 sec) 
Heartbeat CPU 1 instructions: 80000000 cycles: 56442756 heartbeat IPC: 1.0241 cumulative IPC: 1.05987 (Simulation time: 0 hr 28 min 9 sec) 
Heartbeat CPU 2 instructions: 50000001 cycles: 56687402 heartbeat IPC: 0.579795 cumulative IPC: 0.580591 (Simulation time: 0 hr 28 min 16 sec) 
Heartbeat CPU 5 instructions: 90000000 cycles: 58372857 heartbeat IPC: 1.10447 cumulative IPC: 1.07269 (Simulation time: 0 hr 29 min 4 sec) 
Heartbeat CPU 0 instructions: 40000000 cycles: 58698200 heartbeat IPC: 0.419627 cumulative IPC: 0.40637 (Simulation time: 0 hr 29 min 12 sec) 
Heartbeat CPU 4 instructions: 80000000 cycles: 62457746 heartbeat IPC: 0.987766 cumulative IPC: 1.01071 (Simulation time: 0 hr 30 min 56 sec) 
Heartbeat CPU 3 instructions: 40000000 cycles: 62509995 heartbeat IPC: 0.415397 cumulative IPC: 0.406801 (Simulation time: 0 hr 30 min 58 sec) 
Heartbeat CPU 6 instructions: 80000000 cycles: 63805550 heartbeat IPC: 1.09139 cumulative IPC: 1.07948 (Simulation time: 0 hr 31 min 37 sec) 
Heartbeat CPU 1 instructions: 90000002 cycles: 65475642 heartbeat IPC: 1.10707 cumulative IPC: 1.06805 (Simulation time: 0 hr 32 min 22 sec) 
Heartbeat CPU 5 instructions: 100000000 cycles: 67326796 heartbeat IPC: 1.11683 cumulative IPC: 1.08001 (Simulation time: 0 hr 33 min 12 sec) 
Heartbeat CPU 4 instructions: 90000001 cycles: 72190434 heartbeat IPC: 1.02747 cumulative IPC: 1.01348 (Simulation time: 0 hr 35 min 32 sec) 
Heartbeat CPU 7 instructions: 40000000 cycles: 72675547 heartbeat IPC: 0.316492 cumulative IPC: 0.273994 (Simulation time: 0 hr 35 min 48 sec) 
Heartbeat CPU 6 instructions: 90000002 cycles: 73048665 heartbeat IPC: 1.08189 cumulative IPC: 1.07986 (Simulation time: 0 hr 35 min 59 sec) 
Heartbeat CPU 2 instructions: 60000000 cycles: 73943891 heartbeat IPC: 0.579492 cumulative IPC: 0.580278 (Simulation time: 0 hr 36 min 23 sec) 
Heartbeat CPU 0 instructions: 50000001 cycles: 74202022 heartbeat IPC: 0.645002 cumulative IPC: 0.467165 (Simulation time: 0 hr 36 min 30 sec) 
Heartbeat CPU 1 instructions: 100000000 cycles: 75075042 heartbeat IPC: 1.04173 cumulative IPC: 1.06395 (Simulation time: 0 hr 36 min 55 sec) 
Heartbeat CPU 5 instructions: 110000002 cycles: 76004282 heartbeat IPC: 1.15241 cumulative IPC: 1.09004 (Simulation time: 0 hr 37 min 18 sec) 
Heartbeat CPU 4 instructions: 100000000 cycles: 82075404 heartbeat IPC: 1.01164 cumulative IPC: 1.01322 (Simulation time: 0 hr 40 min 10 sec) 
Heartbeat CPU 6 instructions: 100000000 cycles: 82179723 heartbeat IPC: 1.09516 cumulative IPC: 1.08189 (Simulation time: 0 hr 40 min 13 sec) 
Heartbeat CPU 1 instructions: 110000001 cycles: 84468971 heartbeat IPC: 1.06452 cumulative IPC: 1.06403 (Simulation time: 0 hr 41 min 15 sec) 
Heartbeat CPU 5 instructions: 120000000 cycles: 85050768 heartbeat IPC: 1.1054 cumulative IPC: 1.09198 (Simulation time: 0 hr 41 min 30 sec) 
Heartbeat CPU 3 instructions: 50000000 cycles: 86363412 heartbeat IPC: 0.419227 cumulative IPC: 0.41086 (Simulation time: 0 hr 42 min 3 sec) 
Heartbeat CPU 0 instructions: 60000000 cycles: 91095965 heartbeat IPC: 0.591928 cumulative IPC: 0.494274 (Simulation time: 0 hr 43 min 58 sec) 
Heartbeat CPU 2 instructions: 70000000 cycles: 91129721 heartbeat IPC: 0.581875 cumulative IPC: 0.580631 (Simulation time: 0 hr 43 min 59 sec) 
Heartbeat CPU 6 instructions: 110000000 cycles: 91406305 heartbeat IPC: 1.08382 cumulative IPC: 1.08212 (Simulation time: 0 hr 44 min 5 sec) 
Heartbeat CPU 4 instructions: 110000003 cycles: 91635097 heartbeat IPC: 1.04606 cumulative IPC: 1.01723 (Simulation time: 0 hr 44 min 10 sec) 
Heartbeat CPU 1 instructions: 120000000 cycles: 94089716 heartbeat IPC: 1.03942 cumulative IPC: 1.0611 (Simulation time: 0 hr 45 min 4 sec) 
Heartbeat CPU 5 instructions: 130000001 cycles: 94490998 heartbeat IPC: 1.0593 cumulative IPC: 1.08818 (Simulation time: 0 hr 45 min 12 sec) 
Heartbeat CPU 6 instructions: 120000000 cycles: 100599142 heartbeat IPC: 1.0878 cumulative IPC: 1.08272 (Simulation time: 0 hr 47 min 39 sec) 
Heartbeat CPU 4 instructions: 120000000 cycles: 101577223 heartbeat IPC: 1.00582 cumulative IPC: 1.01594 (Simulation time: 0 hr 48 min 3 sec) 
Heartbeat CPU 1 instructions: 130000001 cycles: 103690781 heartbeat IPC: 1.04155 cumulative IPC: 1.05902 (Simulation time: 0 hr 48 min 48 sec) 
Heartbeat CPU 5 instructions: 140000000 cycles: 104042289 heartbeat IPC: 1.04698 cumulative IPC: 1.08384 (Simulation time: 0 hr 48 min 55 sec) 
Finished CPU 5 instructions: 100000003 cycles: 92302875 cumulative IPC: 1.08339 (Simulation time: 0 hr 49 min 30 sec) 
Finished CPU 6 instructions: 100000001 cycles: 92370939 cumulative IPC: 1.08259 (Simulation time: 0 hr 49 min 32 sec) 
Finished CPU 1 instructions: 100000003 cycles: 94605396 cumulative IPC: 1.05702 (Simulation time: 0 hr 50 min 20 sec) 
Heartbeat CPU 2 instructions: 80000000 cycles: 108226330 heartbeat IPC: 0.584911 cumulative IPC: 0.581402 (Simulation time: 0 hr 50 min 26 sec) 
Heartbeat CPU 6 instructions: 130000001 cycles: 109856867 heartbeat IPC: 1.08018 cumulative IPC: 1.08247 (Simulation time: 0 hr 51 min 2 sec) 
Heartbeat CPU 3 instructions: 60000000 cycles: 110065182 heartbeat IPC: 0.421909 cumulative IPC: 0.413568 (Simulation time: 0 hr 51 min 7 sec) 
Heartbeat CPU 4 instructions: 130000002 cycles: 111479086 heartbeat IPC: 1.00991 cumulative IPC: 1.01533 (Simulation time: 0 hr 51 min 38 sec) 
Finished CPU 4 instructions: 100000002 cycles: 98546233 cumulative IPC: 1.01475 (Simulation time: 0 hr 51 min 49 sec) 
Heartbeat CPU 1 instructions: 140000000 cycles: 113292462 heartbeat IPC: 1.04148 cumulative IPC: 1.05733 (Simulation time: 0 hr 52 min 23 sec) 
Heartbeat CPU 5 instructions: 150000000 cycles: 113485197 heartbeat IPC: 1.059 cumulative IPC: 1.08149 (Simulation time: 0 hr 52 min 27 sec) 
Heartbeat CPU 0 instructions: 70000000 cycles: 118286630 heartbeat IPC: 0.367773 cumulative IPC: 0.461497 (Simulation time: 0 hr 54 min 27 sec) 
Heartbeat CPU 6 instructions: 140000000 cycles: 119127744 heartbeat IPC: 1.07865 cumulative IPC: 1.08214 (Simulation time: 0 hr 54 min 48 sec) 
Heartbeat CPU 4 instructions: 140000000 cycles: 121497833 heartbeat IPC: 0.998129 cumulative IPC: 1.01374 (Simulation time: 0 hr 55 min 42 sec) 
Heartbeat CPU 1 instructions: 150000001 cycles: 122868739 heartbeat IPC: 1.04425 cumulative IPC: 1.05619 (Simulation time: 0 hr 56 min 16 sec) 
Heartbeat CPU 5 instructions: 160000000 cycles: 123018448 heartbeat IPC: 1.04896 cumulative IPC: 1.07867 (Simulation time: 0 hr 56 min 19 sec) 
Heartbeat CPU 2 instructions: 90000002 cycles: 125416850 heartbeat IPC: 0.581716 cumulative IPC: 0.58145 (Simulation time: 0 hr 57 min 20 sec) 
Heartbeat CPU 6 instructions: 150000002 cycles: 128366865 heartbeat IPC: 1.08235 cumulative IPC: 1.08215 (Simulation time: 0 hr 58 min 36 sec) 
Heartbeat CPU 4 instructions: 150000000 cycles: 131048711 heartbeat IPC: 1.04702 cumulative IPC: 1.01644 (Simulation time: 0 hr 59 min 41 sec) 
Heartbeat CPU 5 instructions: 170000003 cycles: 132143626 heartbeat IPC: 1.09587 cumulative IPC: 1.07999 (Simulation time: 1 hr 0 min 8 sec) 
Heartbeat CPU 1 instructions: 160000000 cycles: 132541659 heartbeat IPC: 1.03381 cumulative IPC: 1.05437 (Simulation time: 1 hr 0 min 18 sec) 
Heartbeat CPU 3 instructions: 70000003 cycles: 133715746 heartbeat IPC: 0.422823 cumulative IPC: 0.415387 (Simulation time: 1 hr 0 min 47 sec) 
Heartbeat CPU 6 instructions: 160000000 cycles: 137623090 heartbeat IPC: 1.08035 cumulative IPC: 1.08202 (Simulation time: 1 hr 2 min 18 sec) 
Heartbeat CPU 4 instructions: 160000000 cycles: 138463613 heartbeat IPC: 1.34864 cumulative IPC: 1.03613 (Simulation time: 1 hr 2 min 36 sec) 
Heartbeat CPU 5 instructions: 180000000 cycles: 141830440 heartbeat IPC: 1.03233 cumulative IPC: 1.07639 (Simulation time: 1 hr 3 min 54 sec) 
Heartbeat CPU 1 instructions: 170000001 cycles: 142376331 heartbeat IPC: 1.01681 cumulative IPC: 1.05151 (Simulation time: 1 hr 4 min 7 sec) 
Heartbeat CPU 2 instructions: 100000000 cycles: 142544813 heartbeat IPC: 0.58384 cumulative IPC: 0.581767 (Simulation time: 1 hr 4 min 11 sec) 
Heartbeat CPU 6 instructions: 170000002 cycles: 146875569 heartbeat IPC: 1.08079 cumulative IPC: 1.08193 (Simulation time: 1 hr 5 min 49 sec) 
Heartbeat CPU 0 instructions: 80000000 cycles: 147452638 heartbeat IPC: 0.342865 cumulative IPC: 0.435696 (Simulation time: 1 hr 6 min 1 sec) 
Heartbeat CPU 4 instructions: 170000002 cycles: 148185412 heartbeat IPC: 1.02862 cumulative IPC: 1.03559 (Simulation time: 1 hr 6 min 16 sec) 
Heartbeat CPU 1 instructions: 180000000 cycles: 151894795 heartbeat IPC: 1.05059 cumulative IPC: 1.05145 (Simulation time: 1 hr 7 min 37 sec) 
Heartbeat CPU 5 instructions: 190000001 cycles: 152332279 heartbeat IPC: 0.952214 cumulative IPC: 1.06701 (Simulation time: 1 hr 7 min 46 sec) 
Heartbeat CPU 6 instructions: 180000000 cycles: 156232975 heartbeat IPC: 1.06867 cumulative IPC: 1.08107 (Simulation time: 1 hr 9 min 10 sec) 
Heartbeat CPU 7 instructions: 50000000 cycles: 156498886 heartbeat IPC: 0.119299 cumulative IPC: 0.183412 (Simulation time: 1 hr 9 min 15 sec) 
Heartbeat CPU 3 instructions: 80000000 cycles: 157368559 heartbeat IPC: 0.422783 cumulative IPC: 0.416601 (Simulation time: 1 hr 9 min 34 sec) 
Heartbeat CPU 4 instructions: 180000000 cycles: 157635886 heartbeat IPC: 1.05815 cumulative IPC: 1.03706 (Simulation time: 1 hr 9 min 40 sec) 
Heartbeat CPU 2 instructions: 110000001 cycles: 159594638 heartbeat IPC: 0.586516 cumulative IPC: 0.582321 (Simulation time: 1 hr 10 min 21 sec) 
Heartbeat CPU 1 instructions: 190000000 cycles: 161986247 heartbeat IPC: 0.990938 cumulative IPC: 1.04734 (Simulation time: 1 hr 11 min 13 sec) 
Heartbeat CPU 5 instructions: 200000000 cycles: 164029862 heartbeat IPC: 0.854877 cumulative IPC: 1.05054 (Simulation time: 1 hr 11 min 57 sec) 
Heartbeat CPU 6 instructions: 190000003 cycles: 165535288 heartbeat IPC: 1.075 cumulative IPC: 1.0807 (Simulation time: 1 hr 12 min 30 sec) 
Heartbeat CPU 4 instructions: 190000002 cycles: 167243520 heartbeat IPC: 1.04084 cumulative IPC: 1.0373 (Simulation time: 1 hr 13 min 7 sec) 
Heartbeat CPU 1 instructions: 200000000 cycles: 171559047 heartbeat IPC: 1.04463 cumulative IPC: 1.04718 (Simulation time: 1 hr 14 min 39 sec) 
Heartbeat CPU 6 instructions: 200000000 cycles: 174859013 heartbeat IPC: 1.07253 cumulative IPC: 1.08022 (Simulation time: 1 hr 15 min 51 sec) 
Heartbeat CPU 5 instructions: 210000000 cycles: 175416774 heartbeat IPC: 0.878201 cumulative IPC: 1.03843 (Simulation time: 1 hr 16 min 4 sec) 
Heartbeat CPU 0 instructions: 90000002 cycles: 175768651 heartbeat IPC: 0.353157 cumulative IPC: 0.421307 (Simulation time: 1 hr 16 min 11 sec) 
Heartbeat CPU 2 instructions: 120000000 cycles: 176405499 heartbeat IPC: 0.594853 cumulative IPC: 0.583613 (Simulation time: 1 hr 16 min 25 sec) 
Heartbeat CPU 4 instructions: 200000000 cycles: 176504804 heartbeat IPC: 1.07976 cumulative IPC: 1.03971 (Simulation time: 1 hr 16 min 27 sec) 
Heartbeat CPU 3 instructions: 90000000 cycles: 180927854 heartbeat IPC: 0.424461 cumulative IPC: 0.417706 (Simulation time: 1 hr 18 min 7 sec) 
Heartbeat CPU 1 instructions: 210000003 cycles: 181673517 heartbeat IPC: 0.988683 cumulative IPC: 1.04366 (Simulation time: 1 hr 18 min 25 sec) 
Heartbeat CPU 6 instructions: 210000002 cycles: 184128399 heartbeat IPC: 1.07882 cumulative IPC: 1.08015 (Simulation time: 1 hr 19 min 23 sec) 
Heartbeat CPU 4 instructions: 210000000 cycles: 184270640 heartbeat IPC: 1.28769 cumulative IPC: 1.05098 (Simulation time: 1 hr 19 min 26 sec) 
Finished CPU 2 instructions: 100000001 cycles: 171188252 cumulative IPC: 0.584152 (Simulation time: 1 hr 19 min 33 sec) 
Heartbeat CPU 5 instructions: 220000000 cycles: 186584610 heartbeat IPC: 0.895429 cumulative IPC: 1.02922 (Simulation time: 1 hr 20 min 21 sec) 
Heartbeat CPU 1 instructions: 220000000 cycles: 191405989 heartbeat IPC: 1.02749 cumulative IPC: 1.04278 (Simulation time: 1 hr 22 min 12 sec) 
Heartbeat CPU 4 instructions: 220000000 cycles: 191838744 heartbeat IPC: 1.32133 cumulative IPC: 1.06244 (Simulation time: 1 hr 22 min 21 sec) 
Heartbeat CPU 2 instructions: 130000002 cycles: 193293667 heartbeat IPC: 0.592131 cumulative IPC: 0.584412 (Simulation time: 1 hr 22 min 54 sec) 
Heartbeat CPU 6 instructions: 220000000 cycles: 193426496 heartbeat IPC: 1.07549 cumulative IPC: 1.07991 (Simulation time: 1 hr 22 min 56 sec) 
Heartbeat CPU 5 instructions: 230000000 cycles: 197847631 heartbeat IPC: 0.887861 cumulative IPC: 1.02059 (Simulation time: 1 hr 24 min 41 sec) 
Heartbeat CPU 4 instructions: 230000000 cycles: 199278402 heartbeat IPC: 1.34415 cumulative IPC: 1.07371 (Simulation time: 1 hr 25 min 16 sec) 
Heartbeat CPU 0 instructions: 100000000 cycles: 200889802 heartbeat IPC: 0.398071 cumulative IPC: 0.418194 (Simulation time: 1 hr 25 min 53 sec) 
Heartbeat CPU 7 instructions: 60000000 cycles: 201133938 heartbeat IPC: 0.224039 cumulative IPC: 0.193069 (Simulation time: 1 hr 25 min 59 sec) 
Heartbeat CPU 1 instructions: 230000001 cycles: 201599167 heartbeat IPC: 0.981048 cumulative IPC: 1.03943 (Simulation time: 1 hr 26 min 10 sec) 
Heartbeat CPU 6 instructions: 230000003 cycles: 202696472 heartbeat IPC: 1.07875 cumulative IPC: 1.07985 (Simulation time: 1 hr 26 min 37 sec) 
Heartbeat CPU 3 instructions: 100000000 cycles: 204540665 heartbeat IPC: 0.423499 cumulative IPC: 0.418422 (Simulation time: 1 hr 27 min 17 sec) 
Heartbeat CPU 4 instructions: 240000000 cycles: 205598558 heartbeat IPC: 1.58224 cumulative IPC: 1.09043 (Simulation time: 1 hr 27 min 40 sec) 
Heartbeat CPU 5 instructions: 240000000 cycles: 209147294 heartbeat IPC: 0.884982 cumulative IPC: 1.01276 (Simulation time: 1 hr 28 min 53 sec) 
Heartbeat CPU 2 instructions: 140000000 cycles: 210147226 heartbeat IPC: 0.593346 cumulative IPC: 0.585177 (Simulation time: 1 hr 29 min 14 sec) 
Heartbeat CPU 1 instructions: 240000000 cycles: 211470681 heartbeat IPC: 1.01302 cumulative IPC: 1.03812 (Simulation time: 1 hr 29 min 41 sec) 
Heartbeat CPU 6 instructions: 240000000 cycles: 212040031 heartbeat IPC: 1.07026 cumulative IPC: 1.0794 (Simulation time: 1 hr 29 min 53 sec) 
Heartbeat CPU 4 instructions: 250000003 cycles: 214531175 heartbeat IPC: 1.11949 cumulative IPC: 1.09172 (Simulation time: 1 hr 30 min 44 sec) 
Heartbeat CPU 5 instructions: 250000003 cycles: 220461819 heartbeat IPC: 0.88382 cumulative IPC: 1.00572 (Simulation time: 1 hr 32 min 46 sec) 
Heartbeat CPU 1 instructions: 250000001 cycles: 221305692 heartbeat IPC: 1.01678 cumulative IPC: 1.03711 (Simulation time: 1 hr 33 min 3 sec) 
Heartbeat CPU 6 instructions: 250000000 cycles: 221317900 heartbeat IPC: 1.07783 cumulative IPC: 1.07933 (Simulation time: 1 hr 33 min 4 sec) 
Heartbeat CPU 0 instructions: 110000000 cycles: 223304417 heartbeat IPC: 0.446137 cumulative IPC: 0.421178 (Simulation time: 1 hr 33 min 45 sec) 
Heartbeat CPU 4 instructions: 260000000 cycles: 224364148 heartbeat IPC: 1.01699 cumulative IPC: 1.08824 (Simulation time: 1 hr 34 min 8 sec) 
Heartbeat CPU 2 instructions: 150000001 cycles: 226760502 heartbeat IPC: 0.601928 cumulative IPC: 0.586481 (Simulation time: 1 hr 34 min 59 sec) 
Heartbeat CPU 3 instructions: 110000000 cycles: 228289166 heartbeat IPC: 0.421079 cumulative IPC: 0.418715 (Simulation time: 1 hr 35 min 31 sec) 
Heartbeat CPU 6 instructions: 260000000 cycles: 230618735 heartbeat IPC: 1.07517 cumulative IPC: 1.07915 (Simulation time: 1 hr 36 min 22 sec) 
Heartbeat CPU 1 instructions: 260000000 cycles: 231524023 heartbeat IPC: 0.978633 cumulative IPC: 1.03437 (Simulation time: 1 hr 36 min 42 sec) 
Heartbeat CPU 5 instructions: 260000000 cycles: 231762776 heartbeat IPC: 0.884881 cumulative IPC: 0.999465 (Simulation time: 1 hr 36 min 48 sec) 
Heartbeat CPU 4 instructions: 270000000 cycles: 234273029 heartbeat IPC: 1.0092 cumulative IPC: 1.08469 (Simulation time: 1 hr 37 min 47 sec) 
Heartbeat CPU 0 instructions: 120000000 cycles: 237605420 heartbeat IPC: 0.699252 cumulative IPC: 0.43891 (Simulation time: 1 hr 39 min 4 sec) 
Heartbeat CPU 6 instructions: 270000000 cycles: 239822037 heartbeat IPC: 1.08657 cumulative IPC: 1.07945 (Simulation time: 1 hr 39 min 56 sec) 
Finished CPU 0 instructions: 100000002 cycles: 226770922 cumulative IPC: 0.440974 (Simulation time: 1 hr 40 min 3 sec) 
Heartbeat CPU 1 instructions: 270000000 cycles: 241058550 heartbeat IPC: 1.04882 cumulative IPC: 1.03498 (Simulation time: 1 hr 40 min 25 sec) 
Heartbeat CPU 5 instructions: 270000003 cycles: 242598418 heartbeat IPC: 0.922881 cumulative IPC: 0.995845 (Simulation time: 1 hr 41 min 1 sec) 
Heartbeat CPU 4 instructions: 280000000 cycles: 243212503 heartbeat IPC: 1.11863 cumulative IPC: 1.08601 (Simulation time: 1 hr 41 min 15 sec) 
Heartbeat CPU 2 instructions: 160000000 cycles: 243431901 heartbeat IPC: 0.59983 cumulative IPC: 0.587449 (Simulation time: 1 hr 41 min 20 sec) 
Heartbeat CPU 6 instructions: 280000000 cycles: 249139624 heartbeat IPC: 1.07324 cumulative IPC: 1.07921 (Simulation time: 1 hr 43 min 26 sec) 
Heartbeat CPU 1 instructions: 280000000 cycles: 251447028 heartbeat IPC: 0.962605 cumulative IPC: 1.03182 (Simulation time: 1 hr 44 min 19 sec) 
Heartbeat CPU 3 instructions: 120000000 cycles: 251914576 heartbeat IPC: 0.423273 cumulative IPC: 0.419167 (Simulation time: 1 hr 44 min 29 sec) 
Finished CPU 3 instructions: 100000000 cycles: 238568666 cumulative IPC: 0.419167 (Simulation time: 1 hr 44 min 29 sec) 
Heartbeat CPU 4 instructions: 290000001 cycles: 252211058 heartbeat IPC: 1.11129 cumulative IPC: 1.08696 (Simulation time: 1 hr 44 min 36 sec) 
Heartbeat CPU 7 instructions: 70000001 cycles: 252658175 heartbeat IPC: 0.194083 cumulative IPC: 0.193287 (Simulation time: 1 hr 44 min 46 sec) 
Heartbeat CPU 5 instructions: 280000000 cycles: 254204745 heartbeat IPC: 0.861599 cumulative IPC: 0.989376 (Simulation time: 1 hr 45 min 20 sec) 
Heartbeat CPU 0 instructions: 130000000 cycles: 257927337 heartbeat IPC: 0.49208 cumulative IPC: 0.443328 (Simulation time: 1 hr 46 min 43 sec) 
Heartbeat CPU 6 instructions: 290000002 cycles: 258366064 heartbeat IPC: 1.08384 cumulative IPC: 1.07938 (Simulation time: 1 hr 46 min 53 sec) 
Heartbeat CPU 2 instructions: 170000000 cycles: 260051635 heartbeat IPC: 0.601694 cumulative IPC: 0.588408 (Simulation time: 1 hr 47 min 29 sec) 
Heartbeat CPU 4 instructions: 300000000 cycles: 260994051 heartbeat IPC: 1.13856 cumulative IPC: 1.08879 (Simulation time: 1 hr 47 min 51 sec) 
Heartbeat CPU 1 instructions: 290000001 cycles: 261159200 heartbeat IPC: 1.02964 cumulative IPC: 1.03173 (Simulation time: 1 hr 47 min 54 sec) 
Heartbeat CPU 5 instructions: 290000002 cycles: 265592369 heartbeat IPC: 0.878146 cumulative IPC: 0.984355 (Simulation time: 1 hr 49 min 42 sec) 
Heartbeat CPU 6 instructions: 300000000 cycles: 267622841 heartbeat IPC: 1.08029 cumulative IPC: 1.07942 (Simulation time: 1 hr 50 min 35 sec) 
Heartbeat CPU 4 instructions: 310000002 cycles: 269171499 heartbeat IPC: 1.22288 cumulative IPC: 1.09308 (Simulation time: 1 hr 51 min 10 sec) 
Heartbeat CPU 1 instructions: 300000000 cycles: 271167395 heartbeat IPC: 0.999181 cumulative IPC: 1.03047 (Simulation time: 1 hr 51 min 56 sec) 
Heartbeat CPU 3 instructions: 130000001 cycles: 275559986 heartbeat IPC: 0.422915 cumulative IPC: 0.419505 (Simulation time: 1 hr 53 min 41 sec) 
Heartbeat CPU 4 instructions: 320000000 cycles: 275745371 heartbeat IPC: 1.52117 cumulative IPC: 1.10381 (Simulation time: 1 hr 53 min 46 sec) 
Heartbeat CPU 2 instructions: 180000000 cycles: 276703298 heartbeat IPC: 0.600541 cumulative IPC: 0.589175 (Simulation time: 1 hr 54 min 10 sec) 
Heartbeat CPU 6 instructions: 310000003 cycles: 276890307 heartbeat IPC: 1.07904 cumulative IPC: 1.0794 (Simulation time: 1 hr 54 min 14 sec) 
Heartbeat CPU 5 instructions: 300000000 cycles: 277115243 heartbeat IPC: 0.867839 cumulative IPC: 0.979265 (Simulation time: 1 hr 54 min 20 sec) 
Heartbeat CPU 1 instructions: 310000002 cycles: 281007545 heartbeat IPC: 1.01624 cumulative IPC: 1.02995 (Simulation time: 1 hr 55 min 52 sec) 
Heartbeat CPU 4 instructions: 330000001 cycles: 283272072 heartbeat IPC: 1.3286 cumulative IPC: 1.11007 (Simulation time: 1 hr 56 min 43 sec) 
Heartbeat CPU 0 instructions: 140000000 cycles: 285919370 heartbeat IPC: 0.357244 cumulative IPC: 0.434488 (Simulation time: 1 hr 57 min 43 sec) 
Heartbeat CPU 7 instructions: 80000000 cycles: 286150381 heartbeat IPC: 0.298577 cumulative IPC: 0.206213 (Simulation time: 1 hr 57 min 48 sec) 
Heartbeat CPU 6 instructions: 320000000 cycles: 286236791 heartbeat IPC: 1.06992 cumulative IPC: 1.07908 (Simulation time: 1 hr 57 min 50 sec) 
Heartbeat CPU 5 instructions: 310000001 cycles: 288672291 heartbeat IPC: 0.865273 cumulative IPC: 0.97448 (Simulation time: 1 hr 58 min 46 sec) 
Heartbeat CPU 1 instructions: 320000000 cycles: 291277452 heartbeat IPC: 0.973718 cumulative IPC: 1.02787 (Simulation time: 1 hr 59 min 45 sec) 
Heartbeat CPU 4 instructions: 340000000 cycles: 291606449 heartbeat IPC: 1.19985 cumulative IPC: 1.11276 (Simulation time: 1 hr 59 min 52 sec) 
Heartbeat CPU 2 instructions: 190000002 cycles: 293412048 heartbeat IPC: 0.598489 cumulative IPC: 0.589731 (Simulation time: 2 hr 0 min 33 sec) 
Heartbeat CPU 6 instructions: 330000000 cycles: 295462970 heartbeat IPC: 1.08387 cumulative IPC: 1.07923 (Simulation time: 2 hr 1 min 20 sec) 
Heartbeat CPU 3 instructions: 140000000 cycles: 299158531 heartbeat IPC: 0.423755 cumulative IPC: 0.419856 (Simulation time: 2 hr 2 min 37 sec) 
Heartbeat CPU 4 instructions: 350000003 cycles: 299760722 heartbeat IPC: 1.22635 cumulative IPC: 1.116 (Simulation time: 2 hr 2 min 49 sec) 
Heartbeat CPU 5 instructions: 320000000 cycles: 300311780 heartbeat IPC: 0.859144 cumulative IPC: 0.969802 (Simulation time: 2 hr 3 min 0 sec) 
Heartbeat CPU 1 instructions: 330000001 cycles: 301180274 heartbeat IPC: 1.00981 cumulative IPC: 1.02725 (Simulation time: 2 hr 3 min 18 sec) 
Heartbeat CPU 6 instructions: 340000000 cycles: 304860359 heartbeat IPC: 1.06413 cumulative IPC: 1.07875 (Simulation time: 2 hr 4 min 35 sec) 
Heartbeat CPU 4 instructions: 360000000 cycles: 307908067 heartbeat IPC: 1.22739 cumulative IPC: 1.11908 (Simulation time: 2 hr 5 min 39 sec) 
Heartbeat CPU 2 instructions: 200000000 cycles: 310057903 heartbeat IPC: 0.60075 cumulative IPC: 0.590349 (Simulation time: 2 hr 6 min 24 sec) 
Heartbeat CPU 0 instructions: 150000000 cycles: 311004340 heartbeat IPC: 0.398645 cumulative IPC: 0.431467 (Simulation time: 2 hr 6 min 44 sec) 
Heartbeat CPU 1 instructions: 340000000 cycles: 311097995 heartbeat IPC: 1.0083 cumulative IPC: 1.02662 (Simulation time: 2 hr 6 min 46 sec) 
Heartbeat CPU 5 instructions: 330000001 cycles: 311714099 heartbeat IPC: 0.877015 cumulative IPC: 0.966256 (Simulation time: 2 hr 6 min 59 sec) 
Heartbeat CPU 6 instructions: 350000000 cycles: 314148487 heartbeat IPC: 1.07664 cumulative IPC: 1.07868 (Simulation time: 2 hr 7 min 52 sec) 
Heartbeat CPU 4 instructions: 370000003 cycles: 316571172 heartbeat IPC: 1.15432 cumulative IPC: 1.12008 (Simulation time: 2 hr 8 min 44 sec) 
Heartbeat CPU 7 instructions: 90000000 cycles: 319424191 heartbeat IPC: 0.300537 cumulative IPC: 0.216467 (Simulation time: 2 hr 9 min 45 sec) 
Heartbeat CPU 1 instructions: 350000001 cycles: 321060297 heartbeat IPC: 1.00378 cumulative IPC: 1.02588 (Simulation time: 2 hr 10 min 22 sec) 
Heartbeat CPU 3 instructions: 150000003 cycles: 322626487 heartbeat IPC: 0.426113 cumulative IPC: 0.42033 (Simulation time: 2 hr 10 min 55 sec) 
Heartbeat CPU 5 instructions: 340000000 cycles: 323157347 heartbeat IPC: 0.873878 cumulative IPC: 0.962844 (Simulation time: 2 hr 11 min 6 sec) 
Heartbeat CPU 6 instructions: 360000000 cycles: 323463301 heartbeat IPC: 1.07356 cumulative IPC: 1.07853 (Simulation time: 2 hr 11 min 13 sec) 
Heartbeat CPU 4 instructions: 380000000 cycles: 325538920 heartbeat IPC: 1.11511 cumulative IPC: 1.11994 (Simulation time: 2 hr 11 min 58 sec) 
Heartbeat CPU 2 instructions: 210000000 cycles: 326527102 heartbeat IPC: 0.607194 cumulative IPC: 0.591235 (Simulation time: 2 hr 12 min 19 sec) 
Heartbeat CPU 0 instructions: 160000000 cycles: 328306663 heartbeat IPC: 0.577957 cumulative IPC: 0.439514 (Simulation time: 2 hr 12 min 59 sec) 
Heartbeat CPU 1 instructions: 360000000 cycles: 330759017 heartbeat IPC: 1.03106 cumulative IPC: 1.02604 (Simulation time: 2 hr 13 min 50 sec) 
Heartbeat CPU 6 instructions: 370000000 cycles: 332695553 heartbeat IPC: 1.08316 cumulative IPC: 1.07866 (Simulation time: 2 hr 14 min 31 sec) 
Heartbeat CPU 5 instructions: 350000002 cycles: 334302982 heartbeat IPC: 0.897212 cumulative IPC: 0.960565 (Simulation time: 2 hr 15 min 6 sec) 
Heartbeat CPU 4 instructions: 390000002 cycles: 335374595 heartbeat IPC: 1.01671 cumulative IPC: 1.11679 (Simulation time: 2 hr 15 min 30 sec) 
Heartbeat CPU 1 instructions: 370000000 cycles: 341201276 heartbeat IPC: 0.957647 cumulative IPC: 1.02386 (Simulation time: 2 hr 17 min 32 sec) 
Heartbeat CPU 6 instructions: 380000000 cycles: 342133519 heartbeat IPC: 1.05955 cumulative IPC: 1.07811 (Simulation time: 2 hr 17 min 51 sec) 
Heartbeat CPU 2 instructions: 220000000 cycles: 342931234 heartbeat IPC: 0.609603 cumulative IPC: 0.592149 (Simulation time: 2 hr 18 min 8 sec) 
Heartbeat CPU 4 instructions: 400000000 cycles: 344401624 heartbeat IPC: 1.10778 cumulative IPC: 1.11654 (Simulation time: 2 hr 18 min 38 sec) 
Heartbeat CPU 5 instructions: 360000000 cycles: 345230914 heartbeat IPC: 0.915086 cumulative IPC: 0.959067 (Simulation time: 2 hr 18 min 54 sec) 
Heartbeat CPU 3 instructions: 160000000 cycles: 346103321 heartbeat IPC: 0.425952 cumulative IPC: 0.420727 (Simulation time: 2 hr 19 min 12 sec) 
Heartbeat CPU 1 instructions: 380000000 cycles: 350769924 heartbeat IPC: 1.04508 cumulative IPC: 1.02446 (Simulation time: 2 hr 20 min 51 sec) 
Heartbeat CPU 7 instructions: 100000000 cycles: 350835604 heartbeat IPC: 0.318356 cumulative IPC: 0.22595 (Simulation time: 2 hr 20 min 52 sec) 
Heartbeat CPU 0 instructions: 170000000 cycles: 351141116 heartbeat IPC: 0.437935 cumulative IPC: 0.439408 (Simulation time: 2 hr 20 min 59 sec) 
Heartbeat CPU 6 instructions: 390000001 cycles: 351757050 heartbeat IPC: 1.03912 cumulative IPC: 1.077 (Simulation time: 2 hr 21 min 11 sec) 
Heartbeat CPU 4 instructions: 410000000 cycles: 352717272 heartbeat IPC: 1.20255 cumulative IPC: 1.11865 (Simulation time: 2 hr 21 min 31 sec) 
Heartbeat CPU 5 instructions: 370000003 cycles: 356677536 heartbeat IPC: 0.87362 cumulative IPC: 0.956219 (Simulation time: 2 hr 22 min 49 sec) 
Heartbeat CPU 2 instructions: 230000000 cycles: 359463495 heartbeat IPC: 0.604878 cumulative IPC: 0.592757 (Simulation time: 2 hr 23 min 44 sec) 
Heartbeat CPU 4 instructions: 420000000 cycles: 361200147 heartbeat IPC: 1.17885 cumulative IPC: 1.12012 (Simulation time: 2 hr 24 min 17 sec) 
Heartbeat CPU 6 instructions: 400000000 cycles: 361530133 heartbeat IPC: 1.02322 cumulative IPC: 1.0755 (Simulation time: 2 hr 24 min 24 sec) 
Heartbeat CPU 4 instructions: 430000002 cycles: 367535352 heartbeat IPC: 1.57848 cumulative IPC: 1.12832 (Simulation time: 2 hr 26 min 20 sec) 
Heartbeat CPU 5 instructions: 380000000 cycles: 368791725 heartbeat IPC: 0.825478 cumulative IPC: 0.951763 (Simulation time: 2 hr 26 min 45 sec) 
Heartbeat CPU 3 instructions: 170000002 cycles: 369660262 heartbeat IPC: 0.424503 cumulative IPC: 0.420977 (Simulation time: 2 hr 27 min 1 sec) 
Heartbeat CPU 6 instructions: 410000002 cycles: 371438602 heartbeat IPC: 1.00924 cumulative IPC: 1.07366 (Simulation time: 2 hr 27 min 36 sec) 
Heartbeat CPU 4 instructions: 440000000 cycles: 373917146 heartbeat IPC: 1.56696 cumulative IPC: 1.13608 (Simulation time: 2 hr 28 min 26 sec) 
Heartbeat CPU 1 instructions: 390000002 cycles: 375106472 heartbeat IPC: 0.410905 cumulative IPC: 0.983183 (Simulation time: 2 hr 28 min 52 sec) 
Heartbeat CPU 2 instructions: 240000000 cycles: 376079436 heartbeat IPC: 0.601832 cumulative IPC: 0.593173 (Simulation time: 2 hr 29 min 13 sec) 
Heartbeat CPU 0 instructions: 180000000 cycles: 378401985 heartbeat IPC: 0.366826 cumulative IPC: 0.433988 (Simulation time: 2 hr 30 min 4 sec) 
Heartbeat CPU 4 instructions: 450000000 cycles: 380305890 heartbeat IPC: 1.56525 cumulative IPC: 1.14355 (Simulation time: 2 hr 30 min 45 sec) 
Heartbeat CPU 5 instructions: 390000001 cycles: 381000037 heartbeat IPC: 0.819114 cumulative IPC: 0.947358 (Simulation time: 2 hr 31 min 0 sec) 
Heartbeat CPU 6 instructions: 420000000 cycles: 381300076 heartbeat IPC: 1.01405 cumulative IPC: 1.07206 (Simulation time: 2 hr 31 min 7 sec) 
Heartbeat CPU 1 instructions: 400000000 cycles: 386859092 heartbeat IPC: 0.850874 cumulative IPC: 0.97902 (Simulation time: 2 hr 33 min 11 sec) 
Heartbeat CPU 4 instructions: 460000000 cycles: 386958241 heartbeat IPC: 1.50323 cumulative IPC: 1.14996 (Simulation time: 2 hr 33 min 14 sec) 
Heartbeat CPU 6 instructions: 430000001 cycles: 391076945 heartbeat IPC: 1.02282 cumulative IPC: 1.07079 (Simulation time: 2 hr 34 min 45 sec) 
Heartbeat CPU 5 instructions: 400000000 cycles: 392412399 heartbeat IPC: 0.876243 cumulative IPC: 0.945217 (Simulation time: 2 hr 35 min 14 sec) 
Heartbeat CPU 2 instructions: 250000001 cycles: 392741997 heartbeat IPC: 0.600148 cumulative IPC: 0.593479 (Simulation time: 2 hr 35 min 22 sec) 
Heartbeat CPU 3 instructions: 180000000 cycles: 393249251 heartbeat IPC: 0.423927 cumulative IPC: 0.42116 (Simulation time: 2 hr 35 min 33 sec) 
Heartbeat CPU 4 instructions: 470000001 cycles: 396635002 heartbeat IPC: 1.0334 cumulative IPC: 1.14701 (Simulation time: 2 hr 36 min 44 sec) 
Heartbeat CPU 1 instructions: 410000001 cycles: 398701577 heartbeat IPC: 0.844417 cumulative IPC: 0.974884 (Simulation time: 2 hr 37 min 27 sec) 
Heartbeat CPU 0 instructions: 190000001 cycles: 400121121 heartbeat IPC: 0.460424 cumulative IPC: 0.435472 (Simulation time: 2 hr 37 min 58 sec) 
Heartbeat CPU 6 instructions: 440000000 cycles: 400731522 heartbeat IPC: 1.03578 cumulative IPC: 1.06992 (Simulation time: 2 hr 38 min 11 sec) 
Heartbeat CPU 5 instructions: 410000003 cycles: 403631704 heartbeat IPC: 0.891321 cumulative IPC: 0.943668 (Simulation time: 2 hr 39 min 14 sec) 
Heartbeat CPU 4 instructions: 480000000 cycles: 404245304 heartbeat IPC: 1.31401 cumulative IPC: 1.15027 (Simulation time: 2 hr 39 min 28 sec) 
Heartbeat CPU 2 instructions: 260000000 cycles: 409412251 heartbeat IPC: 0.599871 cumulative IPC: 0.593748 (Simulation time: 2 hr 41 min 20 sec) 
Heartbeat CPU 6 instructions: 450000003 cycles: 410383095 heartbeat IPC: 1.0361 cumulative IPC: 1.06909 (Simulation time: 2 hr 41 min 41 sec) 
Heartbeat CPU 1 instructions: 420000000 cycles: 410537178 heartbeat IPC: 0.844908 cumulative IPC: 0.971011 (Simulation time: 2 hr 41 min 44 sec) 
Heartbeat CPU 4 instructions: 490000001 cycles: 413299439 heartbeat IPC: 1.10447 cumulative IPC: 1.14923 (Simulation time: 2 hr 42 min 42 sec) 
Heartbeat CPU 7 instructions: 110000000 cycles: 414148956 heartbeat IPC: 0.157945 cumulative IPC: 0.215208 (Simulation time: 2 hr 43 min 1 sec) 
Heartbeat CPU 5 instructions: 420000000 cycles: 414852419 heartbeat IPC: 0.891209 cumulative IPC: 0.942202 (Simulation time: 2 hr 43 min 17 sec) 
Heartbeat CPU 3 instructions: 190000000 cycles: 416667505 heartbeat IPC: 0.427017 cumulative IPC: 0.4215 (Simulation time: 2 hr 43 min 57 sec) 
Heartbeat CPU 6 instructions: 460000000 cycles: 420000120 heartbeat IPC: 1.03982 cumulative IPC: 1.0684 (Simulation time: 2 hr 45 min 7 sec) 
Heartbeat CPU 1 instructions: 430000000 cycles: 422364238 heartbeat IPC: 0.845519 cumulative IPC: 0.967382 (Simulation time: 2 hr 45 min 57 sec) 
Heartbeat CPU 4 instructions: 500000000 cycles: 422761645 heartbeat IPC: 1.05684 cumulative IPC: 1.14709 (Simulation time: 2 hr 46 min 6 sec) 
Heartbeat CPU 5 instructions: 430000000 cycles: 425913702 heartbeat IPC: 0.904054 cumulative IPC: 0.941179 (Simulation time: 2 hr 47 min 17 sec) 
Heartbeat CPU 2 instructions: 270000000 cycles: 426064427 heartbeat IPC: 0.600522 cumulative IPC: 0.594022 (Simulation time: 2 hr 47 min 20 sec) 
Heartbeat CPU 0 instructions: 200000000 cycles: 427892651 heartbeat IPC: 0.360081 cumulative IPC: 0.430421 (Simulation time: 2 hr 48 min 2 sec) 
Heartbeat CPU 6 instructions: 470000001 cycles: 429609167 heartbeat IPC: 1.04069 cumulative IPC: 1.06776 (Simulation time: 2 hr 48 min 40 sec) 
Heartbeat CPU 4 instructions: 510000002 cycles: 430027466 heartbeat IPC: 1.37631 cumulative IPC: 1.15109 (Simulation time: 2 hr 48 min 49 sec) 
Heartbeat CPU 1 instructions: 440000000 cycles: 434156514 heartbeat IPC: 0.848013 cumulative IPC: 0.964037 (Simulation time: 2 hr 50 min 20 sec) 
Heartbeat CPU 5 instructions: 440000000 cycles: 436963867 heartbeat IPC: 0.904964 cumulative IPC: 0.940234 (Simulation time: 2 hr 51 min 20 sec) 
Heartbeat CPU 4 instructions: 520000000 cycles: 439095942 heartbeat IPC: 1.10272 cumulative IPC: 1.15006 (Simulation time: 2 hr 52 min 4 sec) 
Heartbeat CPU 6 instructions: 480000000 cycles: 439262587 heartbeat IPC: 1.0359 cumulative IPC: 1.06704 (Simulation time: 2 hr 52 min 8 sec) 
Heartbeat CPU 3 instructions: 200000000 cycles: 440112880 heartbeat IPC: 0.426523 cumulative IPC: 0.421776 (Simulation time: 2 hr 52 min 25 sec) 
Heartbeat CPU 2 instructions: 280000000 cycles: 442669262 heartbeat IPC: 0.602234 cumulative IPC: 0.594339 (Simulation time: 2 hr 53 min 18 sec) 
Heartbeat CPU 1 instructions: 450000002 cycles: 446002519 heartbeat IPC: 0.844167 cumulative IPC: 0.960755 (Simulation time: 2 hr 54 min 26 sec) 
Heartbeat CPU 5 instructions: 450000000 cycles: 448427847 heartbeat IPC: 0.872297 cumulative IPC: 0.938444 (Simulation time: 2 hr 55 min 17 sec) 
Heartbeat CPU 4 instructions: 530000000 cycles: 448498238 heartbeat IPC: 1.06357 cumulative IPC: 1.14819 (Simulation time: 2 hr 55 min 19 sec) 
Heartbeat CPU 6 instructions: 490000001 cycles: 448962470 heartbeat IPC: 1.03094 cumulative IPC: 1.06624 (Simulation time: 2 hr 55 min 28 sec) 
Heartbeat CPU 0 instructions: 210000003 cycles: 453003498 heartbeat IPC: 0.398234 cumulative IPC: 0.428583 (Simulation time: 2 hr 56 min 54 sec) 
Heartbeat CPU 4 instructions: 540000000 cycles: 457695917 heartbeat IPC: 1.08723 cumulative IPC: 1.14693 (Simulation time: 2 hr 58 min 31 sec) 
Heartbeat CPU 1 instructions: 460000000 cycles: 457820980 heartbeat IPC: 0.846134 cumulative IPC: 0.957707 (Simulation time: 2 hr 58 min 34 sec) 
Heartbeat CPU 6 instructions: 500000000 cycles: 458581509 heartbeat IPC: 1.0396 cumulative IPC: 1.06566 (Simulation time: 2 hr 58 min 50 sec) 
Heartbeat CPU 2 instructions: 290000001 cycles: 459370820 heartbeat IPC: 0.598747 cumulative IPC: 0.594504 (Simulation time: 2 hr 59 min 7 sec) 
Heartbeat CPU 5 instructions: 460000000 cycles: 459712499 heartbeat IPC: 0.886159 cumulative IPC: 0.937122 (Simulation time: 2 hr 59 min 15 sec) 
Heartbeat CPU 7 instructions: 120000000 cycles: 459846536 heartbeat IPC: 0.21883 cumulative IPC: 0.215579 (Simulation time: 2 hr 59 min 18 sec) 
Heartbeat CPU 3 instructions: 210000001 cycles: 463518795 heartbeat IPC: 0.427242 cumulative IPC: 0.42206 (Simulation time: 3 hr 0 min 39 sec) 
Heartbeat CPU 4 instructions: 550000000 cycles: 466708851 heartbeat IPC: 1.10952 cumulative IPC: 1.14619 (Simulation time: 3 hr 1 min 46 sec) 
Heartbeat CPU 6 instructions: 510000001 cycles: 468196011 heartbeat IPC: 1.0401 cumulative IPC: 1.06512 (Simulation time: 3 hr 2 min 18 sec) 
Heartbeat CPU 1 instructions: 470000003 cycles: 469673413 heartbeat IPC: 0.843709 cumulative IPC: 0.954746 (Simulation time: 3 hr 2 min 50 sec) 
Heartbeat CPU 5 instructions: 470000001 cycles: 470835087 heartbeat IPC: 0.899071 cumulative IPC: 0.936197 (Simulation time: 3 hr 3 min 15 sec) 
Finished CPU 7 instructions: 100000002 cycles: 459724991 cumulative IPC: 0.217521 (Simulation time: 3 hr 4 min 3 sec) 

CPU 0 Branch Prediction Accuracy: 99.1905% MPKI: 1.96925

CPU 1 Branch Prediction Accuracy: 95.1672% MPKI: 4.25826

CPU 2 Branch Prediction Accuracy: 98.7467% MPKI: 1.37707

CPU 3 Branch Prediction Accuracy: 84.3876% MPKI: 16.8817

CPU 4 Branch Prediction Accuracy: 96.6241% MPKI: 5.12705

CPU 5 Branch Prediction Accuracy: 99.8627% MPKI: 0.188427

CPU 6 Branch Prediction Accuracy: 96.7448% MPKI: 0.271671

CPU 7 Branch Prediction Accuracy: 92.5328% MPKI: 13.3664

ChampSim completed all CPUs

Total Simulation Statistics (not including warmup)

CPU 0 cumulative IPC: 0.428406 instructions: 196949112 cycles: 459724990
L1D TOTAL     ACCESS:   52246803  HIT:   44315194  MISS:    7931609
L1D LOAD      ACCESS:   35775643  HIT:   28226644  MISS:    7548999
L1D RFO       ACCESS:   16471160  HIT:   16088550  MISS:     382610
L1D PREFETCH  ACCESS:          0  HIT:          0  MISS:          0
L1D WRITEBACK ACCESS:          0  HIT:          0  MISS:          0
L1I TOTAL     ACCESS:   84409375  HIT:   83813817  MISS:     595558
L1I LOAD      ACCESS:   84409375  HIT:   83813817  MISS:     595558
L1I RFO       ACCESS:          0  HIT:          0  MISS:          0
L1I PREFETCH  ACCESS:          0  HIT:          0  MISS:          0
L1I WRITEBACK ACCESS:          0  HIT:          0  MISS:          0
L2C TOTAL     ACCESS:   10659780  HIT:    9157232  MISS:    1502548
L2C LOAD      ACCESS:    8144523  HIT:    7163687  MISS:     980836
L2C RFO       ACCESS:     382604  HIT:      99906  MISS:     282698
L2C PREFETCH  ACCESS:    1506094  HIT:    1267253  MISS:     238841
L2C WRITEBACK ACCESS:     626559  HIT:     626386  MISS:        173

L2C DA-AMPM prefetcher final stats
LLC TOTAL     ACCESS:    1870956  HIT:    1432513  MISS:     438443
LLC LOAD      ACCESS:     973492  HIT:     893367  MISS:      80125
LLC RFO       ACCESS:     281759  HIT:       8935  MISS:     272824
LLC PREFETCH  ACCESS:     247121  HIT:     182822  MISS:      64299
LLC WRITEBACK ACCESS:     368584  HIT:     347389  MISS:      21195

CPU 1 cumulative IPC: 0.953952 instructions: 438555556 cycles: 459724990
L1D TOTAL     ACCESS:   71759073  HIT:   64790764  MISS:    6968309
L1D LOAD      ACCESS:   47516359  HIT:   42730376  MISS:    4785983
L1D RFO       ACCESS:   24242714  HIT:   22060388  MISS:    2182326
L1D PREFETCH  ACCESS:          0  HIT:          0  MISS:          0
L1D WRITEBACK ACCESS:          0  HIT:          0  MISS:          0
L1I TOTAL     ACCESS:  106313481  HIT:  106305075  MISS:       8406
L1I LOAD      ACCESS:  106313481  HIT:  106305075  MISS:       8406
L1I RFO       ACCESS:          0  HIT:          0  MISS:          0
L1I PREFETCH  ACCESS:          0  HIT:          0  MISS:          0
L1I WRITEBACK ACCESS:          0  HIT:          0  MISS:          0
L2C TOTAL     ACCESS:   12521268  HIT:    6247438  MISS:    6273830
L2C LOAD      ACCESS:    4794389  HIT:    2811614  MISS:    1982775
L2C RFO       ACCESS:    2182326  HIT:      69635  MISS:    2112691
L2C PREFETCH  ACCESS:    2509647  HIT:     341094  MISS:    2168553
L2C WRITEBACK ACCESS:    3034906  HIT:    3025095  MISS:       9811

L2C DA-AMPM prefetcher final stats
LLC TOTAL     ACCESS:    9056919  HIT:    7424921  MISS:    1631998
LLC LOAD      ACCESS:    1882864  HIT:    1805956  MISS:      76908
LLC RFO       ACCESS:    2112566  HIT:    1319815  MISS:     792751
LLC PREFETCH  ACCESS:    2268560  HIT:    1506888  MISS:     761672
LLC WRITEBACK ACCESS:    2792929  HIT:    2792262  MISS:        667

CPU 2 cumulative IPC: 0.594701 instructions: 273399108 cycles: 459724990
L1D TOTAL     ACCESS:   47267531  HIT:   47257572  MISS:       9959
L1D LOAD      ACCESS:   37078010  HIT:   37073866  MISS:       4144
L1D RFO       ACCESS:   10189521  HIT:   10183706  MISS:       5815
L1D PREFETCH  ACCESS:          0  HIT:          0  MISS:          0
L1D WRITEBACK ACCESS:          0  HIT:          0  MISS:          0
L1I TOTAL     ACCESS:  102495814  HIT:  102493766  MISS:       2048
L1I LOAD      ACCESS:  102495814  HIT:  102493766  MISS:       2048
L1I RFO       ACCESS:          0  HIT:          0  MISS:          0
L1I PREFETCH  ACCESS:          0  HIT:          0  MISS:          0
L1I WRITEBACK ACCESS:          0  HIT:          0  MISS:          0
L2C TOTAL     ACCESS:      21179  HIT:      13029  MISS:       8150
L2C LOAD      ACCESS:       6190  HIT:       4907  MISS:       1283
L2C RFO       ACCESS:       5815  HIT:       1270  MISS:       4545
L2C PREFETCH  ACCESS:       2315  HIT:         17  MISS:       2298
L2C WRITEBACK ACCESS:       6859  HIT:       6835  MISS:         24

L2C DA-AMPM prefetcher final stats
LLC TOTAL     ACCESS:      11520  HIT:          1  MISS:      11519
LLC LOAD      ACCESS:       1216  HIT:          0  MISS:       1216
LLC RFO       ACCESS:       4545  HIT:          1  MISS:       4544
LLC PREFETCH  ACCESS:       2365  HIT:          0  MISS:       2365
LLC WRITEBACK ACCESS:       3394  HIT:          0  MISS:       3394

CPU 3 cumulative IPC: 0.422141 instructions: 194068798 cycles: 459724990
L1D TOTAL     ACCESS:   64562278  HIT:   64071734  MISS:     490544
L1D LOAD      ACCESS:   41279165  HIT:   40886976  MISS:     392189
L1D RFO       ACCESS:   23283113  HIT:   23184758  MISS:      98355
L1D PREFETCH  ACCESS:          0  HIT:          0  MISS:          0
L1D WRITEBACK ACCESS:          0  HIT:          0  MISS:          0
L1I TOTAL     ACCESS:   44686454  HIT:   44647627  MISS:      38827
L1I LOAD      ACCESS:   44686454  HIT:   44647627  MISS:      38827
L1I RFO       ACCESS:          0  HIT:          0  MISS:          0
L1I PREFETCH  ACCESS:          0  HIT:          0  MISS:          0
L1I WRITEBACK ACCESS:          0  HIT:          0  MISS:          0
L2C TOTAL     ACCESS:     705246  HIT:     668593  MISS:      36653
L2C LOAD      ACCESS:     431011  HIT:     414924  MISS:      16087
L2C RFO       ACCESS:      98355  HIT:      92787  MISS:       5568
L2C PREFETCH  ACCESS:      16727  HIT:       1846  MISS:      14881
L2C WRITEBACK ACCESS:     159153  HIT:     159036  MISS:        117

L2C DA-AMPM prefetcher final stats
LLC TOTAL     ACCESS:      57223  HIT:      18941  MISS:      38282
LLC LOAD      ACCESS:      14274  HIT:       2409  MISS:      11865
LLC RFO       ACCESS:       5568  HIT:        501  MISS:       5067
LLC PREFETCH  ACCESS:      16694  HIT:        283  MISS:      16411
LLC WRITEBACK ACCESS:      20687  HIT:      15748  MISS:       4939

CPU 4 cumulative IPC: 1.1472 instructions: 527397305 cycles: 459724991
L1D TOTAL     ACCESS:  136273825  HIT:  136273799  MISS:         26
L1D LOAD      ACCESS:   68458264  HIT:   68458238  MISS:         26
L1D RFO       ACCESS:   67815561  HIT:   67815561  MISS:          0
L1D PREFETCH  ACCESS:          0  HIT:          0  MISS:          0
L1D WRITEBACK ACCESS:          0  HIT:          0  MISS:          0
L1I TOTAL     ACCESS:  126308731  HIT:  126120972  MISS:     187759
L1I LOAD      ACCESS:  126308731  HIT:  126120972  MISS:     187759
L1I RFO       ACCESS:          0  HIT:          0  MISS:          0
L1I PREFETCH  ACCESS:          0  HIT:          0  MISS:          0
L1I WRITEBACK ACCESS:          0  HIT:          0  MISS:          0
L2C TOTAL     ACCESS:     187800  HIT:     187762  MISS:         38
L2C LOAD      ACCESS:     187785  HIT:     187761  MISS:         24
L2C RFO       ACCESS:          0  HIT:          0  MISS:          0
L2C PREFETCH  ACCESS:         15  HIT:          1  MISS:         14
L2C WRITEBACK ACCESS:          0  HIT:          0  MISS:          0

L2C DA-AMPM prefetcher final stats
LLC TOTAL     ACCESS:         38  HIT:          0  MISS:         38
LLC LOAD      ACCESS:         24  HIT:          0  MISS:         24
LLC RFO       ACCESS:          0  HIT:          0  MISS:          0
LLC PREFETCH  ACCESS:         14  HIT:          0  MISS:         14
LLC WRITEBACK ACCESS:          0  HIT:          0  MISS:          0

CPU 5 cumulative IPC: 0.936078 instructions: 430338329 cycles: 459724991
L1D TOTAL     ACCESS:   48419903  HIT:   37962208  MISS:   10457695
L1D LOAD      ACCESS:   38763906  HIT:   28306214  MISS:   10457692
L1D RFO       ACCESS:    9655997  HIT:    9655994  MISS:          3
L1D PREFETCH  ACCESS:          0  HIT:          0  MISS:          0
L1D WRITEBACK ACCESS:          0  HIT:          0  MISS:          0
L1I TOTAL     ACCESS:   92293530  HIT:   92293511  MISS:         19
L1I LOAD      ACCESS:   92293530  HIT:   92293511  MISS:         19
L1I RFO       ACCESS:          0  HIT:          0  MISS:          0
L1I PREFETCH  ACCESS:          0  HIT:          0  MISS:          0
L1I WRITEBACK ACCESS:          0  HIT:          0  MISS:          0
L2C TOTAL     ACCESS:   20725781  HIT:   10267961  MISS:   10457820
L2C LOAD      ACCESS:   10457709  HIT:    8935634  MISS:    1522075
L2C RFO       ACCESS:          3  HIT:          0  MISS:          3
L2C PREFETCH  ACCESS:    8996475  HIT:      60751  MISS:    8935724
L2C WRITEBACK ACCESS:    1271594  HIT:    1271576  MISS:         18

L2C DA-AMPM prefetcher final stats
LLC TOTAL     ACCESS:   11729913  HIT:    1274055  MISS:   10455858
LLC LOAD      ACCESS:     686398  HIT:       1948  MISS:     684450
LLC RFO       ACCESS:          3  HIT:          0  MISS:          3
LLC PREFETCH  ACCESS:    9771401  HIT:          0  MISS:    9771401
LLC WRITEBACK ACCESS:    1272111  HIT:    1272107  MISS:          4

CPU 6 cumulative IPC: 1.06496 instructions: 489587318 cycles: 459724991
L1D TOTAL     ACCESS:  169455274  HIT:  149608253  MISS:   19847021
L1D LOAD      ACCESS:   87844455  HIT:   77059576  MISS:   10784879
L1D RFO       ACCESS:   81610819  HIT:   72548677  MISS:    9062142
L1D PREFETCH  ACCESS:          0  HIT:          0  MISS:          0
L1D WRITEBACK ACCESS:          0  HIT:          0  MISS:          0
L1I TOTAL     ACCESS:  119148846  HIT:  119148846  MISS:          0
L1I LOAD      ACCESS:  119148846  HIT:  119148846  MISS:          0
L1I RFO       ACCESS:          0  HIT:          0  MISS:          0
L1I PREFETCH  ACCESS:          0  HIT:          0  MISS:          0
L1I WRITEBACK ACCESS:          0  HIT:          0  MISS:          0
L2C TOTAL     ACCESS:   31514472  HIT:   23998667  MISS:    7515805
L2C LOAD      ACCESS:   10779124  HIT:    9747490  MISS:    1031634
L2C RFO       ACCESS:    8045902  HIT:    5130969  MISS:    2914933
L2C PREFETCH  ACCESS:    3566332  HIT:          0  MISS:    3566332
L2C WRITEBACK ACCESS:    9123114  HIT:    9120208  MISS:       2906

L2C DA-AMPM prefetcher final stats
LLC TOTAL     ACCESS:   10432057  HIT:    3759690  MISS:    6672367
LLC LOAD      ACCESS:    1028628  HIT:     840826  MISS:     187802
LLC RFO       ACCESS:    2914926  HIT:          0  MISS:    2914926
LLC PREFETCH  ACCESS:    3569334  HIT:          0  MISS:    3569334
LLC WRITEBACK ACCESS:    2919169  HIT:    2918864  MISS:        305

CPU 7 cumulative IPC: 0.217521 instructions: 100000002 cycles: 459724991
L1D TOTAL     ACCESS:   41149953  HIT:   37417472  MISS:    3732481
L1D LOAD      ACCESS:   31034953  HIT:   27338259  MISS:    3696694
L1D RFO       ACCESS:   10115000  HIT:   10079213  MISS:      35787
L1D PREFETCH  ACCESS:          0  HIT:          0  MISS:          0
L1D WRITEBACK ACCESS:          0  HIT:          0  MISS:          0
L1I TOTAL     ACCESS:   21612987  HIT:   21612987  MISS:          0
L1I LOAD      ACCESS:   21612987  HIT:   21612987  MISS:          0
L1I RFO       ACCESS:          0  HIT:          0  MISS:          0
L1I PREFETCH  ACCESS:          0  HIT:          0  MISS:          0
L1I WRITEBACK ACCESS:          0  HIT:          0  MISS:          0
L2C TOTAL     ACCESS:    4383338  HIT:    1661663  MISS:    2721675
L2C LOAD      ACCESS:    3696690  HIT:    1315356  MISS:    2381334
L2C RFO       ACCESS:      35784  HIT:      29111  MISS:       6673
L2C PREFETCH  ACCESS:     381805  HIT:      48772  MISS:     333033
L2C WRITEBACK ACCESS:     269059  HIT:     268424  MISS:        635

L2C DA-AMPM prefetcher final stats
LLC TOTAL     ACCESS:    2895000  HIT:    1152591  MISS:    1742409
LLC LOAD      ACCESS:    2378447  HIT:     862638  MISS:    1515809
LLC RFO       ACCESS:       6667  HIT:       4784  MISS:       1883
LLC PREFETCH  ACCESS:     335926  HIT:     111444  MISS:     224482
LLC WRITEBACK ACCESS:     173960  HIT:     173725  MISS:        235

Region of Interest Statistics

CPU 0 cumulative IPC: 0.440974 instructions: 100000002 cycles: 226770922
L1D TOTAL     ACCESS:   25621317  HIT:   21641745  MISS:    3979572
L1D LOAD      ACCESS:   17706527  HIT:   13903655  MISS:    3802872
L1D RFO       ACCESS:    7914790  HIT:    7738090  MISS:     176700
L1D PREFETCH  ACCESS:          0  HIT:          0  MISS:          0
L1D WRITEBACK ACCESS:          0  HIT:          0  MISS:          0
L1D PREFETCH  REQUESTED:          0  ISSUED:          0  USEFUL:          0  USELESS:          0
L1I TOTAL     ACCESS:   43475774  HIT:   43193510  MISS:     282264
L1I LOAD      ACCESS:   43475774  HIT:   43193510  MISS:     282264
L1I RFO       ACCESS:          0  HIT:          0  MISS:          0
L1I PREFETCH  ACCESS:          0  HIT:          0  MISS:          0
L1I WRITEBACK ACCESS:          0  HIT:          0  MISS:          0
L1I PREFETCH  REQUESTED:          0  ISSUED:          0  USEFUL:          0  USELESS:          0
L2C TOTAL     ACCESS:    5318272  HIT:    4584774  MISS:     733498
L2C LOAD      ACCESS:    4085120  HIT:    3599849  MISS:     485271
L2C RFO       ACCESS:     176698  HIT:      49545  MISS:     127153
L2C PREFETCH  ACCESS:     758411  HIT:     637454  MISS:     120957
L2C WRITEBACK ACCESS:     298043  HIT:     297926  MISS:        117
L2C PREFETCH  REQUESTED:    1697823  ISSUED:    1697823  USEFUL:      81661  USELESS:     183192
LLC TOTAL     ACCESS:     903389  HIT:     697236  MISS:     206153
LLC LOAD      ACCESS:     481408  HIT:     439799  MISS:      41609
LLC RFO       ACCESS:     126690  HIT:       4994  MISS:     121696
LLC PREFETCH  ACCESS:     125283  HIT:      92173  MISS:      33110
LLC WRITEBACK ACCESS:     170008  HIT:     160270  MISS:       9738
LLC PREFETCH  REQUESTED:          0  ISSUED:          0  USEFUL:    1205052  USELESS:   14417030
Major fault: 0 Minor fault: 2398

CPU 1 cumulative IPC: 1.05702 instructions: 100000003 cycles: 94605396
L1D TOTAL     ACCESS:   15065049  HIT:   13238326  MISS:    1826723
L1D LOAD      ACCESS:   10276984  HIT:    9012351  MISS:    1264633
L1D RFO       ACCESS:    4788065  HIT:    4225975  MISS:     562090
L1D PREFETCH  ACCESS:          0  HIT:          0  MISS:          0
L1D WRITEBACK ACCESS:          0  HIT:          0  MISS:          0
L1D PREFETCH  REQUESTED:          0  ISSUED:          0  USEFUL:          0  USELESS:          0
L1I TOTAL     ACCESS:   21174588  HIT:   21172162  MISS:       2426
L1I LOAD      ACCESS:   21174588  HIT:   21172162  MISS:       2426
L1I RFO       ACCESS:          0  HIT:          0  MISS:          0
L1I PREFETCH  ACCESS:          0  HIT:          0  MISS:          0
L1I WRITEBACK ACCESS:          0  HIT:          0  MISS:          0
L1I PREFETCH  REQUESTED:          0  ISSUED:          0  USEFUL:          0  USELESS:          0
L2C TOTAL     ACCESS:    3250999  HIT:    1603562  MISS:    1647437
L2C LOAD      ACCESS:    1267059  HIT:     729594  MISS:     537465
L2C RFO       ACCESS:     562090  HIT:      12067  MISS:     550023
L2C PREFETCH  ACCESS:     638184  HIT:      80547  MISS:     557637
L2C WRITEBACK ACCESS:     783666  HIT:     781354  MISS:       2312
L2C PREFETCH  REQUESTED:    2931560  ISSUED:    2925288  USEFUL:    2299108  USELESS:      83469
LLC TOTAL     ACCESS:    2375845  HIT:    2048090  MISS:     327755
LLC LOAD      ACCESS:     514226  HIT:     497185  MISS:      17041
LLC RFO       ACCESS:     549997  HIT:     389836  MISS:     160161
LLC PREFETCH  ACCESS:     580900  HIT:     430347  MISS:     150553
LLC WRITEBACK ACCESS:     730722  HIT:     730722  MISS:          0
LLC PREFETCH  REQUESTED:          0  ISSUED:          0  USEFUL:    1205052  USELESS:   14417030
Major fault: 0 Minor fault: 10426

CPU 2 cumulative IPC: 0.584152 instructions: 100000001 cycles: 171188252
L1D TOTAL     ACCESS:   17928189  HIT:   17924476  MISS:       3713
L1D LOAD      ACCESS:   14088670  HIT:   14087124  MISS:       1546
L1D RFO       ACCESS:    3839519  HIT:    3837352  MISS:       2167
L1D PREFETCH  ACCESS:          0  HIT:          0  MISS:          0
L1D WRITEBACK ACCESS:          0  HIT:          0  MISS:          0
L1D PREFETCH  REQUESTED:          0  ISSUED:          0  USEFUL:          0  USELESS:          0
L1I TOTAL     ACCESS:   38209910  HIT:   38209156  MISS:        754
L1I LOAD      ACCESS:   38209910  HIT:   38209156  MISS:        754
L1I RFO       ACCESS:          0  HIT:          0  MISS:          0
L1I PREFETCH  ACCESS:          0  HIT:          0  MISS:          0
L1I WRITEBACK ACCESS:          0  HIT:          0  MISS:          0
L1I PREFETCH  REQUESTED:          0  ISSUED:          0  USEFUL:          0  USELESS:          0
L2C TOTAL     ACCESS:       7884  HIT:       4831  MISS:       3053
L2C LOAD      ACCESS:       2299  HIT:       1813  MISS:        486
L2C RFO       ACCESS:       2167  HIT:        471  MISS:       1696
L2C PREFETCH  ACCESS:        879  HIT:          9  MISS:        870
L2C WRITEBACK ACCESS:       2539  HIT:       2538  MISS:          1
L2C PREFETCH  REQUESTED:       3510  ISSUED:       3510  USEFUL:       2256  USELESS:        345
LLC TOTAL     ACCESS:       3287  HIT:          1  MISS:       3286
LLC LOAD      ACCESS:        469  HIT:          0  MISS:        469
LLC RFO       ACCESS:       1696  HIT:          1  MISS:       1695
LLC PREFETCH  ACCESS:        887  HIT:          0  MISS:        887
LLC WRITEBACK ACCESS:        235  HIT:          0  MISS:        235
LLC PREFETCH  REQUESTED:          0  ISSUED:          0  USEFUL:    1205052  USELESS:   14417030
Major fault: 0 Minor fault: 420

CPU 3 cumulative IPC: 0.419167 instructions: 100000000 cycles: 238568666
L1D TOTAL     ACCESS:   33588627  HIT:   33354420  MISS:     234207
L1D LOAD      ACCESS:   21412309  HIT:   21223944  MISS:     188365
L1D RFO       ACCESS:   12176318  HIT:   12130476  MISS:      45842
L1D PREFETCH  ACCESS:          0  HIT:          0  MISS:          0
L1D WRITEBACK ACCESS:          0  HIT:          0  MISS:          0
L1D PREFETCH  REQUESTED:          0  ISSUED:          0  USEFUL:          0  USELESS:          0
L1I TOTAL     ACCESS:   23027720  HIT:   23008672  MISS:      19048
L1I LOAD      ACCESS:   23027720  HIT:   23008672  MISS:      19048
L1I RFO       ACCESS:          0  HIT:          0  MISS:          0
L1I PREFETCH  ACCESS:          0  HIT:          0  MISS:          0
L1I WRITEBACK ACCESS:          0  HIT:          0  MISS:          0
L1I PREFETCH  REQUESTED:          0  ISSUED:          0  USEFUL:          0  USELESS:          0
L2C TOTAL     ACCESS:     347458  HIT:     316202  MISS:      31256
L2C LOAD      ACCESS:     207410  HIT:     195343  MISS:      12067
L2C RFO       ACCESS:      45842  HIT:      40946  MISS:       4896
L2C PREFETCH  ACCESS:      15325  HIT:       1113  MISS:      14212
L2C WRITEBACK ACCESS:      78881  HIT:      78800  MISS:         81
L2C PREFETCH  REQUESTED:      51494  ISSUED:      51494  USEFUL:      38033  USELESS:       5853
LLC TOTAL     ACCESS:      50867  HIT:      18642  MISS:      32225
LLC LOAD      ACCESS:      10289  HIT:       2136  MISS:       8153
LLC RFO       ACCESS:       4896  HIT:        496  MISS:       4400
LLC PREFETCH  ACCESS:      15990  HIT:        276  MISS:      15714
LLC WRITEBACK ACCESS:      19692  HIT:      15734  MISS:       3958
LLC PREFETCH  REQUESTED:          0  ISSUED:          0  USEFUL:    1205052  USELESS:   14417030
Major fault: 0 Minor fault: 1138

CPU 4 cumulative IPC: 1.01475 instructions: 100000002 cycles: 98546233
L1D TOTAL     ACCESS:   24482589  HIT:   24482577  MISS:         12
L1D LOAD      ACCESS:   13133100  HIT:   13133088  MISS:         12
L1D RFO       ACCESS:   11349489  HIT:   11349489  MISS:          0
L1D PREFETCH  ACCESS:          0  HIT:          0  MISS:          0
L1D WRITEBACK ACCESS:          0  HIT:          0  MISS:          0
L1D PREFETCH  REQUESTED:          0  ISSUED:          0  USEFUL:          0  USELESS:          0
L1I TOTAL     ACCESS:   25249760  HIT:   25200017  MISS:      49743
L1I LOAD      ACCESS:   25249760  HIT:   25200017  MISS:      49743
L1I RFO       ACCESS:          0  HIT:          0  MISS:          0
L1I PREFETCH  ACCESS:          0  HIT:          0  MISS:          0
L1I WRITEBACK ACCESS:          0  HIT:          0  MISS:          0
L1I PREFETCH  REQUESTED:          0  ISSUED:          0  USEFUL:          0  USELESS:          0
L2C TOTAL     ACCESS:      49762  HIT:      49743  MISS:         19
L2C LOAD      ACCESS:      49755  HIT:      49743  MISS:         12
L2C RFO       ACCESS:          0  HIT:          0  MISS:          0
L2C PREFETCH  ACCESS:          7  HIT:          0  MISS:          7
L2C WRITEBACK ACCESS:          0  HIT:          0  MISS:          0
L2C PREFETCH  REQUESTED:       1427  ISSUED:       1427  USEFUL:       1059  USELESS:          0
LLC TOTAL     ACCESS:         19  HIT:          0  MISS:         19
LLC LOAD      ACCESS:         12  HIT:          0  MISS:         12
LLC RFO       ACCESS:          0  HIT:          0  MISS:          0
LLC PREFETCH  ACCESS:          7  HIT:          0  MISS:          7
LLC WRITEBACK ACCESS:          0  HIT:          0  MISS:          0
LLC PREFETCH  REQUESTED:          0  ISSUED:          0  USEFUL:    1205052  USELESS:   14417030
Major fault: 0 Minor fault: 48

CPU 5 cumulative IPC: 1.08339 instructions: 100000003 cycles: 92302875
L1D TOTAL     ACCESS:    9589220  HIT:    8015703  MISS:    1573517
L1D LOAD      ACCESS:    7043920  HIT:    5470404  MISS:    1573516
L1D RFO       ACCESS:    2545300  HIT:    2545299  MISS:          1
L1D PREFETCH  ACCESS:          0  HIT:          0  MISS:          0
L1D WRITEBACK ACCESS:          0  HIT:          0  MISS:          0
L1D PREFETCH  REQUESTED:          0  ISSUED:          0  USEFUL:          0  USELESS:          0
L1I TOTAL     ACCESS:   21710037  HIT:   21710033  MISS:          4
L1I LOAD      ACCESS:   21710037  HIT:   21710033  MISS:          4
L1I RFO       ACCESS:          0  HIT:          0  MISS:          0
L1I PREFETCH  ACCESS:          0  HIT:          0  MISS:          0
L1I WRITEBACK ACCESS:          0  HIT:          0  MISS:          0
L1I PREFETCH  REQUESTED:          0  ISSUED:          0  USEFUL:          0  USELESS:          0
L2C TOTAL     ACCESS:    2906524  HIT:    1332955  MISS:    1573569
L2C LOAD      ACCESS:    1573518  HIT:    1291394  MISS:     282124
L2C RFO       ACCESS:          1  HIT:          0  MISS:          1
L2C PREFETCH  ACCESS:    1315527  HIT:      24098  MISS:    1291429
L2C WRITEBACK ACCESS:      17478  HIT:      17463  MISS:         15
L2C PREFETCH  REQUESTED:   11019822  ISSUED:   11017658  USEFUL:   10013245  USELESS:         98
LLC TOTAL     ACCESS:    1592820  HIT:      19631  MISS:    1573189
LLC LOAD      ACCESS:     124712  HIT:        366  MISS:     124346
LLC RFO       ACCESS:          1  HIT:          0  MISS:          1
LLC PREFETCH  ACCESS:    1448841  HIT:          0  MISS:    1448841
LLC WRITEBACK ACCESS:      19266  HIT:      19265  MISS:          1
LLC PREFETCH  REQUESTED:          0  ISSUED:          0  USEFUL:    1205052  USELESS:   14417030
Major fault: 0 Minor fault: 122219

CPU 6 cumulative IPC: 1.08259 instructions: 100000001 cycles: 92370939
L1D TOTAL     ACCESS:   34732359  HIT:   30535291  MISS:    4197068
L1D LOAD      ACCESS:   17959166  HIT:   15694473  MISS:    2264693
L1D RFO       ACCESS:   16773193  HIT:   14840818  MISS:    1932375
L1D PREFETCH  ACCESS:          0  HIT:          0  MISS:          0
L1D WRITEBACK ACCESS:          0  HIT:          0  MISS:          0
L1D PREFETCH  REQUESTED:          0  ISSUED:          0  USEFUL:          0  USELESS:          0
L1I TOTAL     ACCESS:   24348787  HIT:   24348787  MISS:          0
L1I LOAD      ACCESS:   24348787  HIT:   24348787  MISS:          0
L1I RFO       ACCESS:          0  HIT:          0  MISS:          0
L1I PREFETCH  ACCESS:          0  HIT:          0  MISS:          0
L1I WRITEBACK ACCESS:          0  HIT:          0  MISS:          0
L1I PREFETCH  REQUESTED:          0  ISSUED:          0  USEFUL:          0  USELESS:          0
L2C TOTAL     ACCESS:    6651087  HIT:    5116387  MISS:    1534700
L2C LOAD      ACCESS:    2263429  HIT:    2053871  MISS:     209558
L2C RFO       ACCESS:    1713195  HIT:    1117816  MISS:     595379
L2C PREFETCH  ACCESS:     729224  HIT:          0  MISS:     729224
L2C WRITEBACK ACCESS:    1945239  HIT:    1944700  MISS:        539
L2C PREFETCH  REQUESTED:    3757332  ISSUED:    3757332  USEFUL:    3751437  USELESS:       2826
LLC TOTAL     ACCESS:    2130501  HIT:     767500  MISS:    1363001
LLC LOAD      ACCESS:     209141  HIT:     171214  MISS:      37927
LLC RFO       ACCESS:     595378  HIT:          0  MISS:     595378
LLC PREFETCH  ACCESS:     729641  HIT:          0  MISS:     729641
LLC WRITEBACK ACCESS:     596341  HIT:     596286  MISS:         55
LLC PREFETCH  REQUESTED:          0  ISSUED:          0  USEFUL:    1205052  USELESS:   14417030
Major fault: 0 Minor fault: 97972

CPU 7 cumulative IPC: 0.217521 instructions: 100000002 cycles: 459724991
L1D TOTAL     ACCESS:   41149953  HIT:   37417472  MISS:    3732481
L1D LOAD      ACCESS:   31034953  HIT:   27338259  MISS:    3696694
L1D RFO       ACCESS:   10115000  HIT:   10079213  MISS:      35787
L1D PREFETCH  ACCESS:          0  HIT:          0  MISS:          0
L1D WRITEBACK ACCESS:          0  HIT:          0  MISS:          0
L1D PREFETCH  REQUESTED:          0  ISSUED:          0  USEFUL:          0  USELESS:          0
L1I TOTAL     ACCESS:   21612987  HIT:   21612987  MISS:          0
L1I LOAD      ACCESS:   21612987  HIT:   21612987  MISS:          0
L1I RFO       ACCESS:          0  HIT:          0  MISS:          0
L1I PREFETCH  ACCESS:          0  HIT:          0  MISS:          0
L1I WRITEBACK ACCESS:          0  HIT:          0  MISS:          0
L1I PREFETCH  REQUESTED:          0  ISSUED:          0  USEFUL:          0  USELESS:          0
L2C TOTAL     ACCESS:    4383338  HIT:    1661663  MISS:    2721675
L2C LOAD      ACCESS:    3696690  HIT:    1315356  MISS:    2381334
L2C RFO       ACCESS:      35784  HIT:      29111  MISS:       6673
L2C PREFETCH  ACCESS:     381805  HIT:      48772  MISS:     333033
L2C WRITEBACK ACCESS:     269059  HIT:     268424  MISS:        635
L2C PREFETCH  REQUESTED:     470588  ISSUED:     470588  USEFUL:     215528  USELESS:     179560
LLC TOTAL     ACCESS:    2895000  HIT:    1152591  MISS:    1742409
LLC LOAD      ACCESS:    2378447  HIT:     862638  MISS:    1515809
LLC RFO       ACCESS:       6667  HIT:       4784  MISS:       1883
LLC PREFETCH  ACCESS:     335926  HIT:     111444  MISS:     224482
LLC WRITEBACK ACCESS:     173960  HIT:     173725  MISS:        235
LLC PREFETCH  REQUESTED:          0  ISSUED:          0  USEFUL:    1205052  USELESS:   14417030
Major fault: 0 Minor fault: 119428

L2C DA-AMPM prefetcher final stats

L2C DA-AMPM prefetcher final stats

L2C DA-AMPM prefetcher final stats

L2C DA-AMPM prefetcher final stats

L2C DA-AMPM prefetcher final stats

L2C DA-AMPM prefetcher final stats

L2C DA-AMPM prefetcher final stats

L2C DA-AMPM prefetcher final stats

DRAM Statistics
 CHANNEL 0
 RQ ROW_BUFFER_HIT:    5878985  ROW_BUFFER_MISS:    4601151
 DBUS_CONGESTED:   16956414
 WQ ROW_BUFFER_HIT:     433984  ROW_BUFFER_MISS:    2508481  FULL:          0

 CHANNEL 1
 RQ ROW_BUFFER_HIT:    5867679  ROW_BUFFER_MISS:    4611539
 DBUS_CONGESTED:   16956414
 WQ ROW_BUFFER_HIT:     434148  ROW_BUFFER_MISS:    2507743  FULL:          0

 AVG_CONGESTED_CYCLE: 13
