
*** ChampSim Multicore Out-of-Order Simulator ***

Warmup Instructions: 20000000
Simulation Instructions: 100000000
Number of CPUs: 8
LLC sets: 16384
LLC ways: 16
Off-chip DRAM Size: 8192 MB Channels: 2 Width: 64-bit Data Rate: 1600 MT/s

CPU 0 runs /scratch/user/djimenez/champsim-traces/speccpu2017/xz/625.x264_s/625.x264_s-18B.champsimtrace.xz
CPU 1 runs /scratch/user/djimenez/champsim-traces/speccpu2017/xz/623.xalancbmk_s/623.xalancbmk_s-592B.champsimtrace.xz
CPU 2 runs /scratch/user/djimenez/champsim-traces/speccpu2017/xz/619.lbm_s/619.lbm_s-2676B.champsimtrace.xz
CPU 3 runs /scratch/user/djimenez/champsim-traces/speccpu2017/xz/625.x264_s/625.x264_s-12B.champsimtrace.xz
CPU 4 runs /scratch/user/djimenez/champsim-traces/speccpu2017/xz/605.mcf_s/605.mcf_s-1536B.champsimtrace.xz
CPU 5 runs /scratch/user/djimenez/champsim-traces/speccpu2017/xz/603.bwaves_s/603.bwaves_s-2931B.champsimtrace.xz
CPU 6 runs /scratch/user/djimenez/champsim-traces/speccpu2017/xz/623.xalancbmk_s/623.xalancbmk_s-325B.champsimtrace.xz
CPU 7 runs /scratch/user/djimenez/champsim-traces/speccpu2017/xz/605.mcf_s/605.mcf_s-1644B.champsimtrace.xz
L2C DA-AMPM prefetcher
L2C DA-AMPM prefetcher
L2C DA-AMPM prefetcher
L2C DA-AMPM prefetcher
L2C DA-AMPM prefetcher
L2C DA-AMPM prefetcher
L2C DA-AMPM prefetcher
L2C DA-AMPM prefetcher
Heartbeat CPU 4 instructions: 10000002 cycles: 3667715 heartbeat IPC: 2.72649 cumulative IPC: 2.72649 (Simulation time: 0 hr 3 min 38 sec) 
Heartbeat CPU 3 instructions: 10000001 cycles: 3758955 heartbeat IPC: 2.66031 cumulative IPC: 2.66031 (Simulation time: 0 hr 3 min 43 sec) 
Heartbeat CPU 0 instructions: 10000003 cycles: 3849232 heartbeat IPC: 2.59792 cumulative IPC: 2.59792 (Simulation time: 0 hr 3 min 48 sec) 
Heartbeat CPU 2 instructions: 10000000 cycles: 4852580 heartbeat IPC: 2.06076 cumulative IPC: 2.06076 (Simulation time: 0 hr 4 min 47 sec) 
Heartbeat CPU 1 instructions: 10000002 cycles: 5042622 heartbeat IPC: 1.9831 cumulative IPC: 1.9831 (Simulation time: 0 hr 4 min 58 sec) 
Heartbeat CPU 5 instructions: 10000000 cycles: 5228031 heartbeat IPC: 1.91277 cumulative IPC: 1.91277 (Simulation time: 0 hr 5 min 9 sec) 
Heartbeat CPU 6 instructions: 10000000 cycles: 6123975 heartbeat IPC: 1.63293 cumulative IPC: 1.63293 (Simulation time: 0 hr 6 min 3 sec) 
Heartbeat CPU 4 instructions: 20000000 cycles: 7327580 heartbeat IPC: 2.73234 cumulative IPC: 2.72941 (Simulation time: 0 hr 7 min 15 sec) 
Heartbeat CPU 3 instructions: 20000000 cycles: 7570480 heartbeat IPC: 2.62362 cumulative IPC: 2.64184 (Simulation time: 0 hr 7 min 30 sec) 
Heartbeat CPU 0 instructions: 20000000 cycles: 7704883 heartbeat IPC: 2.5936 cumulative IPC: 2.59576 (Simulation time: 0 hr 7 min 37 sec) 
Heartbeat CPU 2 instructions: 20000000 cycles: 9683881 heartbeat IPC: 2.06984 cumulative IPC: 2.06529 (Simulation time: 0 hr 9 min 34 sec) 
Heartbeat CPU 1 instructions: 20000000 cycles: 10165073 heartbeat IPC: 1.95219 cumulative IPC: 1.96752 (Simulation time: 0 hr 10 min 2 sec) 
Heartbeat CPU 5 instructions: 20000000 cycles: 10455465 heartbeat IPC: 1.91298 cumulative IPC: 1.91288 (Simulation time: 0 hr 10 min 19 sec) 
Heartbeat CPU 7 instructions: 10000002 cycles: 10570307 heartbeat IPC: 0.946047 cumulative IPC: 0.946047 (Simulation time: 0 hr 10 min 26 sec) 
Heartbeat CPU 4 instructions: 30000002 cycles: 11003898 heartbeat IPC: 2.72011 cumulative IPC: 0.908769 (Simulation time: 0 hr 10 min 53 sec) 
Heartbeat CPU 3 instructions: 30000001 cycles: 11374168 heartbeat IPC: 2.62903 cumulative IPC: 0.879185 (Simulation time: 0 hr 11 min 13 sec) 
Heartbeat CPU 0 instructions: 30000001 cycles: 11527832 heartbeat IPC: 2.61578 cumulative IPC: 0.867466 (Simulation time: 0 hr 11 min 22 sec) 
Heartbeat CPU 6 instructions: 20000000 cycles: 12334178 heartbeat IPC: 1.61025 cumulative IPC: 1.62151 (Simulation time: 0 hr 12 min 5 sec) 
Heartbeat CPU 2 instructions: 30000003 cycles: 14489084 heartbeat IPC: 2.08108 cumulative IPC: 0.690175 (Simulation time: 0 hr 14 min 8 sec) 
Heartbeat CPU 4 instructions: 40000000 cycles: 14679266 heartbeat IPC: 2.72082 cumulative IPC: 1.36247 (Simulation time: 0 hr 14 min 19 sec) 
Heartbeat CPU 3 instructions: 40000000 cycles: 15173537 heartbeat IPC: 2.63202 cumulative IPC: 1.31808 (Simulation time: 0 hr 14 min 48 sec) 
Heartbeat CPU 0 instructions: 40000000 cycles: 15344268 heartbeat IPC: 2.62025 cumulative IPC: 1.30342 (Simulation time: 0 hr 14 min 58 sec) 
Heartbeat CPU 5 instructions: 30000002 cycles: 15683155 heartbeat IPC: 1.91289 cumulative IPC: 0.637627 (Simulation time: 0 hr 15 min 18 sec) 
Heartbeat CPU 1 instructions: 30000003 cycles: 16162759 heartbeat IPC: 1.66731 cumulative IPC: 0.618706 (Simulation time: 0 hr 15 min 45 sec) 
Heartbeat CPU 4 instructions: 50000002 cycles: 18360529 heartbeat IPC: 2.71646 cumulative IPC: 1.63394 (Simulation time: 0 hr 17 min 51 sec) 
Heartbeat CPU 6 instructions: 30000001 cycles: 18693714 heartbeat IPC: 1.57244 cumulative IPC: 0.534939 (Simulation time: 0 hr 18 min 10 sec) 
Heartbeat CPU 3 instructions: 50000001 cycles: 18967824 heartbeat IPC: 2.63554 cumulative IPC: 1.58163 (Simulation time: 0 hr 18 min 26 sec) 
Heartbeat CPU 0 instructions: 50000000 cycles: 19164297 heartbeat IPC: 2.61778 cumulative IPC: 1.56541 (Simulation time: 0 hr 18 min 37 sec) 
Heartbeat CPU 2 instructions: 40000000 cycles: 19242549 heartbeat IPC: 2.10373 cumulative IPC: 1.03936 (Simulation time: 0 hr 18 min 42 sec) 
Heartbeat CPU 5 instructions: 40000000 cycles: 20910425 heartbeat IPC: 1.91304 cumulative IPC: 0.956461 (Simulation time: 0 hr 20 min 17 sec) 
Heartbeat CPU 7 instructions: 20000000 cycles: 21078433 heartbeat IPC: 0.951644 cumulative IPC: 0.948837 (Simulation time: 0 hr 20 min 27 sec) 

Warmup complete CPU 0 instructions: 55009643 cycles: 21078436 (Simulation time: 0 hr 20 min 27 sec) 
Warmup complete CPU 1 instructions: 37510023 cycles: 21078436 (Simulation time: 0 hr 20 min 27 sec) 
Warmup complete CPU 2 instructions: 43886525 cycles: 21078436 (Simulation time: 0 hr 20 min 27 sec) 
Warmup complete CPU 3 instructions: 55544972 cycles: 21078436 (Simulation time: 0 hr 20 min 27 sec) 
Warmup complete CPU 4 instructions: 57391165 cycles: 21078436 (Simulation time: 0 hr 20 min 27 sec) 
Warmup complete CPU 5 instructions: 40321494 cycles: 21078436 (Simulation time: 0 hr 20 min 27 sec) 
Warmup complete CPU 6 instructions: 33816674 cycles: 21078436 (Simulation time: 0 hr 20 min 27 sec) 
Warmup complete CPU 7 instructions: 20000001 cycles: 21078436 (Simulation time: 0 hr 20 min 27 sec) 

Heartbeat CPU 3 instructions: 60000000 cycles: 24445359 heartbeat IPC: 1.82564 cumulative IPC: 1.32317 (Simulation time: 0 hr 21 min 46 sec) 
Heartbeat CPU 0 instructions: 60000000 cycles: 24863383 heartbeat IPC: 1.75467 cumulative IPC: 1.31847 (Simulation time: 0 hr 21 min 56 sec) 
Heartbeat CPU 1 instructions: 40000000 cycles: 28866715 heartbeat IPC: 0.787156 cumulative IPC: 0.319708 (Simulation time: 0 hr 23 min 30 sec) 
Heartbeat CPU 5 instructions: 50000002 cycles: 31618880 heartbeat IPC: 0.933842 cumulative IPC: 0.918226 (Simulation time: 0 hr 24 min 35 sec) 
Heartbeat CPU 3 instructions: 70000002 cycles: 32103494 heartbeat IPC: 1.3058 cumulative IPC: 1.31111 (Simulation time: 0 hr 24 min 46 sec) 
Heartbeat CPU 0 instructions: 70000003 cycles: 32452648 heartbeat IPC: 1.31765 cumulative IPC: 1.31793 (Simulation time: 0 hr 24 min 54 sec) 
Heartbeat CPU 2 instructions: 50000001 cycles: 34394172 heartbeat IPC: 0.659995 cumulative IPC: 0.459117 (Simulation time: 0 hr 25 min 40 sec) 
Heartbeat CPU 6 instructions: 40000000 cycles: 36304794 heartbeat IPC: 0.567824 cumulative IPC: 0.406094 (Simulation time: 0 hr 26 min 25 sec) 
Heartbeat CPU 3 instructions: 80000000 cycles: 39676313 heartbeat IPC: 1.32051 cumulative IPC: 1.31494 (Simulation time: 0 hr 27 min 45 sec) 
Heartbeat CPU 0 instructions: 80000000 cycles: 40035357 heartbeat IPC: 1.31879 cumulative IPC: 1.31827 (Simulation time: 0 hr 27 min 53 sec) 
Heartbeat CPU 4 instructions: 60000000 cycles: 41463012 heartbeat IPC: 0.432854 cumulative IPC: 0.127981 (Simulation time: 0 hr 28 min 28 sec) 
Heartbeat CPU 5 instructions: 60000000 cycles: 42356943 heartbeat IPC: 0.931266 cumulative IPC: 0.924807 (Simulation time: 0 hr 28 min 49 sec) 
Heartbeat CPU 3 instructions: 90000002 cycles: 47230042 heartbeat IPC: 1.32385 cumulative IPC: 1.31751 (Simulation time: 0 hr 30 min 50 sec) 
Heartbeat CPU 0 instructions: 90000001 cycles: 47637630 heartbeat IPC: 1.3154 cumulative IPC: 1.31745 (Simulation time: 0 hr 31 min 0 sec) 
Heartbeat CPU 6 instructions: 50000001 cycles: 52510596 heartbeat IPC: 0.617063 cumulative IPC: 0.514865 (Simulation time: 0 hr 32 min 59 sec) 
Heartbeat CPU 5 instructions: 70000001 cycles: 53016067 heartbeat IPC: 0.938164 cumulative IPC: 0.929264 (Simulation time: 0 hr 33 min 11 sec) 
Heartbeat CPU 2 instructions: 60000000 cycles: 54693633 heartbeat IPC: 0.492624 cumulative IPC: 0.479351 (Simulation time: 0 hr 33 min 53 sec) 
Heartbeat CPU 3 instructions: 100000000 cycles: 54767461 heartbeat IPC: 1.32671 cumulative IPC: 1.31957 (Simulation time: 0 hr 33 min 54 sec) 
Heartbeat CPU 0 instructions: 100000000 cycles: 55219175 heartbeat IPC: 1.31899 cumulative IPC: 1.31779 (Simulation time: 0 hr 34 min 5 sec) 
Heartbeat CPU 1 instructions: 50000002 cycles: 58375494 heartbeat IPC: 0.338882 cumulative IPC: 0.334878 (Simulation time: 0 hr 35 min 23 sec) 
Heartbeat CPU 3 instructions: 110000003 cycles: 62351477 heartbeat IPC: 1.31856 cumulative IPC: 1.31939 (Simulation time: 0 hr 36 min 59 sec) 
Heartbeat CPU 0 instructions: 110000000 cycles: 62789950 heartbeat IPC: 1.32087 cumulative IPC: 1.31835 (Simulation time: 0 hr 37 min 10 sec) 
Heartbeat CPU 5 instructions: 80000000 cycles: 63680188 heartbeat IPC: 0.937724 cumulative IPC: 0.931382 (Simulation time: 0 hr 37 min 31 sec) 
Heartbeat CPU 3 instructions: 120000000 cycles: 69890039 heartbeat IPC: 1.32651 cumulative IPC: 1.32049 (Simulation time: 0 hr 40 min 1 sec) 
Heartbeat CPU 6 instructions: 60000000 cycles: 70142062 heartbeat IPC: 0.567168 cumulative IPC: 0.533661 (Simulation time: 0 hr 40 min 7 sec) 
Heartbeat CPU 0 instructions: 120000000 cycles: 70365969 heartbeat IPC: 1.31995 cumulative IPC: 1.3186 (Simulation time: 0 hr 40 min 13 sec) 
Heartbeat CPU 2 instructions: 70000000 cycles: 74151535 heartbeat IPC: 0.51393 cumulative IPC: 0.492028 (Simulation time: 0 hr 41 min 41 sec) 
Heartbeat CPU 5 instructions: 90000002 cycles: 74316849 heartbeat IPC: 0.940145 cumulative IPC: 0.933133 (Simulation time: 0 hr 41 min 45 sec) 
Heartbeat CPU 3 instructions: 130000002 cycles: 77440574 heartbeat IPC: 1.32441 cumulative IPC: 1.32101 (Simulation time: 0 hr 42 min 57 sec) 
Heartbeat CPU 0 instructions: 130000001 cycles: 77972715 heartbeat IPC: 1.31462 cumulative IPC: 1.31807 (Simulation time: 0 hr 43 min 9 sec) 
Heartbeat CPU 7 instructions: 30000003 cycles: 83866251 heartbeat IPC: 0.159267 cumulative IPC: 0.159267 (Simulation time: 0 hr 45 min 25 sec) 
Heartbeat CPU 3 instructions: 140000000 cycles: 84986137 heartbeat IPC: 1.32528 cumulative IPC: 1.32152 (Simulation time: 0 hr 45 min 51 sec) 
Heartbeat CPU 5 instructions: 100000000 cycles: 85102361 heartbeat IPC: 0.92717 cumulative IPC: 0.932128 (Simulation time: 0 hr 45 min 54 sec) 
Heartbeat CPU 1 instructions: 60000000 cycles: 86002784 heartbeat IPC: 0.361961 cumulative IPC: 0.346403 (Simulation time: 0 hr 46 min 15 sec) 
Heartbeat CPU 0 instructions: 140000000 cycles: 86820975 heartbeat IPC: 1.13017 cumulative IPC: 1.29278 (Simulation time: 0 hr 46 min 34 sec) 
Heartbeat CPU 2 instructions: 80000000 cycles: 92301589 heartbeat IPC: 0.550963 cumulative IPC: 0.507047 (Simulation time: 0 hr 48 min 44 sec) 
Heartbeat CPU 3 instructions: 150000001 cycles: 92496975 heartbeat IPC: 1.33141 cumulative IPC: 1.32256 (Simulation time: 0 hr 48 min 49 sec) 
Heartbeat CPU 0 instructions: 150000003 cycles: 94768025 heartbeat IPC: 1.25833 cumulative IPC: 1.28906 (Simulation time: 0 hr 49 min 43 sec) 
Heartbeat CPU 5 instructions: 110000000 cycles: 95831915 heartbeat IPC: 0.932005 cumulative IPC: 0.932111 (Simulation time: 0 hr 50 min 9 sec) 
Finished CPU 3 instructions: 100000001 cycles: 75597270 cumulative IPC: 1.3228 (Simulation time: 0 hr 50 min 28 sec) 
Finished CPU 0 instructions: 100000000 cycles: 77319229 cumulative IPC: 1.29334 (Simulation time: 0 hr 51 min 8 sec) 
Heartbeat CPU 6 instructions: 70000000 cycles: 98862891 heartbeat IPC: 0.348179 cumulative IPC: 0.465174 (Simulation time: 0 hr 51 min 18 sec) 
Heartbeat CPU 3 instructions: 160000000 cycles: 100050623 heartbeat IPC: 1.32386 cumulative IPC: 1.32268 (Simulation time: 0 hr 51 min 47 sec) 
Heartbeat CPU 0 instructions: 160000000 cycles: 101918120 heartbeat IPC: 1.39858 cumulative IPC: 1.29875 (Simulation time: 0 hr 52 min 31 sec) 
Heartbeat CPU 5 instructions: 120000000 cycles: 106472675 heartbeat IPC: 0.939783 cumulative IPC: 0.933067 (Simulation time: 0 hr 54 min 12 sec) 
Heartbeat CPU 3 instructions: 170000002 cycles: 107622550 heartbeat IPC: 1.32067 cumulative IPC: 1.32251 (Simulation time: 0 hr 54 min 37 sec) 
Heartbeat CPU 0 instructions: 170000001 cycles: 109236202 heartbeat IPC: 1.36648 cumulative IPC: 1.30437 (Simulation time: 0 hr 55 min 12 sec) 
Heartbeat CPU 2 instructions: 90000000 cycles: 110308978 heartbeat IPC: 0.555328 cumulative IPC: 0.51679 (Simulation time: 0 hr 55 min 36 sec) 
Heartbeat CPU 1 instructions: 70000001 cycles: 112423882 heartbeat IPC: 0.378485 cumulative IPC: 0.355683 (Simulation time: 0 hr 56 min 22 sec) 
Heartbeat CPU 3 instructions: 180000000 cycles: 115198351 heartbeat IPC: 1.31999 cumulative IPC: 1.3223 (Simulation time: 0 hr 57 min 24 sec) 
Heartbeat CPU 0 instructions: 180000000 cycles: 116353373 heartbeat IPC: 1.40505 cumulative IPC: 1.31189 (Simulation time: 0 hr 57 min 50 sec) 
Heartbeat CPU 5 instructions: 130000001 cycles: 117190190 heartbeat IPC: 0.933052 cumulative IPC: 0.933065 (Simulation time: 0 hr 58 min 9 sec) 
Heartbeat CPU 4 instructions: 70000003 cycles: 117535145 heartbeat IPC: 0.131454 cumulative IPC: 0.13072 (Simulation time: 0 hr 58 min 17 sec) 
Heartbeat CPU 3 instructions: 190000003 cycles: 123582051 heartbeat IPC: 1.19279 cumulative IPC: 1.31171 (Simulation time: 1 hr 0 min 41 sec) 
Heartbeat CPU 0 instructions: 190000000 cycles: 123659463 heartbeat IPC: 1.36872 cumulative IPC: 1.31594 (Simulation time: 1 hr 0 min 43 sec) 
Heartbeat CPU 2 instructions: 100000000 cycles: 127379505 heartbeat IPC: 0.585805 cumulative IPC: 0.527873 (Simulation time: 1 hr 2 min 13 sec) 
Heartbeat CPU 5 instructions: 140000000 cycles: 127902330 heartbeat IPC: 0.93352 cumulative IPC: 0.933111 (Simulation time: 1 hr 2 min 27 sec) 
Finished CPU 5 instructions: 100000001 cycles: 107167015 cumulative IPC: 0.933123 (Simulation time: 1 hr 2 min 35 sec) 
Heartbeat CPU 6 instructions: 80000000 cycles: 129257680 heartbeat IPC: 0.329004 cumulative IPC: 0.426915 (Simulation time: 1 hr 2 min 58 sec) 
Heartbeat CPU 0 instructions: 200000000 cycles: 131028212 heartbeat IPC: 1.35708 cumulative IPC: 1.3187 (Simulation time: 1 hr 3 min 37 sec) 
Heartbeat CPU 3 instructions: 200000000 cycles: 131327192 heartbeat IPC: 1.29113 cumulative IPC: 1.31026 (Simulation time: 1 hr 3 min 45 sec) 
Heartbeat CPU 1 instructions: 80000000 cycles: 132389500 heartbeat IPC: 0.500861 cumulative IPC: 0.381723 (Simulation time: 1 hr 4 min 9 sec) 
Heartbeat CPU 0 instructions: 210000001 cycles: 138159468 heartbeat IPC: 1.40228 cumulative IPC: 1.32379 (Simulation time: 1 hr 6 min 25 sec) 
Heartbeat CPU 5 instructions: 150000002 cycles: 138573758 heartbeat IPC: 0.937082 cumulative IPC: 0.933471 (Simulation time: 1 hr 6 min 35 sec) 
Heartbeat CPU 3 instructions: 210000000 cycles: 139137497 heartbeat IPC: 1.28036 cumulative IPC: 1.30829 (Simulation time: 1 hr 6 min 48 sec) 
Heartbeat CPU 2 instructions: 110000002 cycles: 144142173 heartbeat IPC: 0.596564 cumulative IPC: 0.53723 (Simulation time: 1 hr 8 min 44 sec) 
Heartbeat CPU 0 instructions: 220000000 cycles: 145430935 heartbeat IPC: 1.37524 cumulative IPC: 1.3268 (Simulation time: 1 hr 9 min 14 sec) 
Heartbeat CPU 7 instructions: 40000000 cycles: 146457951 heartbeat IPC: 0.159766 cumulative IPC: 0.159516 (Simulation time: 1 hr 9 min 38 sec) 
Heartbeat CPU 3 instructions: 220000000 cycles: 146962131 heartbeat IPC: 1.27802 cumulative IPC: 1.3064 (Simulation time: 1 hr 9 min 49 sec) 
Heartbeat CPU 5 instructions: 160000000 cycles: 149231603 heartbeat IPC: 0.938276 cumulative IPC: 0.933871 (Simulation time: 1 hr 10 min 43 sec) 
Heartbeat CPU 1 instructions: 90000000 cycles: 150833481 heartbeat IPC: 0.542182 cumulative IPC: 0.404531 (Simulation time: 1 hr 11 min 20 sec) 
Heartbeat CPU 0 instructions: 230000000 cycles: 152766250 heartbeat IPC: 1.36327 cumulative IPC: 1.32883 (Simulation time: 1 hr 12 min 5 sec) 
Heartbeat CPU 3 instructions: 230000001 cycles: 154644726 heartbeat IPC: 1.30164 cumulative IPC: 1.30613 (Simulation time: 1 hr 12 min 48 sec) 
Heartbeat CPU 6 instructions: 90000002 cycles: 158630956 heartbeat IPC: 0.340446 cumulative IPC: 0.40845 (Simulation time: 1 hr 14 min 21 sec) 
Heartbeat CPU 5 instructions: 170000002 cycles: 159959144 heartbeat IPC: 0.93218 cumulative IPC: 0.93374 (Simulation time: 1 hr 14 min 52 sec) 
Heartbeat CPU 0 instructions: 240000000 cycles: 159984889 heartbeat IPC: 1.3853 cumulative IPC: 1.33176 (Simulation time: 1 hr 14 min 52 sec) 
Heartbeat CPU 2 instructions: 120000000 cycles: 160371349 heartbeat IPC: 0.616174 cumulative IPC: 0.546427 (Simulation time: 1 hr 15 min 1 sec) 
Heartbeat CPU 3 instructions: 240000000 cycles: 162898643 heartbeat IPC: 1.21155 cumulative IPC: 1.30063 (Simulation time: 1 hr 15 min 59 sec) 
Heartbeat CPU 0 instructions: 250000001 cycles: 167331047 heartbeat IPC: 1.36126 cumulative IPC: 1.33324 (Simulation time: 1 hr 17 min 42 sec) 
Heartbeat CPU 3 instructions: 250000001 cycles: 170657387 heartbeat IPC: 1.28887 cumulative IPC: 1.30002 (Simulation time: 1 hr 19 min 0 sec) 
Heartbeat CPU 5 instructions: 180000000 cycles: 170669645 heartbeat IPC: 0.933663 cumulative IPC: 0.933735 (Simulation time: 1 hr 19 min 0 sec) 
Heartbeat CPU 1 instructions: 100000000 cycles: 172525758 heartbeat IPC: 0.460994 cumulative IPC: 0.412619 (Simulation time: 1 hr 19 min 47 sec) 
Heartbeat CPU 0 instructions: 260000000 cycles: 174498494 heartbeat IPC: 1.3952 cumulative IPC: 1.33614 (Simulation time: 1 hr 20 min 33 sec) 
Heartbeat CPU 2 instructions: 130000001 cycles: 175955572 heartbeat IPC: 0.641675 cumulative IPC: 0.556012 (Simulation time: 1 hr 21 min 7 sec) 
Heartbeat CPU 3 instructions: 260000000 cycles: 178490231 heartbeat IPC: 1.27668 cumulative IPC: 1.29885 (Simulation time: 1 hr 22 min 5 sec) 
Heartbeat CPU 5 instructions: 190000003 cycles: 181363381 heartbeat IPC: 0.935127 cumulative IPC: 0.933828 (Simulation time: 1 hr 23 min 11 sec) 
Heartbeat CPU 0 instructions: 270000000 cycles: 181633821 heartbeat IPC: 1.40148 cumulative IPC: 1.33904 (Simulation time: 1 hr 23 min 17 sec) 
Heartbeat CPU 6 instructions: 100000000 cycles: 184497298 heartbeat IPC: 0.386603 cumulative IPC: 0.404992 (Simulation time: 1 hr 24 min 23 sec) 
Heartbeat CPU 3 instructions: 270000003 cycles: 186321928 heartbeat IPC: 1.27686 cumulative IPC: 1.29781 (Simulation time: 1 hr 25 min 5 sec) 
Heartbeat CPU 0 instructions: 280000000 cycles: 188948559 heartbeat IPC: 1.3671 cumulative IPC: 1.34026 (Simulation time: 1 hr 26 min 5 sec) 
Heartbeat CPU 2 instructions: 140000000 cycles: 191399182 heartbeat IPC: 0.647517 cumulative IPC: 0.564309 (Simulation time: 1 hr 27 min 2 sec) 
Heartbeat CPU 5 instructions: 200000000 cycles: 192000761 heartbeat IPC: 0.940081 cumulative IPC: 0.934217 (Simulation time: 1 hr 27 min 15 sec) 
Heartbeat CPU 4 instructions: 80000000 cycles: 193076622 heartbeat IPC: 0.132378 cumulative IPC: 0.131448 (Simulation time: 1 hr 27 min 40 sec) 
Heartbeat CPU 3 instructions: 280000000 cycles: 193990443 heartbeat IPC: 1.30403 cumulative IPC: 1.29809 (Simulation time: 1 hr 28 min 1 sec) 
Heartbeat CPU 0 instructions: 290000001 cycles: 196088802 heartbeat IPC: 1.40051 cumulative IPC: 1.34272 (Simulation time: 1 hr 28 min 49 sec) 
Finished CPU 2 instructions: 100000000 cycles: 176012183 cumulative IPC: 0.568143 (Simulation time: 1 hr 29 min 11 sec) 
Heartbeat CPU 3 instructions: 290000002 cycles: 201703370 heartbeat IPC: 1.29652 cumulative IPC: 1.29802 (Simulation time: 1 hr 30 min 56 sec) 
Heartbeat CPU 5 instructions: 210000002 cycles: 202697216 heartbeat IPC: 0.934889 cumulative IPC: 0.934256 (Simulation time: 1 hr 31 min 19 sec) 
Heartbeat CPU 0 instructions: 300000000 cycles: 203156145 heartbeat IPC: 1.41496 cumulative IPC: 1.34553 (Simulation time: 1 hr 31 min 30 sec) 
Heartbeat CPU 1 instructions: 110000001 cycles: 203794390 heartbeat IPC: 0.319809 cumulative IPC: 0.396736 (Simulation time: 1 hr 31 min 45 sec) 
Heartbeat CPU 2 instructions: 150000001 cycles: 206405051 heartbeat IPC: 0.666406 cumulative IPC: 0.572576 (Simulation time: 1 hr 32 min 46 sec) 
Heartbeat CPU 6 instructions: 110000000 cycles: 207721985 heartbeat IPC: 0.430576 cumulative IPC: 0.408175 (Simulation time: 1 hr 33 min 19 sec) 
Heartbeat CPU 7 instructions: 50000001 cycles: 208972226 heartbeat IPC: 0.159963 cumulative IPC: 0.159665 (Simulation time: 1 hr 33 min 49 sec) 
Heartbeat CPU 3 instructions: 300000000 cycles: 208988084 heartbeat IPC: 1.37274 cumulative IPC: 1.30092 (Simulation time: 1 hr 33 min 49 sec) 
Heartbeat CPU 0 instructions: 310000000 cycles: 210451701 heartbeat IPC: 1.3707 cumulative IPC: 1.3465 (Simulation time: 1 hr 34 min 25 sec) 
Heartbeat CPU 5 instructions: 220000000 cycles: 213439825 heartbeat IPC: 0.930872 cumulative IPC: 0.934067 (Simulation time: 1 hr 35 min 37 sec) 
Heartbeat CPU 3 instructions: 310000000 cycles: 216480048 heartbeat IPC: 1.33476 cumulative IPC: 1.30222 (Simulation time: 1 hr 36 min 51 sec) 
Heartbeat CPU 0 instructions: 320000000 cycles: 217508071 heartbeat IPC: 1.41716 cumulative IPC: 1.34903 (Simulation time: 1 hr 37 min 16 sec) 
Heartbeat CPU 2 instructions: 160000000 cycles: 220833481 heartbeat IPC: 0.693076 cumulative IPC: 0.581279 (Simulation time: 1 hr 38 min 36 sec) 
Heartbeat CPU 6 instructions: 120000000 cycles: 222618205 heartbeat IPC: 0.671311 cumulative IPC: 0.427624 (Simulation time: 1 hr 39 min 18 sec) 
Heartbeat CPU 3 instructions: 320000000 cycles: 224000229 heartbeat IPC: 1.32976 cumulative IPC: 1.30324 (Simulation time: 1 hr 39 min 49 sec) 
Heartbeat CPU 5 instructions: 230000003 cycles: 224186334 heartbeat IPC: 0.930535 cumulative IPC: 0.933881 (Simulation time: 1 hr 39 min 53 sec) 
Heartbeat CPU 0 instructions: 330000000 cycles: 224483092 heartbeat IPC: 1.43369 cumulative IPC: 1.35194 (Simulation time: 1 hr 40 min 0 sec) 
Heartbeat CPU 0 instructions: 340000000 cycles: 231467100 heartbeat IPC: 1.43184 cumulative IPC: 1.35459 (Simulation time: 1 hr 42 min 38 sec) 
Heartbeat CPU 3 instructions: 330000002 cycles: 231539946 heartbeat IPC: 1.32631 cumulative IPC: 1.30406 (Simulation time: 1 hr 42 min 39 sec) 
Heartbeat CPU 5 instructions: 240000000 cycles: 234906712 heartbeat IPC: 0.932803 cumulative IPC: 0.933827 (Simulation time: 1 hr 43 min 55 sec) 
Heartbeat CPU 2 instructions: 170000002 cycles: 235225001 heartbeat IPC: 0.694854 cumulative IPC: 0.588912 (Simulation time: 1 hr 44 min 2 sec) 
Heartbeat CPU 1 instructions: 120000000 cycles: 235792746 heartbeat IPC: 0.312516 cumulative IPC: 0.384185 (Simulation time: 1 hr 44 min 14 sec) 
Heartbeat CPU 0 instructions: 350000003 cycles: 238472784 heartbeat IPC: 1.42741 cumulative IPC: 1.35694 (Simulation time: 1 hr 45 min 14 sec) 
Heartbeat CPU 3 instructions: 340000000 cycles: 239089415 heartbeat IPC: 1.3246 cumulative IPC: 1.30477 (Simulation time: 1 hr 45 min 27 sec) 
Heartbeat CPU 6 instructions: 130000000 cycles: 244044405 heartbeat IPC: 0.466718 cumulative IPC: 0.431381 (Simulation time: 1 hr 47 min 16 sec) 
Heartbeat CPU 0 instructions: 360000000 cycles: 245449691 heartbeat IPC: 1.4333 cumulative IPC: 1.35931 (Simulation time: 1 hr 47 min 47 sec) 
Heartbeat CPU 5 instructions: 250000000 cycles: 245571100 heartbeat IPC: 0.9377 cumulative IPC: 0.934011 (Simulation time: 1 hr 47 min 50 sec) 
Heartbeat CPU 3 instructions: 350000001 cycles: 246542134 heartbeat IPC: 1.34179 cumulative IPC: 1.306 (Simulation time: 1 hr 48 min 11 sec) 
Heartbeat CPU 2 instructions: 180000000 cycles: 249622479 heartbeat IPC: 0.694566 cumulative IPC: 0.595568 (Simulation time: 1 hr 49 min 18 sec) 
Heartbeat CPU 0 instructions: 370000000 cycles: 252433288 heartbeat IPC: 1.43193 cumulative IPC: 1.3615 (Simulation time: 1 hr 50 min 21 sec) 
Heartbeat CPU 3 instructions: 360000000 cycles: 254251183 heartbeat IPC: 1.29718 cumulative IPC: 1.30571 (Simulation time: 1 hr 50 min 59 sec) 
Finished CPU 6 instructions: 100000000 cycles: 234551215 cumulative IPC: 0.426346 (Simulation time: 1 hr 51 min 29 sec) 
Heartbeat CPU 5 instructions: 260000000 cycles: 256268181 heartbeat IPC: 0.934834 cumulative IPC: 0.934048 (Simulation time: 1 hr 51 min 43 sec) 
Heartbeat CPU 0 instructions: 380000000 cycles: 259431584 heartbeat IPC: 1.42892 cumulative IPC: 1.36348 (Simulation time: 1 hr 52 min 51 sec) 
Heartbeat CPU 3 instructions: 370000001 cycles: 262006143 heartbeat IPC: 1.2895 cumulative IPC: 1.30518 (Simulation time: 1 hr 53 min 46 sec) 
Heartbeat CPU 2 instructions: 190000001 cycles: 263683786 heartbeat IPC: 0.711172 cumulative IPC: 0.602268 (Simulation time: 1 hr 54 min 22 sec) 
Heartbeat CPU 1 instructions: 130000002 cycles: 264928761 heartbeat IPC: 0.343218 cumulative IPC: 0.37929 (Simulation time: 1 hr 54 min 50 sec) 
Heartbeat CPU 0 instructions: 390000003 cycles: 266467701 heartbeat IPC: 1.42124 cumulative IPC: 1.36514 (Simulation time: 1 hr 55 min 23 sec) 
Heartbeat CPU 5 instructions: 270000000 cycles: 266949165 heartbeat IPC: 0.936243 cumulative IPC: 0.934143 (Simulation time: 1 hr 55 min 33 sec) 
Heartbeat CPU 4 instructions: 90000003 cycles: 268759871 heartbeat IPC: 0.13213 cumulative IPC: 0.131656 (Simulation time: 1 hr 56 min 12 sec) 
Heartbeat CPU 3 instructions: 380000000 cycles: 269639250 heartbeat IPC: 1.31008 cumulative IPC: 1.30533 (Simulation time: 1 hr 56 min 32 sec) 
Heartbeat CPU 7 instructions: 60000000 cycles: 271371283 heartbeat IPC: 0.160259 cumulative IPC: 0.159813 (Simulation time: 1 hr 57 min 8 sec) 
Heartbeat CPU 6 instructions: 140000000 cycles: 272858764 heartbeat IPC: 0.347049 cumulative IPC: 0.42173 (Simulation time: 1 hr 57 min 39 sec) 
Heartbeat CPU 3 instructions: 390000003 cycles: 277372504 heartbeat IPC: 1.29312 cumulative IPC: 1.30497 (Simulation time: 1 hr 59 min 1 sec) 
Heartbeat CPU 0 instructions: 400000000 cycles: 277779893 heartbeat IPC: 0.884002 cumulative IPC: 1.34394 (Simulation time: 1 hr 59 min 10 sec) 
Heartbeat CPU 5 instructions: 280000000 cycles: 278295826 heartbeat IPC: 0.881317 cumulative IPC: 0.931813 (Simulation time: 1 hr 59 min 21 sec) 
Heartbeat CPU 2 instructions: 200000000 cycles: 278383993 heartbeat IPC: 0.680262 cumulative IPC: 0.606724 (Simulation time: 1 hr 59 min 23 sec) 
Heartbeat CPU 0 instructions: 410000002 cycles: 282986884 heartbeat IPC: 1.9205 cumulative IPC: 1.3554 (Simulation time: 2 hr 1 min 8 sec) 
Heartbeat CPU 3 instructions: 400000000 cycles: 285053535 heartbeat IPC: 1.30191 cumulative IPC: 1.30488 (Simulation time: 2 hr 1 min 52 sec) 
Finished CPU 1 instructions: 100000000 cycles: 265084716 cumulative IPC: 0.377238 (Simulation time: 2 hr 2 min 15 sec) 
Heartbeat CPU 5 instructions: 290000002 cycles: 289273948 heartbeat IPC: 0.910903 cumulative IPC: 0.930957 (Simulation time: 2 hr 3 min 19 sec) 
Heartbeat CPU 0 instructions: 420000000 cycles: 290653955 heartbeat IPC: 1.30428 cumulative IPC: 1.35394 (Simulation time: 2 hr 3 min 48 sec) 
Heartbeat CPU 2 instructions: 210000001 cycles: 292599897 heartbeat IPC: 0.703438 cumulative IPC: 0.611788 (Simulation time: 2 hr 4 min 29 sec) 
Heartbeat CPU 3 instructions: 410000000 cycles: 292794501 heartbeat IPC: 1.29183 cumulative IPC: 1.30451 (Simulation time: 2 hr 4 min 33 sec) 
Heartbeat CPU 1 instructions: 140000000 cycles: 292970366 heartbeat IPC: 0.356613 cumulative IPC: 0.376951 (Simulation time: 2 hr 4 min 37 sec) 
Heartbeat CPU 0 instructions: 430000000 cycles: 298186179 heartbeat IPC: 1.32763 cumulative IPC: 1.35323 (Simulation time: 2 hr 6 min 31 sec) 
Heartbeat CPU 6 instructions: 150000000 cycles: 298911055 heartbeat IPC: 0.383843 cumulative IPC: 0.418177 (Simulation time: 2 hr 6 min 47 sec) 
Heartbeat CPU 5 instructions: 300000000 cycles: 299956325 heartbeat IPC: 0.936121 cumulative IPC: 0.931155 (Simulation time: 2 hr 7 min 10 sec) 
Heartbeat CPU 3 instructions: 420000000 cycles: 300453644 heartbeat IPC: 1.30563 cumulative IPC: 1.30454 (Simulation time: 2 hr 7 min 21 sec) 
Heartbeat CPU 0 instructions: 440000000 cycles: 305041745 heartbeat IPC: 1.45867 cumulative IPC: 1.35577 (Simulation time: 2 hr 9 min 0 sec) 
Heartbeat CPU 2 instructions: 220000000 cycles: 306407072 heartbeat IPC: 0.724261 cumulative IPC: 0.61723 (Simulation time: 2 hr 9 min 30 sec) 
Heartbeat CPU 3 instructions: 430000002 cycles: 308211690 heartbeat IPC: 1.28898 cumulative IPC: 1.30412 (Simulation time: 2 hr 10 min 11 sec) 
Heartbeat CPU 5 instructions: 310000003 cycles: 310676788 heartbeat IPC: 0.932796 cumulative IPC: 0.931216 (Simulation time: 2 hr 11 min 8 sec) 
Heartbeat CPU 0 instructions: 450000002 cycles: 311794441 heartbeat IPC: 1.48089 cumulative IPC: 1.35868 (Simulation time: 2 hr 11 min 32 sec) 
Heartbeat CPU 1 instructions: 150000000 cycles: 316120863 heartbeat IPC: 0.431956 cumulative IPC: 0.381267 (Simulation time: 2 hr 13 min 9 sec) 
Heartbeat CPU 3 instructions: 440000000 cycles: 316200268 heartbeat IPC: 1.25179 cumulative IPC: 1.3027 (Simulation time: 2 hr 13 min 11 sec) 
Heartbeat CPU 6 instructions: 160000000 cycles: 316886550 heartbeat IPC: 0.556313 cumulative IPC: 0.426572 (Simulation time: 2 hr 13 min 26 sec) 
Heartbeat CPU 0 instructions: 460000000 cycles: 318637321 heartbeat IPC: 1.46137 cumulative IPC: 1.36104 (Simulation time: 2 hr 14 min 5 sec) 
Heartbeat CPU 2 instructions: 230000001 cycles: 319975009 heartbeat IPC: 0.737032 cumulative IPC: 0.622669 (Simulation time: 2 hr 14 min 34 sec) 
Heartbeat CPU 5 instructions: 320000000 cycles: 321395824 heartbeat IPC: 0.932919 cumulative IPC: 0.931276 (Simulation time: 2 hr 15 min 5 sec) 
Heartbeat CPU 3 instructions: 450000002 cycles: 324831804 heartbeat IPC: 1.15854 cumulative IPC: 1.2986 (Simulation time: 2 hr 16 min 20 sec) 
Heartbeat CPU 0 instructions: 470000000 cycles: 325522474 heartbeat IPC: 1.4524 cumulative IPC: 1.36311 (Simulation time: 2 hr 16 min 34 sec) 
Heartbeat CPU 5 instructions: 330000000 cycles: 332073291 heartbeat IPC: 0.936552 cumulative IPC: 0.931458 (Simulation time: 2 hr 18 min 51 sec) 
Heartbeat CPU 0 instructions: 480000000 cycles: 332327005 heartbeat IPC: 1.46961 cumulative IPC: 1.36544 (Simulation time: 2 hr 18 min 57 sec) 
Heartbeat CPU 2 instructions: 240000000 cycles: 333562283 heartbeat IPC: 0.735983 cumulative IPC: 0.627596 (Simulation time: 2 hr 19 min 22 sec) 
Heartbeat CPU 3 instructions: 460000000 cycles: 334074965 heartbeat IPC: 1.08188 cumulative IPC: 1.2922 (Simulation time: 2 hr 19 min 33 sec) 
Heartbeat CPU 7 instructions: 70000000 cycles: 334783685 heartbeat IPC: 0.157698 cumulative IPC: 0.159385 (Simulation time: 2 hr 19 min 48 sec) 
Heartbeat CPU 1 instructions: 160000000 cycles: 334980113 heartbeat IPC: 0.530244 cumulative IPC: 0.390218 (Simulation time: 2 hr 19 min 52 sec) 
Heartbeat CPU 0 instructions: 490000002 cycles: 339226873 heartbeat IPC: 1.4493 cumulative IPC: 1.36726 (Simulation time: 2 hr 21 min 20 sec) 
Heartbeat CPU 6 instructions: 170000000 cycles: 340694571 heartbeat IPC: 0.420027 cumulative IPC: 0.426084 (Simulation time: 2 hr 21 min 51 sec) 
Heartbeat CPU 5 instructions: 340000000 cycles: 342714501 heartbeat IPC: 0.939743 cumulative IPC: 0.931732 (Simulation time: 2 hr 22 min 33 sec) 
Heartbeat CPU 3 instructions: 470000003 cycles: 343148637 heartbeat IPC: 1.10209 cumulative IPC: 1.28685 (Simulation time: 2 hr 22 min 42 sec) 
Heartbeat CPU 4 instructions: 100000000 cycles: 345488034 heartbeat IPC: 0.13033 cumulative IPC: 0.131343 (Simulation time: 2 hr 23 min 30 sec) 
Heartbeat CPU 0 instructions: 500000000 cycles: 346072234 heartbeat IPC: 1.46084 cumulative IPC: 1.36923 (Simulation time: 2 hr 23 min 42 sec) 
Heartbeat CPU 2 instructions: 250000002 cycles: 347032188 heartbeat IPC: 0.742396 cumulative IPC: 0.63234 (Simulation time: 2 hr 24 min 2 sec) 
Heartbeat CPU 3 instructions: 480000000 cycles: 352471395 heartbeat IPC: 1.07264 cumulative IPC: 1.28082 (Simulation time: 2 hr 25 min 54 sec) 
Heartbeat CPU 0 instructions: 510000001 cycles: 352917477 heartbeat IPC: 1.46087 cumulative IPC: 1.37112 (Simulation time: 2 hr 26 min 4 sec) 
Heartbeat CPU 5 instructions: 350000000 cycles: 353408282 heartbeat IPC: 0.935123 cumulative IPC: 0.931841 (Simulation time: 2 hr 26 min 14 sec) 
Heartbeat CPU 1 instructions: 170000000 cycles: 357837574 heartbeat IPC: 0.437494 cumulative IPC: 0.393427 (Simulation time: 2 hr 27 min 48 sec) 
Heartbeat CPU 0 instructions: 520000000 cycles: 359639089 heartbeat IPC: 1.48774 cumulative IPC: 1.37343 (Simulation time: 2 hr 28 min 26 sec) 
Heartbeat CPU 3 instructions: 490000002 cycles: 360020341 heartbeat IPC: 1.32469 cumulative IPC: 1.2818 (Simulation time: 2 hr 28 min 34 sec) 
Heartbeat CPU 2 instructions: 260000000 cycles: 360603450 heartbeat IPC: 0.736851 cumulative IPC: 0.636517 (Simulation time: 2 hr 28 min 46 sec) 
Heartbeat CPU 5 instructions: 360000000 cycles: 364105974 heartbeat IPC: 0.934781 cumulative IPC: 0.931933 (Simulation time: 2 hr 29 min 59 sec) 
Heartbeat CPU 0 instructions: 530000000 cycles: 366406329 heartbeat IPC: 1.47771 cumulative IPC: 1.37548 (Simulation time: 2 hr 30 min 47 sec) 
Heartbeat CPU 3 instructions: 500000000 cycles: 367114601 heartbeat IPC: 1.40959 cumulative IPC: 1.28442 (Simulation time: 2 hr 31 min 1 sec) 
Heartbeat CPU 6 instructions: 180000000 cycles: 368288353 heartbeat IPC: 0.3624 cumulative IPC: 0.421023 (Simulation time: 2 hr 31 min 26 sec) 
Heartbeat CPU 0 instructions: 540000000 cycles: 373181983 heartbeat IPC: 1.47587 cumulative IPC: 1.37741 (Simulation time: 2 hr 33 min 8 sec) 
Heartbeat CPU 3 instructions: 510000002 cycles: 374024996 heartbeat IPC: 1.4471 cumulative IPC: 1.2876 (Simulation time: 2 hr 33 min 25 sec) 
Heartbeat CPU 2 instructions: 270000002 cycles: 374086526 heartbeat IPC: 0.741671 cumulative IPC: 0.640533 (Simulation time: 2 hr 33 min 27 sec) 
Heartbeat CPU 5 instructions: 370000000 cycles: 374904560 heartbeat IPC: 0.926047 cumulative IPC: 0.931753 (Simulation time: 2 hr 33 min 43 sec) 
Heartbeat CPU 0 instructions: 550000003 cycles: 379809581 heartbeat IPC: 1.50884 cumulative IPC: 1.37984 (Simulation time: 2 hr 35 min 28 sec) 
Heartbeat CPU 3 instructions: 520000000 cycles: 381078108 heartbeat IPC: 1.41781 cumulative IPC: 1.29015 (Simulation time: 2 hr 35 min 55 sec) 
Heartbeat CPU 5 instructions: 380000000 cycles: 385613648 heartbeat IPC: 0.933786 cumulative IPC: 0.931813 (Simulation time: 2 hr 37 min 30 sec) 
Heartbeat CPU 0 instructions: 560000000 cycles: 386484652 heartbeat IPC: 1.49811 cumulative IPC: 1.382 (Simulation time: 2 hr 37 min 47 sec) 
Heartbeat CPU 2 instructions: 280000000 cycles: 387659786 heartbeat IPC: 0.736743 cumulative IPC: 0.644096 (Simulation time: 2 hr 38 min 11 sec) 
Heartbeat CPU 3 instructions: 530000002 cycles: 388172953 heartbeat IPC: 1.40947 cumulative IPC: 1.29246 (Simulation time: 2 hr 38 min 22 sec) 
Heartbeat CPU 6 instructions: 190000001 cycles: 391006844 heartbeat IPC: 0.44017 cumulative IPC: 0.422199 (Simulation time: 2 hr 39 min 12 sec) 
Heartbeat CPU 1 instructions: 180000000 cycles: 391217721 heartbeat IPC: 0.299579 cumulative IPC: 0.384963 (Simulation time: 2 hr 39 min 16 sec) 
Heartbeat CPU 3 instructions: 540000000 cycles: 395348136 heartbeat IPC: 1.39369 cumulative IPC: 1.2944 (Simulation time: 2 hr 40 min 35 sec) 
Heartbeat CPU 5 instructions: 390000001 cycles: 396902755 heartbeat IPC: 0.88581 cumulative IPC: 0.930431 (Simulation time: 2 hr 41 min 8 sec) 
Heartbeat CPU 0 instructions: 570000001 cycles: 396935205 heartbeat IPC: 0.956887 cumulative IPC: 1.37018 (Simulation time: 2 hr 41 min 9 sec) 
Heartbeat CPU 7 instructions: 80000000 cycles: 398399657 heartbeat IPC: 0.157193 cumulative IPC: 0.159016 (Simulation time: 2 hr 41 min 41 sec) 
Heartbeat CPU 2 instructions: 290000000 cycles: 401809888 heartbeat IPC: 0.706709 cumulative IPC: 0.646423 (Simulation time: 2 hr 42 min 52 sec) 
Heartbeat CPU 3 instructions: 550000003 cycles: 402272681 heartbeat IPC: 1.44414 cumulative IPC: 1.29712 (Simulation time: 2 hr 43 min 1 sec) 
Heartbeat CPU 0 instructions: 580000000 cycles: 403717146 heartbeat IPC: 1.4745 cumulative IPC: 1.37203 (Simulation time: 2 hr 43 min 29 sec) 
Heartbeat CPU 5 instructions: 400000000 cycles: 407960751 heartbeat IPC: 0.904323 cumulative IPC: 0.929685 (Simulation time: 2 hr 44 min 55 sec) 
Heartbeat CPU 3 instructions: 560000000 cycles: 409450274 heartbeat IPC: 1.39322 cumulative IPC: 1.2989 (Simulation time: 2 hr 45 min 25 sec) 
Heartbeat CPU 0 instructions: 590000002 cycles: 411469967 heartbeat IPC: 1.28985 cumulative IPC: 1.37039 (Simulation time: 2 hr 46 min 8 sec) 
Heartbeat CPU 2 instructions: 300000000 cycles: 415570603 heartbeat IPC: 0.726706 cumulative IPC: 0.649223 (Simulation time: 2 hr 47 min 33 sec) 
Heartbeat CPU 3 instructions: 570000001 cycles: 416464895 heartbeat IPC: 1.42559 cumulative IPC: 1.30114 (Simulation time: 2 hr 47 min 51 sec) 
Heartbeat CPU 5 instructions: 410000002 cycles: 418734875 heartbeat IPC: 0.92815 cumulative IPC: 0.929643 (Simulation time: 2 hr 48 min 38 sec) 
Heartbeat CPU 0 instructions: 600000000 cycles: 418951049 heartbeat IPC: 1.3367 cumulative IPC: 1.36976 (Simulation time: 2 hr 48 min 43 sec) 
Heartbeat CPU 6 instructions: 200000000 cycles: 419781747 heartbeat IPC: 0.347525 cumulative IPC: 0.416809 (Simulation time: 2 hr 49 min 0 sec) 
Heartbeat CPU 1 instructions: 190000000 cycles: 421996915 heartbeat IPC: 0.324895 cumulative IPC: 0.380352 (Simulation time: 2 hr 49 min 46 sec) 
Heartbeat CPU 4 instructions: 110000001 cycles: 422353144 heartbeat IPC: 0.130098 cumulative IPC: 0.131104 (Simulation time: 2 hr 49 min 54 sec) 
Heartbeat CPU 3 instructions: 580000000 cycles: 423500860 heartbeat IPC: 1.42127 cumulative IPC: 1.30325 (Simulation time: 2 hr 50 min 17 sec) 
Heartbeat CPU 0 instructions: 610000001 cycles: 426563385 heartbeat IPC: 1.31366 cumulative IPC: 1.36871 (Simulation time: 2 hr 51 min 21 sec) 
Heartbeat CPU 2 instructions: 310000002 cycles: 428956959 heartbeat IPC: 0.747029 cumulative IPC: 0.652433 (Simulation time: 2 hr 52 min 11 sec) 
Heartbeat CPU 5 instructions: 420000000 cycles: 429520884 heartbeat IPC: 0.927127 cumulative IPC: 0.929577 (Simulation time: 2 hr 52 min 23 sec) 
Heartbeat CPU 3 instructions: 590000001 cycles: 430641982 heartbeat IPC: 1.40034 cumulative IPC: 1.30494 (Simulation time: 2 hr 52 min 46 sec) 
Heartbeat CPU 0 instructions: 620000000 cycles: 434085985 heartbeat IPC: 1.32933 cumulative IPC: 1.36799 (Simulation time: 2 hr 53 min 58 sec) 
Heartbeat CPU 3 instructions: 600000000 cycles: 437641050 heartbeat IPC: 1.42876 cumulative IPC: 1.30702 (Simulation time: 2 hr 55 min 12 sec) 
Heartbeat CPU 5 instructions: 430000001 cycles: 440310781 heartbeat IPC: 0.926793 cumulative IPC: 0.929505 (Simulation time: 2 hr 56 min 8 sec) 
Heartbeat CPU 0 instructions: 630000001 cycles: 441648607 heartbeat IPC: 1.32229 cumulative IPC: 1.36717 (Simulation time: 2 hr 56 min 36 sec) 
Heartbeat CPU 2 instructions: 320000000 cycles: 442397044 heartbeat IPC: 0.744043 cumulative IPC: 0.655356 (Simulation time: 2 hr 56 min 52 sec) 
Heartbeat CPU 3 instructions: 610000002 cycles: 444625139 heartbeat IPC: 1.43183 cumulative IPC: 1.30908 (Simulation time: 2 hr 57 min 38 sec) 
Heartbeat CPU 6 instructions: 210000003 cycles: 445546879 heartbeat IPC: 0.388122 cumulative IPC: 0.415068 (Simulation time: 2 hr 57 min 57 sec) 
Heartbeat CPU 1 instructions: 200000000 cycles: 446961613 heartbeat IPC: 0.400566 cumulative IPC: 0.381537 (Simulation time: 2 hr 58 min 27 sec) 
Heartbeat CPU 0 instructions: 640000000 cycles: 449152325 heartbeat IPC: 1.33267 cumulative IPC: 1.36656 (Simulation time: 2 hr 59 min 12 sec) 
Heartbeat CPU 5 instructions: 440000000 cycles: 451053140 heartbeat IPC: 0.930894 cumulative IPC: 0.92954 (Simulation time: 2 hr 59 min 52 sec) 
Heartbeat CPU 3 instructions: 620000000 cycles: 451775033 heartbeat IPC: 1.39862 cumulative IPC: 1.31056 (Simulation time: 3 hr 0 min 7 sec) 
Heartbeat CPU 2 instructions: 330000003 cycles: 455637929 heartbeat IPC: 0.755237 cumulative IPC: 0.658399 (Simulation time: 3 hr 1 min 27 sec) 
Heartbeat CPU 0 instructions: 650000000 cycles: 456624817 heartbeat IPC: 1.33824 cumulative IPC: 1.36608 (Simulation time: 3 hr 1 min 47 sec) 
Heartbeat CPU 3 instructions: 630000003 cycles: 458673789 heartbeat IPC: 1.44954 cumulative IPC: 1.31275 (Simulation time: 3 hr 2 min 30 sec) 
Heartbeat CPU 5 instructions: 450000003 cycles: 461832795 heartbeat IPC: 0.927674 cumulative IPC: 0.929494 (Simulation time: 3 hr 3 min 33 sec) 
Heartbeat CPU 7 instructions: 90000003 cycles: 462160759 heartbeat IPC: 0.156835 cumulative IPC: 0.158701 (Simulation time: 3 hr 3 min 40 sec) 
Heartbeat CPU 0 instructions: 660000000 cycles: 464050881 heartbeat IPC: 1.34661 cumulative IPC: 1.36575 (Simulation time: 3 hr 4 min 19 sec) 
Heartbeat CPU 3 instructions: 640000000 cycles: 465726008 heartbeat IPC: 1.41799 cumulative IPC: 1.31442 (Simulation time: 3 hr 4 min 50 sec) 
Heartbeat CPU 2 instructions: 340000000 cycles: 469594167 heartbeat IPC: 0.716525 cumulative IPC: 0.660208 (Simulation time: 3 hr 5 min 57 sec) 
Heartbeat CPU 6 instructions: 220000000 cycles: 469950444 heartbeat IPC: 0.409776 cumulative IPC: 0.41478 (Simulation time: 3 hr 6 min 5 sec) 
Heartbeat CPU 3 instructions: 650000003 cycles: 472818140 heartbeat IPC: 1.41001 cumulative IPC: 1.31592 (Simulation time: 3 hr 7 min 5 sec) 
Heartbeat CPU 5 instructions: 460000000 cycles: 473030453 heartbeat IPC: 0.893044 cumulative IPC: 0.928591 (Simulation time: 3 hr 7 min 10 sec) 
Heartbeat CPU 0 instructions: 670000002 cycles: 473989982 heartbeat IPC: 1.00613 cumulative IPC: 1.35786 (Simulation time: 3 hr 7 min 31 sec) 
Heartbeat CPU 3 instructions: 660000000 cycles: 479705402 heartbeat IPC: 1.45196 cumulative IPC: 1.31797 (Simulation time: 3 hr 9 min 28 sec) 
Heartbeat CPU 0 instructions: 680000000 cycles: 481518751 heartbeat IPC: 1.32824 cumulative IPC: 1.35738 (Simulation time: 3 hr 10 min 5 sec) 
Heartbeat CPU 1 instructions: 210000000 cycles: 482928816 heartbeat IPC: 0.278031 cumulative IPC: 0.373476 (Simulation time: 3 hr 10 min 35 sec) 
Heartbeat CPU 2 instructions: 350000000 cycles: 483358874 heartbeat IPC: 0.726496 cumulative IPC: 0.662181 (Simulation time: 3 hr 10 min 44 sec) 
Heartbeat CPU 5 instructions: 470000001 cycles: 484141162 heartbeat IPC: 0.900033 cumulative IPC: 0.927906 (Simulation time: 3 hr 11 min 0 sec) 
Heartbeat CPU 6 instructions: 230000000 cycles: 487257350 heartbeat IPC: 0.577804 cumulative IPC: 0.420833 (Simulation time: 3 hr 12 min 2 sec) 
Heartbeat CPU 0 instructions: 690000000 cycles: 489304541 heartbeat IPC: 1.28439 cumulative IPC: 1.35616 (Simulation time: 3 hr 12 min 40 sec) 
Heartbeat CPU 3 instructions: 670000002 cycles: 491071622 heartbeat IPC: 0.8798 cumulative IPC: 1.30737 (Simulation time: 3 hr 13 min 13 sec) 
Heartbeat CPU 5 instructions: 480000000 cycles: 495460366 heartbeat IPC: 0.883454 cumulative IPC: 0.926845 (Simulation time: 3 hr 14 min 50 sec) 
Heartbeat CPU 3 instructions: 680000000 cycles: 496374780 heartbeat IPC: 1.88567 cumulative IPC: 1.31382 (Simulation time: 3 hr 15 min 11 sec) 
Heartbeat CPU 0 instructions: 700000000 cycles: 496903700 heartbeat IPC: 1.31594 cumulative IPC: 1.35552 (Simulation time: 3 hr 15 min 22 sec) 
Heartbeat CPU 2 instructions: 360000000 cycles: 497522210 heartbeat IPC: 0.706048 cumulative IPC: 0.663485 (Simulation time: 3 hr 15 min 35 sec) 
Heartbeat CPU 4 instructions: 120000000 cycles: 500708116 heartbeat IPC: 0.127624 cumulative IPC: 0.130536 (Simulation time: 3 hr 16 min 39 sec) 
Heartbeat CPU 6 instructions: 240000000 cycles: 502732142 heartbeat IPC: 0.646212 cumulative IPC: 0.428074 (Simulation time: 3 hr 17 min 21 sec) 
Heartbeat CPU 3 instructions: 690000000 cycles: 504355348 heartbeat IPC: 1.25304 cumulative IPC: 1.31282 (Simulation time: 3 hr 17 min 54 sec) 
Heartbeat CPU 0 instructions: 710000000 cycles: 504479923 heartbeat IPC: 1.31992 cumulative IPC: 1.35496 (Simulation time: 3 hr 17 min 56 sec) 
Heartbeat CPU 5 instructions: 490000001 cycles: 506559164 heartbeat IPC: 0.900999 cumulative IPC: 0.926254 (Simulation time: 3 hr 18 min 39 sec) 
Heartbeat CPU 2 instructions: 370000002 cycles: 511229710 heartbeat IPC: 0.729528 cumulative IPC: 0.665332 (Simulation time: 3 hr 20 min 16 sec) 
Heartbeat CPU 3 instructions: 700000000 cycles: 511933297 heartbeat IPC: 1.31962 cumulative IPC: 1.31292 (Simulation time: 3 hr 20 min 31 sec) 
Heartbeat CPU 0 instructions: 720000000 cycles: 511951182 heartbeat IPC: 1.33846 cumulative IPC: 1.35471 (Simulation time: 3 hr 20 min 31 sec) 
Heartbeat CPU 1 instructions: 220000000 cycles: 515935499 heartbeat IPC: 0.302969 cumulative IPC: 0.368773 (Simulation time: 3 hr 21 min 54 sec) 
Heartbeat CPU 5 instructions: 500000000 cycles: 517362761 heartbeat IPC: 0.925618 cumulative IPC: 0.92624 (Simulation time: 3 hr 22 min 23 sec) 
Heartbeat CPU 3 instructions: 710000000 cycles: 518768141 heartbeat IPC: 1.46309 cumulative IPC: 1.31499 (Simulation time: 3 hr 22 min 52 sec) 
Heartbeat CPU 0 instructions: 730000000 cycles: 519546882 heartbeat IPC: 1.31653 cumulative IPC: 1.35413 (Simulation time: 3 hr 23 min 8 sec) 
Heartbeat CPU 6 instructions: 250000001 cycles: 523259131 heartbeat IPC: 0.487164 cumulative IPC: 0.430489 (Simulation time: 3 hr 24 min 24 sec) 
Heartbeat CPU 2 instructions: 380000000 cycles: 524663039 heartbeat IPC: 0.744417 cumulative IPC: 0.667442 (Simulation time: 3 hr 24 min 51 sec) 
Heartbeat CPU 3 instructions: 720000000 cycles: 525358429 heartbeat IPC: 1.51738 cumulative IPC: 1.31763 (Simulation time: 3 hr 25 min 6 sec) 
Heartbeat CPU 0 instructions: 740000000 cycles: 527044405 heartbeat IPC: 1.33377 cumulative IPC: 1.35383 (Simulation time: 3 hr 25 min 40 sec) 
Heartbeat CPU 5 instructions: 510000001 cycles: 528195251 heartbeat IPC: 0.923149 cumulative IPC: 0.926174 (Simulation time: 3 hr 26 min 4 sec) 
Heartbeat CPU 7 instructions: 100000000 cycles: 528289594 heartbeat IPC: 0.15122 cumulative IPC: 0.157725 (Simulation time: 3 hr 26 min 6 sec) 
Heartbeat CPU 3 instructions: 730000000 cycles: 532156336 heartbeat IPC: 1.47104 cumulative IPC: 1.31967 (Simulation time: 3 hr 27 min 26 sec) 
Heartbeat CPU 0 instructions: 750000003 cycles: 534517848 heartbeat IPC: 1.33807 cumulative IPC: 1.3536 (Simulation time: 3 hr 28 min 15 sec) 
Heartbeat CPU 2 instructions: 390000001 cycles: 538212375 heartbeat IPC: 0.738044 cumulative IPC: 0.669292 (Simulation time: 3 hr 29 min 30 sec) 
Heartbeat CPU 3 instructions: 740000000 cycles: 538802323 heartbeat IPC: 1.50467 cumulative IPC: 1.32205 (Simulation time: 3 hr 29 min 42 sec) 
Heartbeat CPU 5 instructions: 520000000 cycles: 539087545 heartbeat IPC: 0.91808 cumulative IPC: 0.926004 (Simulation time: 3 hr 29 min 48 sec) 
Heartbeat CPU 3 instructions: 750000000 cycles: 545436467 heartbeat IPC: 1.50735 cumulative IPC: 1.32439 (Simulation time: 3 hr 31 min 44 sec) 
Heartbeat CPU 0 instructions: 760000000 cycles: 546027751 heartbeat IPC: 0.868817 cumulative IPC: 1.34297 (Simulation time: 3 hr 31 min 56 sec) 
Heartbeat CPU 1 instructions: 230000000 cycles: 546167327 heartbeat IPC: 0.330777 cumulative IPC: 0.366585 (Simulation time: 3 hr 31 min 59 sec) 
Heartbeat CPU 5 instructions: 530000001 cycles: 550610373 heartbeat IPC: 0.867843 cumulative IPC: 0.924738 (Simulation time: 3 hr 33 min 36 sec) 
Heartbeat CPU 0 instructions: 770000003 cycles: 551358887 heartbeat IPC: 1.87577 cumulative IPC: 1.34832 (Simulation time: 3 hr 33 min 52 sec) 
Heartbeat CPU 2 instructions: 400000000 cycles: 552177706 heartbeat IPC: 0.716059 cumulative IPC: 0.670521 (Simulation time: 3 hr 34 min 8 sec) 
Heartbeat CPU 3 instructions: 760000000 cycles: 552256610 heartbeat IPC: 1.46624 cumulative IPC: 1.32621 (Simulation time: 3 hr 34 min 10 sec) 
Heartbeat CPU 6 instructions: 260000000 cycles: 553989101 heartbeat IPC: 0.325415 cumulative IPC: 0.42443 (Simulation time: 3 hr 34 min 45 sec) 
Heartbeat CPU 3 instructions: 770000003 cycles: 559018591 heartbeat IPC: 1.47886 cumulative IPC: 1.32813 (Simulation time: 3 hr 36 min 25 sec) 
Heartbeat CPU 0 instructions: 780000000 cycles: 559530321 heartbeat IPC: 1.22378 cumulative IPC: 1.34643 (Simulation time: 3 hr 36 min 36 sec) 
Heartbeat CPU 5 instructions: 540000000 cycles: 561776491 heartbeat IPC: 0.895566 cumulative IPC: 0.924136 (Simulation time: 3 hr 37 min 22 sec) 
Heartbeat CPU 3 instructions: 780000000 cycles: 565629260 heartbeat IPC: 1.51271 cumulative IPC: 1.33037 (Simulation time: 3 hr 38 min 43 sec) 
Heartbeat CPU 2 instructions: 410000003 cycles: 565766404 heartbeat IPC: 0.735906 cumulative IPC: 0.672153 (Simulation time: 3 hr 38 min 46 sec) 
Heartbeat CPU 0 instructions: 790000003 cycles: 567064202 heartbeat IPC: 1.32734 cumulative IPC: 1.34617 (Simulation time: 3 hr 39 min 13 sec) 
Heartbeat CPU 3 instructions: 790000000 cycles: 572407346 heartbeat IPC: 1.47534 cumulative IPC: 1.33215 (Simulation time: 3 hr 41 min 5 sec) 
Heartbeat CPU 5 instructions: 550000000 cycles: 572474551 heartbeat IPC: 0.934749 cumulative IPC: 0.924342 (Simulation time: 3 hr 41 min 6 sec) 
Heartbeat CPU 1 instructions: 240000000 cycles: 574260237 heartbeat IPC: 0.355962 cumulative IPC: 0.366046 (Simulation time: 3 hr 41 min 41 sec) 
Heartbeat CPU 0 instructions: 800000000 cycles: 574571960 heartbeat IPC: 1.33196 cumulative IPC: 1.34598 (Simulation time: 3 hr 41 min 48 sec) 
Heartbeat CPU 4 instructions: 130000002 cycles: 578166149 heartbeat IPC: 0.129102 cumulative IPC: 0.130336 (Simulation time: 3 hr 43 min 2 sec) 
Heartbeat CPU 2 instructions: 420000000 cycles: 578968058 heartbeat IPC: 0.757481 cumulative IPC: 0.674172 (Simulation time: 3 hr 43 min 18 sec) 
Heartbeat CPU 3 instructions: 800000000 cycles: 579217040 heartbeat IPC: 1.46849 cumulative IPC: 1.33382 (Simulation time: 3 hr 43 min 23 sec) 
Heartbeat CPU 6 instructions: 270000001 cycles: 580386342 heartbeat IPC: 0.378828 cumulative IPC: 0.422278 (Simulation time: 3 hr 43 min 48 sec) 
Heartbeat CPU 0 instructions: 810000003 cycles: 582070503 heartbeat IPC: 1.33359 cumulative IPC: 1.34581 (Simulation time: 3 hr 44 min 23 sec) 
Heartbeat CPU 5 instructions: 560000000 cycles: 583187659 heartbeat IPC: 0.933436 cumulative IPC: 0.924515 (Simulation time: 3 hr 44 min 46 sec) 
Heartbeat CPU 3 instructions: 810000000 cycles: 586037946 heartbeat IPC: 1.46608 cumulative IPC: 1.33541 (Simulation time: 3 hr 45 min 44 sec) 
Heartbeat CPU 0 instructions: 820000000 cycles: 589552811 heartbeat IPC: 1.33649 cumulative IPC: 1.34569 (Simulation time: 3 hr 46 min 57 sec) 
Heartbeat CPU 2 instructions: 430000002 cycles: 592272100 heartbeat IPC: 0.751651 cumulative IPC: 0.675976 (Simulation time: 3 hr 47 min 53 sec) 
Heartbeat CPU 3 instructions: 820000000 cycles: 592818843 heartbeat IPC: 1.47473 cumulative IPC: 1.33707 (Simulation time: 3 hr 48 min 4 sec) 
Heartbeat CPU 5 instructions: 570000000 cycles: 593966682 heartbeat IPC: 0.927728 cumulative IPC: 0.924576 (Simulation time: 3 hr 48 min 28 sec) 
Heartbeat CPU 7 instructions: 110000003 cycles: 594145323 heartbeat IPC: 0.151847 cumulative IPC: 0.15705 (Simulation time: 3 hr 48 min 32 sec) 
Heartbeat CPU 0 instructions: 830000003 cycles: 597065847 heartbeat IPC: 1.33102 cumulative IPC: 1.3455 (Simulation time: 3 hr 49 min 32 sec) 
Heartbeat CPU 1 instructions: 250000003 cycles: 600956711 heartbeat IPC: 0.374581 cumulative IPC: 0.366439 (Simulation time: 3 hr 50 min 44 sec) 
Heartbeat CPU 3 instructions: 830000000 cycles: 603825372 heartbeat IPC: 0.908552 cumulative IPC: 1.32897 (Simulation time: 3 hr 51 min 35 sec) 
Heartbeat CPU 0 instructions: 840000000 cycles: 604591076 heartbeat IPC: 1.32886 cumulative IPC: 1.34528 (Simulation time: 3 hr 51 min 52 sec) 
Heartbeat CPU 5 instructions: 580000000 cycles: 605142278 heartbeat IPC: 0.894807 cumulative IPC: 0.924006 (Simulation time: 3 hr 52 min 3 sec) 
Heartbeat CPU 2 instructions: 440000000 cycles: 606034366 heartbeat IPC: 0.726624 cumulative IPC: 0.677168 (Simulation time: 3 hr 52 min 22 sec) 
Heartbeat CPU 6 instructions: 280000000 cycles: 608440505 heartbeat IPC: 0.356453 cumulative IPC: 0.419134 (Simulation time: 3 hr 53 min 15 sec) 
Heartbeat CPU 3 instructions: 840000000 cycles: 609093824 heartbeat IPC: 1.89809 cumulative IPC: 1.33407 (Simulation time: 3 hr 53 min 29 sec) 
Heartbeat CPU 0 instructions: 850000001 cycles: 612108973 heartbeat IPC: 1.33016 cumulative IPC: 1.34509 (Simulation time: 3 hr 54 min 29 sec) 
Heartbeat CPU 5 instructions: 590000002 cycles: 616084143 heartbeat IPC: 0.913921 cumulative IPC: 0.923821 (Simulation time: 3 hr 55 min 50 sec) 
Heartbeat CPU 3 instructions: 850000003 cycles: 617002681 heartbeat IPC: 1.26441 cumulative IPC: 1.33315 (Simulation time: 3 hr 56 min 8 sec) 
Heartbeat CPU 0 instructions: 860000000 cycles: 619608471 heartbeat IPC: 1.33342 cumulative IPC: 1.34495 (Simulation time: 3 hr 57 min 2 sec) 
Heartbeat CPU 2 instructions: 450000002 cycles: 619766526 heartbeat IPC: 0.728218 cumulative IPC: 0.678339 (Simulation time: 3 hr 57 min 5 sec) 
Heartbeat CPU 3 instructions: 860000000 cycles: 624832876 heartbeat IPC: 1.27711 cumulative IPC: 1.33242 (Simulation time: 3 hr 58 min 50 sec) 
Heartbeat CPU 1 instructions: 260000000 cycles: 626589766 heartbeat IPC: 0.390121 cumulative IPC: 0.367441 (Simulation time: 3 hr 59 min 24 sec) 
Heartbeat CPU 5 instructions: 600000000 cycles: 626840956 heartbeat IPC: 0.929643 cumulative IPC: 0.923924 (Simulation time: 3 hr 59 min 29 sec) 
Heartbeat CPU 0 instructions: 870000001 cycles: 627148613 heartbeat IPC: 1.32624 cumulative IPC: 1.34471 (Simulation time: 3 hr 59 min 35 sec) 
Heartbeat CPU 6 instructions: 290000000 cycles: 632041962 heartbeat IPC: 0.423703 cumulative IPC: 0.41931 (Simulation time: 4 hr 1 min 14 sec) 
Heartbeat CPU 3 instructions: 870000003 cycles: 632481284 heartbeat IPC: 1.30746 cumulative IPC: 1.33211 (Simulation time: 4 hr 1 min 24 sec) 
Heartbeat CPU 2 instructions: 460000000 cycles: 632968585 heartbeat IPC: 0.757457 cumulative IPC: 0.680046 (Simulation time: 4 hr 1 min 33 sec) 
Heartbeat CPU 0 instructions: 880000000 cycles: 634687050 heartbeat IPC: 1.32653 cumulative IPC: 1.34449 (Simulation time: 4 hr 2 min 8 sec) 
Heartbeat CPU 5 instructions: 610000002 cycles: 637591315 heartbeat IPC: 0.930202 cumulative IPC: 0.924033 (Simulation time: 4 hr 3 min 7 sec) 
Heartbeat CPU 3 instructions: 880000000 cycles: 639979947 heartbeat IPC: 1.33357 cumulative IPC: 1.33213 (Simulation time: 4 hr 3 min 56 sec) 
Heartbeat CPU 0 instructions: 890000000 cycles: 642228916 heartbeat IPC: 1.32593 cumulative IPC: 1.34426 (Simulation time: 4 hr 4 min 43 sec) 
Heartbeat CPU 2 instructions: 470000001 cycles: 646363889 heartbeat IPC: 0.74653 cumulative IPC: 0.68147 (Simulation time: 4 hr 6 min 8 sec) 
Heartbeat CPU 3 instructions: 890000001 cycles: 647514665 heartbeat IPC: 1.32719 cumulative IPC: 1.33207 (Simulation time: 4 hr 6 min 31 sec) 
Heartbeat CPU 5 instructions: 620000000 cycles: 648293745 heartbeat IPC: 0.934367 cumulative IPC: 0.92421 (Simulation time: 4 hr 6 min 47 sec) 
Heartbeat CPU 0 instructions: 900000000 cycles: 649759739 heartbeat IPC: 1.32788 cumulative IPC: 1.34407 (Simulation time: 4 hr 7 min 17 sec) 
Heartbeat CPU 1 instructions: 270000000 cycles: 651291589 heartbeat IPC: 0.404828 cumulative IPC: 0.368907 (Simulation time: 4 hr 7 min 49 sec) 
Heartbeat CPU 3 instructions: 900000000 cycles: 655116071 heartbeat IPC: 1.31555 cumulative IPC: 1.33187 (Simulation time: 4 hr 9 min 7 sec) 
Heartbeat CPU 4 instructions: 140000000 cycles: 655584370 heartbeat IPC: 0.129169 cumulative IPC: 0.130194 (Simulation time: 4 hr 9 min 16 sec) 
Heartbeat CPU 0 instructions: 910000000 cycles: 657255216 heartbeat IPC: 1.33414 cumulative IPC: 1.34395 (Simulation time: 4 hr 9 min 51 sec) 
Heartbeat CPU 5 instructions: 630000000 cycles: 659040591 heartbeat IPC: 0.930506 cumulative IPC: 0.924316 (Simulation time: 4 hr 10 min 27 sec) 
Heartbeat CPU 2 instructions: 480000000 cycles: 659656285 heartbeat IPC: 0.75231 cumulative IPC: 0.682945 (Simulation time: 4 hr 10 min 40 sec) 
Heartbeat CPU 6 instructions: 300000000 cycles: 660323538 heartbeat IPC: 0.353587 cumulative IPC: 0.416403 (Simulation time: 4 hr 10 min 54 sec) 
Heartbeat CPU 7 instructions: 120000000 cycles: 660860799 heartbeat IPC: 0.14989 cumulative IPC: 0.156303 (Simulation time: 4 hr 11 min 5 sec) 
Finished CPU 7 instructions: 100000000 cycles: 639782377 cumulative IPC: 0.156303 (Simulation time: 4 hr 11 min 5 sec) 
Heartbeat CPU 3 instructions: 910000003 cycles: 662640543 heartbeat IPC: 1.329 cumulative IPC: 1.33184 (Simulation time: 4 hr 11 min 41 sec) 
Heartbeat CPU 0 instructions: 920000000 cycles: 664741643 heartbeat IPC: 1.33575 cumulative IPC: 1.34386 (Simulation time: 4 hr 12 min 24 sec) 
Heartbeat CPU 5 instructions: 640000000 cycles: 669824428 heartbeat IPC: 0.927314 cumulative IPC: 0.924366 (Simulation time: 4 hr 14 min 9 sec) 
Heartbeat CPU 3 instructions: 920000000 cycles: 670184318 heartbeat IPC: 1.3256 cumulative IPC: 1.33176 (Simulation time: 4 hr 14 min 16 sec) 
Heartbeat CPU 0 instructions: 930000002 cycles: 672250507 heartbeat IPC: 1.33176 cumulative IPC: 1.34372 (Simulation time: 4 hr 14 min 58 sec) 
Heartbeat CPU 2 instructions: 490000001 cycles: 673156915 heartbeat IPC: 0.740706 cumulative IPC: 0.684141 (Simulation time: 4 hr 15 min 17 sec) 
Heartbeat CPU 1 instructions: 280000000 cycles: 675462628 heartbeat IPC: 0.413718 cumulative IPC: 0.370562 (Simulation time: 4 hr 16 min 3 sec) 
Heartbeat CPU 0 instructions: 940000000 cycles: 679807120 heartbeat IPC: 1.32334 cumulative IPC: 1.34348 (Simulation time: 4 hr 17 min 18 sec) 
Heartbeat CPU 5 instructions: 650000000 cycles: 681109771 heartbeat IPC: 0.886105 cumulative IPC: 0.923711 (Simulation time: 4 hr 17 min 45 sec) 
Heartbeat CPU 3 instructions: 930000003 cycles: 681672966 heartbeat IPC: 0.870425 cumulative IPC: 1.32374 (Simulation time: 4 hr 17 min 57 sec) 
Heartbeat CPU 6 instructions: 310000002 cycles: 686135691 heartbeat IPC: 0.387414 cumulative IPC: 0.415278 (Simulation time: 4 hr 19 min 34 sec) 
Heartbeat CPU 3 instructions: 940000000 cycles: 686977854 heartbeat IPC: 1.88505 cumulative IPC: 1.32821 (Simulation time: 4 hr 19 min 50 sec) 
Heartbeat CPU 0 instructions: 950000002 cycles: 687333696 heartbeat IPC: 1.32863 cumulative IPC: 1.34331 (Simulation time: 4 hr 19 min 56 sec) 
Heartbeat CPU 5 instructions: 660000000 cycles: 692149246 heartbeat IPC: 0.90584 cumulative IPC: 0.923417 (Simulation time: 4 hr 21 min 28 sec) 
Heartbeat CPU 1 instructions: 290000002 cycles: 694188041 heartbeat IPC: 0.534034 cumulative IPC: 0.37511 (Simulation time: 4 hr 22 min 7 sec) 
Heartbeat CPU 0 instructions: 960000000 cycles: 694879383 heartbeat IPC: 1.32526 cumulative IPC: 1.34311 (Simulation time: 4 hr 22 min 20 sec) 
Heartbeat CPU 3 instructions: 950000001 cycles: 695275975 heartbeat IPC: 1.20509 cumulative IPC: 1.3267 (Simulation time: 4 hr 22 min 28 sec) 
Heartbeat CPU 2 instructions: 500000000 cycles: 699710254 heartbeat IPC: 0.3766 cumulative IPC: 0.672107 (Simulation time: 4 hr 23 min 55 sec) 
Heartbeat CPU 0 instructions: 970000001 cycles: 702420147 heartbeat IPC: 1.32613 cumulative IPC: 1.34292 (Simulation time: 4 hr 24 min 49 sec) 
Heartbeat CPU 3 instructions: 960000000 cycles: 702776631 heartbeat IPC: 1.33322 cumulative IPC: 1.32677 (Simulation time: 4 hr 24 min 56 sec) 
Heartbeat CPU 5 instructions: 670000001 cycles: 703103961 heartbeat IPC: 0.912849 cumulative IPC: 0.923248 (Simulation time: 4 hr 25 min 2 sec) 
Heartbeat CPU 6 instructions: 320000000 cycles: 709400650 heartbeat IPC: 0.429831 cumulative IPC: 0.415769 (Simulation time: 4 hr 27 min 9 sec) 
Heartbeat CPU 1 instructions: 300000000 cycles: 709900966 heartbeat IPC: 0.636419 cumulative IPC: 0.381071 (Simulation time: 4 hr 27 min 19 sec) 
Heartbeat CPU 0 instructions: 980000000 cycles: 709988359 heartbeat IPC: 1.32132 cumulative IPC: 1.34269 (Simulation time: 4 hr 27 min 20 sec) 
Heartbeat CPU 3 instructions: 970000001 cycles: 710206723 heartbeat IPC: 1.34588 cumulative IPC: 1.32697 (Simulation time: 4 hr 27 min 25 sec) 
Heartbeat CPU 5 instructions: 680000000 cycles: 714000125 heartbeat IPC: 0.917754 cumulative IPC: 0.923161 (Simulation time: 4 hr 28 min 43 sec) 
Heartbeat CPU 0 instructions: 990000002 cycles: 717518517 heartbeat IPC: 1.32799 cumulative IPC: 1.34253 (Simulation time: 4 hr 29 min 55 sec) 
Heartbeat CPU 3 instructions: 980000000 cycles: 717639373 heartbeat IPC: 1.34541 cumulative IPC: 1.32717 (Simulation time: 4 hr 29 min 57 sec) 
Heartbeat CPU 6 instructions: 330000000 cycles: 724201117 heartbeat IPC: 0.675654 cumulative IPC: 0.42124 (Simulation time: 4 hr 32 min 11 sec) 
Heartbeat CPU 5 instructions: 690000002 cycles: 724833477 heartbeat IPC: 0.923075 cumulative IPC: 0.92316 (Simulation time: 4 hr 32 min 24 sec) 
Heartbeat CPU 0 instructions: 1000000000 cycles: 725046709 heartbeat IPC: 1.32834 cumulative IPC: 1.34238 (Simulation time: 4 hr 32 min 29 sec) 
Heartbeat CPU 3 instructions: 990000001 cycles: 725048753 heartbeat IPC: 1.34964 cumulative IPC: 1.32741 (Simulation time: 4 hr 32 min 29 sec) 
Heartbeat CPU 1 instructions: 310000003 cycles: 726295319 heartbeat IPC: 0.609966 cumulative IPC: 0.386392 (Simulation time: 4 hr 32 min 56 sec) 
Heartbeat CPU 7 instructions: 130000000 cycles: 729252770 heartbeat IPC: 0.146216 cumulative IPC: 0.155329 (Simulation time: 4 hr 34 min 0 sec) 
Heartbeat CPU 3 instructions: 1000000000 cycles: 732491206 heartbeat IPC: 1.34364 cumulative IPC: 1.32758 (Simulation time: 4 hr 35 min 10 sec) 
Heartbeat CPU 0 instructions: 1010000000 cycles: 732547703 heartbeat IPC: 1.33316 cumulative IPC: 1.34228 (Simulation time: 4 hr 35 min 11 sec) 
Heartbeat CPU 2 instructions: 510000000 cycles: 734354331 heartbeat IPC: 0.28865 cumulative IPC: 0.653483 (Simulation time: 4 hr 35 min 49 sec) 
Heartbeat CPU 4 instructions: 150000000 cycles: 734407619 heartbeat IPC: 0.126866 cumulative IPC: 0.129826 (Simulation time: 4 hr 35 min 51 sec) 
Heartbeat CPU 5 instructions: 700000000 cycles: 735462761 heartbeat IPC: 0.940797 cumulative IPC: 0.923422 (Simulation time: 4 hr 36 min 13 sec) 
Heartbeat CPU 3 instructions: 1010000003 cycles: 739887467 heartbeat IPC: 1.35203 cumulative IPC: 1.32783 (Simulation time: 4 hr 37 min 47 sec) 
Heartbeat CPU 0 instructions: 1020000000 cycles: 740031029 heartbeat IPC: 1.3363 cumulative IPC: 1.34222 (Simulation time: 4 hr 37 min 50 sec) 
Heartbeat CPU 6 instructions: 340000000 cycles: 742814705 heartbeat IPC: 0.537242 cumulative IPC: 0.424232 (Simulation time: 4 hr 38 min 48 sec) 
Heartbeat CPU 1 instructions: 320000000 cycles: 743598804 heartbeat IPC: 0.577918 cumulative IPC: 0.390979 (Simulation time: 4 hr 39 min 5 sec) 
Heartbeat CPU 5 instructions: 710000001 cycles: 746043098 heartbeat IPC: 0.94515 cumulative IPC: 0.923739 (Simulation time: 4 hr 39 min 55 sec) 
Heartbeat CPU 3 instructions: 1020000000 cycles: 747461020 heartbeat IPC: 1.32038 cumulative IPC: 1.32775 (Simulation time: 4 hr 40 min 24 sec) 
Heartbeat CPU 0 instructions: 1030000001 cycles: 747512470 heartbeat IPC: 1.33664 cumulative IPC: 1.34216 (Simulation time: 4 hr 40 min 25 sec) 
Heartbeat CPU 2 instructions: 520000000 cycles: 747536090 heartbeat IPC: 0.758624 cumulative IPC: 0.655391 (Simulation time: 4 hr 40 min 25 sec) 
Heartbeat CPU 0 instructions: 1040000000 cycles: 755038978 heartbeat IPC: 1.32864 cumulative IPC: 1.34202 (Simulation time: 4 hr 42 min 48 sec) 
Heartbeat CPU 5 instructions: 720000000 cycles: 756989157 heartbeat IPC: 0.913571 cumulative IPC: 0.923588 (Simulation time: 4 hr 43 min 31 sec) 
Heartbeat CPU 3 instructions: 1030000003 cycles: 757350439 heartbeat IPC: 1.01118 cumulative IPC: 1.3235 (Simulation time: 4 hr 43 min 39 sec) 
Heartbeat CPU 2 instructions: 530000001 cycles: 761085298 heartbeat IPC: 0.738051 cumulative IPC: 0.656904 (Simulation time: 4 hr 44 min 58 sec) 
Heartbeat CPU 0 instructions: 1050000003 cycles: 762614580 heartbeat IPC: 1.32003 cumulative IPC: 1.3418 (Simulation time: 4 hr 45 min 28 sec) 
Heartbeat CPU 1 instructions: 330000001 cycles: 762656316 heartbeat IPC: 0.524728 cumulative IPC: 0.394416 (Simulation time: 4 hr 45 min 29 sec) 
Heartbeat CPU 3 instructions: 1040000000 cycles: 764234635 heartbeat IPC: 1.4526 cumulative IPC: 1.32469 (Simulation time: 4 hr 46 min 1 sec) 
Heartbeat CPU 5 instructions: 730000000 cycles: 767795683 heartbeat IPC: 0.925367 cumulative IPC: 0.923614 (Simulation time: 4 hr 47 min 11 sec) 
Heartbeat CPU 0 instructions: 1060000000 cycles: 770398471 heartbeat IPC: 1.2847 cumulative IPC: 1.3412 (Simulation time: 4 hr 48 min 4 sec) 
Heartbeat CPU 3 instructions: 1050000003 cycles: 771818133 heartbeat IPC: 1.31865 cumulative IPC: 1.32463 (Simulation time: 4 hr 48 min 33 sec) 
Heartbeat CPU 6 instructions: 350000000 cycles: 771903611 heartbeat IPC: 0.343774 cumulative IPC: 0.421114 (Simulation time: 4 hr 48 min 35 sec) 
Heartbeat CPU 2 instructions: 540000000 cycles: 774295982 heartbeat IPC: 0.756963 cumulative IPC: 0.658659 (Simulation time: 4 hr 49 min 23 sec) 
Heartbeat CPU 0 instructions: 1070000002 cycles: 778183279 heartbeat IPC: 1.28455 cumulative IPC: 1.34062 (Simulation time: 4 hr 50 min 42 sec) 
Heartbeat CPU 5 instructions: 740000000 cycles: 778228212 heartbeat IPC: 0.95854 cumulative IPC: 0.924095 (Simulation time: 4 hr 50 min 43 sec) 
Heartbeat CPU 3 instructions: 1060000000 cycles: 779315343 heartbeat IPC: 1.33383 cumulative IPC: 1.32472 (Simulation time: 4 hr 51 min 5 sec) 
Heartbeat CPU 1 instructions: 340000000 cycles: 783424930 heartbeat IPC: 0.481496 cumulative IPC: 0.396788 (Simulation time: 4 hr 52 min 28 sec) 
Heartbeat CPU 0 instructions: 1080000000 cycles: 785978167 heartbeat IPC: 1.28289 cumulative IPC: 1.34003 (Simulation time: 4 hr 53 min 20 sec) 
Heartbeat CPU 3 instructions: 1070000001 cycles: 786813459 heartbeat IPC: 1.33367 cumulative IPC: 1.32481 (Simulation time: 4 hr 53 min 37 sec) 
Heartbeat CPU 2 instructions: 550000003 cycles: 787100586 heartbeat IPC: 0.780969 cumulative IPC: 0.660703 (Simulation time: 4 hr 53 min 43 sec) 
Heartbeat CPU 5 instructions: 750000003 cycles: 788711896 heartbeat IPC: 0.953863 cumulative IPC: 0.924502 (Simulation time: 4 hr 54 min 15 sec) 
Finished CPU 4 instructions: 100000001 cycles: 769537810 cumulative IPC: 0.129948 (Simulation time: 4 hr 54 min 54 sec) 

CPU 0 Branch Prediction Accuracy: 97.6645% MPKI: 0.760012

CPU 1 Branch Prediction Accuracy: 99.3803% MPKI: 1.61274

CPU 2 Branch Prediction Accuracy: 99.5366% MPKI: 0.0540475

CPU 3 Branch Prediction Accuracy: 98.1798% MPKI: 0.628073

CPU 4 Branch Prediction Accuracy: 99.9821% MPKI: 0.0145351

CPU 5 Branch Prediction Accuracy: 96.7448% MPKI: 0.267108

CPU 6 Branch Prediction Accuracy: 99.1999% MPKI: 1.92697

CPU 7 Branch Prediction Accuracy: 92.3859% MPKI: 6.13207

ChampSim completed all CPUs

Total Simulation Statistics (not including warmup)

CPU 0 cumulative IPC: 1.33969 instructions: 1030940124 cycles: 769537810
L1D TOTAL     ACCESS:  165605927  HIT:  162705943  MISS:    2899984
L1D LOAD      ACCESS:   91772437  HIT:   89730157  MISS:    2042280
L1D RFO       ACCESS:   73833490  HIT:   72975786  MISS:     857704
L1D PREFETCH  ACCESS:          0  HIT:          0  MISS:          0
L1D WRITEBACK ACCESS:          0  HIT:          0  MISS:          0
L1I TOTAL     ACCESS:  241433763  HIT:  239321403  MISS:    2112360
L1I LOAD      ACCESS:  241433763  HIT:  239321403  MISS:    2112360
L1I RFO       ACCESS:          0  HIT:          0  MISS:          0
L1I PREFETCH  ACCESS:          0  HIT:          0  MISS:          0
L1I WRITEBACK ACCESS:          0  HIT:          0  MISS:          0
L2C TOTAL     ACCESS:    6713900  HIT:    5204401  MISS:    1509499
L2C LOAD      ACCESS:    4154623  HIT:    3732246  MISS:     422377
L2C RFO       ACCESS:     855964  HIT:     429613  MISS:     426351
L2C PREFETCH  ACCESS:     697804  HIT:      43144  MISS:     654660
L2C WRITEBACK ACCESS:    1005509  HIT:     999398  MISS:       6111

L2C DA-AMPM prefetcher final stats
LLC TOTAL     ACCESS:    2030989  HIT:     869386  MISS:    1161603
LLC LOAD      ACCESS:     359383  HIT:     178552  MISS:     180831
LLC RFO       ACCESS:     426256  HIT:      17342  MISS:     408914
LLC PREFETCH  ACCESS:     717740  HIT:     164345  MISS:     553395
LLC WRITEBACK ACCESS:     527610  HIT:     509147  MISS:      18463

CPU 1 cumulative IPC: 0.397194 instructions: 305655645 cycles: 769537810
L1D TOTAL     ACCESS:   65304056  HIT:   49265144  MISS:   16038912
L1D LOAD      ACCESS:   48026404  HIT:   32607207  MISS:   15419197
L1D RFO       ACCESS:   17277652  HIT:   16657937  MISS:     619715
L1D PREFETCH  ACCESS:          0  HIT:          0  MISS:          0
L1D WRITEBACK ACCESS:          0  HIT:          0  MISS:          0
L1I TOTAL     ACCESS:  136415096  HIT:  135799208  MISS:     615888
L1I LOAD      ACCESS:  136415096  HIT:  135799208  MISS:     615888
L1I RFO       ACCESS:          0  HIT:          0  MISS:          0
L1I PREFETCH  ACCESS:          0  HIT:          0  MISS:          0
L1I WRITEBACK ACCESS:          0  HIT:          0  MISS:          0
L2C TOTAL     ACCESS:   20240769  HIT:   12391029  MISS:    7849740
L2C LOAD      ACCESS:   16035000  HIT:    9938763  MISS:    6096237
L2C RFO       ACCESS:     619701  HIT:     116833  MISS:     502868
L2C PREFETCH  ACCESS:    2609013  HIT:    1358514  MISS:    1250499
L2C WRITEBACK ACCESS:     977055  HIT:     976919  MISS:        136

L2C DA-AMPM prefetcher final stats
LLC TOTAL     ACCESS:    8504366  HIT:    7864122  MISS:     640244
LLC LOAD      ACCESS:    6038935  HIT:    5939108  MISS:      99827
LLC RFO       ACCESS:     501786  HIT:      39050  MISS:     462736
LLC PREFETCH  ACCESS:    1308865  HIT:    1243240  MISS:      65625
LLC WRITEBACK ACCESS:     654780  HIT:     642724  MISS:      12056

CPU 2 cumulative IPC: 0.661239 instructions: 508848725 cycles: 769537810
L1D TOTAL     ACCESS:  129232569  HIT:  107985610  MISS:   21246959
L1D LOAD      ACCESS:   51047138  HIT:   47827751  MISS:    3219387
L1D RFO       ACCESS:   78185431  HIT:   60157859  MISS:   18027572
L1D PREFETCH  ACCESS:          0  HIT:          0  MISS:          0
L1D WRITEBACK ACCESS:          0  HIT:          0  MISS:          0
L1I TOTAL     ACCESS:  118951355  HIT:  118951352  MISS:          3
L1I LOAD      ACCESS:  118951355  HIT:  118951352  MISS:          3
L1I RFO       ACCESS:          0  HIT:          0  MISS:          0
L1I PREFETCH  ACCESS:          0  HIT:          0  MISS:          0
L1I WRITEBACK ACCESS:          0  HIT:          0  MISS:          0
L2C TOTAL     ACCESS:   42008817  HIT:   26075625  MISS:   15933192
L2C LOAD      ACCESS:    3219390  HIT:    2714601  MISS:     504789
L2C RFO       ACCESS:   18027571  HIT:    5314113  MISS:   12713458
L2C PREFETCH  ACCESS:    2734282  HIT:      19691  MISS:    2714591
L2C WRITEBACK ACCESS:   18027574  HIT:   18027220  MISS:        354

L2C DA-AMPM prefetcher final stats
LLC TOTAL     ACCESS:   28638225  HIT:   15759851  MISS:   12878374
LLC LOAD      ACCESS:     410269  HIT:         94  MISS:     410175
LLC RFO       ACCESS:   12705031  HIT:    3046136  MISS:    9658895
LLC PREFETCH  ACCESS:    2809111  HIT:          0  MISS:    2809111
LLC WRITEBACK ACCESS:   12713814  HIT:   12713621  MISS:        193

CPU 3 cumulative IPC: 1.32486 instructions: 1019529270 cycles: 769537810
L1D TOTAL     ACCESS:  162900875  HIT:  159957165  MISS:    2943710
L1D LOAD      ACCESS:   92596682  HIT:   90491696  MISS:    2104986
L1D RFO       ACCESS:   70304193  HIT:   69465469  MISS:     838724
L1D PREFETCH  ACCESS:          0  HIT:          0  MISS:          0
L1D WRITEBACK ACCESS:          0  HIT:          0  MISS:          0
L1I TOTAL     ACCESS:  243936352  HIT:  242571191  MISS:    1365161
L1I LOAD      ACCESS:  243936352  HIT:  242571191  MISS:    1365161
L1I RFO       ACCESS:          0  HIT:          0  MISS:          0
L1I PREFETCH  ACCESS:          0  HIT:          0  MISS:          0
L1I WRITEBACK ACCESS:          0  HIT:          0  MISS:          0
L2C TOTAL     ACCESS:    6032638  HIT:    4399803  MISS:    1632835
L2C LOAD      ACCESS:    3470037  HIT:    2970641  MISS:     499396
L2C RFO       ACCESS:     836729  HIT:     407607  MISS:     429122
L2C PREFETCH  ACCESS:     740866  HIT:      42657  MISS:     698209
L2C WRITEBACK ACCESS:     985006  HIT:     978898  MISS:       6108

L2C DA-AMPM prefetcher final stats
LLC TOTAL     ACCESS:    2158777  HIT:     922791  MISS:    1235986
LLC LOAD      ACCESS:     434133  HIT:     216256  MISS:     217877
LLC RFO       ACCESS:     429026  HIT:      17690  MISS:     411336
LLC PREFETCH  ACCESS:     763565  HIT:     169226  MISS:     594339
LLC WRITEBACK ACCESS:     532053  HIT:     519619  MISS:      12434

CPU 4 cumulative IPC: 0.129948 instructions: 100000001 cycles: 769537810
L1D TOTAL     ACCESS:   19733779  HIT:   14188906  MISS:    5544873
L1D LOAD      ACCESS:   15299528  HIT:   10031849  MISS:    5267679
L1D RFO       ACCESS:    4434251  HIT:    4157057  MISS:     277194
L1D PREFETCH  ACCESS:          0  HIT:          0  MISS:          0
L1D WRITEBACK ACCESS:          0  HIT:          0  MISS:          0
L1I TOTAL     ACCESS:   25238213  HIT:   25238213  MISS:          0
L1I LOAD      ACCESS:   25238213  HIT:   25238213  MISS:          0
L1I RFO       ACCESS:          0  HIT:          0  MISS:          0
L1I PREFETCH  ACCESS:          0  HIT:          0  MISS:          0
L1I WRITEBACK ACCESS:          0  HIT:          0  MISS:          0
L2C TOTAL     ACCESS:    8723152  HIT:    4741571  MISS:    3981581
L2C LOAD      ACCESS:    5267679  HIT:    1807926  MISS:    3459753
L2C RFO       ACCESS:     277194  HIT:      39444  MISS:     237750
L2C PREFETCH  ACCESS:     961157  HIT:     677081  MISS:     284076
L2C WRITEBACK ACCESS:    2217122  HIT:    2217120  MISS:          2

L2C DA-AMPM prefetcher final stats
LLC TOTAL     ACCESS:    6198999  HIT:    3613063  MISS:    2585936
LLC LOAD      ACCESS:    3456657  HIT:     910595  MISS:    2546062
LLC RFO       ACCESS:     237750  HIT:     237749  MISS:          1
LLC PREFETCH  ACCESS:     287172  HIT:     247400  MISS:      39772
LLC WRITEBACK ACCESS:    2217420  HIT:    2217319  MISS:        101

CPU 5 cumulative IPC: 0.924561 instructions: 711484343 cycles: 769537810
L1D TOTAL     ACCESS:  240921193  HIT:  217792436  MISS:   23128757
L1D LOAD      ACCESS:  126767213  HIT:  113515603  MISS:   13251610
L1D RFO       ACCESS:  114153980  HIT:  104276833  MISS:    9877147
L1D PREFETCH  ACCESS:          0  HIT:          0  MISS:          0
L1D WRITEBACK ACCESS:          0  HIT:          0  MISS:          0
L1I TOTAL     ACCESS:  172678705  HIT:  172678705  MISS:          0
L1I LOAD      ACCESS:  172678705  HIT:  172678705  MISS:          0
L1I RFO       ACCESS:          0  HIT:          0  MISS:          0
L1I PREFETCH  ACCESS:          0  HIT:          0  MISS:          0
L1I WRITEBACK ACCESS:          0  HIT:          0  MISS:          0
L2C TOTAL     ACCESS:   37234780  HIT:   26315589  MISS:   10919191
L2C LOAD      ACCESS:   13246507  HIT:   11746255  MISS:    1500252
L2C RFO       ACCESS:    8856951  HIT:    4620884  MISS:    4236067
L2C PREFETCH  ACCESS:    5177520  HIT:          1  MISS:    5177519
L2C WRITEBACK ACCESS:    9953802  HIT:    9948449  MISS:       5353

L2C DA-AMPM prefetcher final stats
LLC TOTAL     ACCESS:   15157106  HIT:    5459281  MISS:    9697825
LLC LOAD      ACCESS:    1487512  HIT:    1216626  MISS:     270886
LLC RFO       ACCESS:    4236067  HIT:          1  MISS:    4236066
LLC PREFETCH  ACCESS:    5190259  HIT:          0  MISS:    5190259
LLC WRITEBACK ACCESS:    4243268  HIT:    4242654  MISS:        614

CPU 6 cumulative IPC: 0.419409 instructions: 322750894 cycles: 769537810
L1D TOTAL     ACCESS:   83059490  HIT:   70042330  MISS:   13017160
L1D LOAD      ACCESS:   57790062  HIT:   45326034  MISS:   12464028
L1D RFO       ACCESS:   25269428  HIT:   24716296  MISS:     553132
L1D PREFETCH  ACCESS:          0  HIT:          0  MISS:          0
L1D WRITEBACK ACCESS:          0  HIT:          0  MISS:          0
L1I TOTAL     ACCESS:  138879404  HIT:  137985966  MISS:     893438
L1I LOAD      ACCESS:  138879404  HIT:  137985966  MISS:     893438
L1I RFO       ACCESS:          0  HIT:          0  MISS:          0
L1I PREFETCH  ACCESS:          0  HIT:          0  MISS:          0
L1I WRITEBACK ACCESS:          0  HIT:          0  MISS:          0
L2C TOTAL     ACCESS:   17314203  HIT:   15002330  MISS:    2311873
L2C LOAD      ACCESS:   13357410  HIT:   11854578  MISS:    1502832
L2C RFO       ACCESS:     553117  HIT:     145777  MISS:     407340
L2C PREFETCH  ACCESS:    2460393  HIT:    2059191  MISS:     401202
L2C WRITEBACK ACCESS:     943283  HIT:     942784  MISS:        499

L2C DA-AMPM prefetcher final stats
LLC TOTAL     ACCESS:    2877720  HIT:    2186385  MISS:     691335
LLC LOAD      ACCESS:    1486379  HIT:    1341594  MISS:     144785
LLC RFO       ACCESS:     405741  HIT:      15761  MISS:     389980
LLC PREFETCH  ACCESS:     419229  HIT:     309247  MISS:     109982
LLC WRITEBACK ACCESS:     566371  HIT:     519783  MISS:      46588

CPU 7 cumulative IPC: 0.155111 instructions: 119363942 cycles: 769537810
L1D TOTAL     ACCESS:   63969480  HIT:   53203436  MISS:   10766044
L1D LOAD      ACCESS:   40416376  HIT:   34870429  MISS:    5545947
L1D RFO       ACCESS:   23553104  HIT:   18333007  MISS:    5220097
L1D PREFETCH  ACCESS:          0  HIT:          0  MISS:          0
L1D WRITEBACK ACCESS:          0  HIT:          0  MISS:          0
L1I TOTAL     ACCESS:   28623014  HIT:   28623014  MISS:          0
L1I LOAD      ACCESS:   28623014  HIT:   28623014  MISS:          0
L1I RFO       ACCESS:          0  HIT:          0  MISS:          0
L1I PREFETCH  ACCESS:          0  HIT:          0  MISS:          0
L1I WRITEBACK ACCESS:          0  HIT:          0  MISS:          0
L2C TOTAL     ACCESS:   24666756  HIT:   13714054  MISS:   10952702
L2C LOAD      ACCESS:    5545868  HIT:    2948926  MISS:    2596942
L2C RFO       ACCESS:    5220097  HIT:          7  MISS:    5220090
L2C PREFETCH  ACCESS:    3134748  HIT:       4679  MISS:    3130069
L2C WRITEBACK ACCESS:   10766043  HIT:   10760442  MISS:       5601

L2C DA-AMPM prefetcher final stats
LLC TOTAL     ACCESS:   21359505  HIT:   12788715  MISS:    8570790
LLC LOAD      ACCESS:    2465652  HIT:    1993389  MISS:     472263
LLC RFO       ACCESS:    5220090  HIT:      60200  MISS:    5159890
LLC PREFETCH  ACCESS:    3261300  HIT:     322675  MISS:    2938625
LLC WRITEBACK ACCESS:   10412463  HIT:   10412451  MISS:         12

Region of Interest Statistics

CPU 0 cumulative IPC: 1.29334 instructions: 100000000 cycles: 77319229
L1D TOTAL     ACCESS:   15602320  HIT:   15510434  MISS:      91886
L1D LOAD      ACCESS:    9105928  HIT:    9029928  MISS:      76000
L1D RFO       ACCESS:    6496392  HIT:    6480506  MISS:      15886
L1D PREFETCH  ACCESS:          0  HIT:          0  MISS:          0
L1D WRITEBACK ACCESS:          0  HIT:          0  MISS:          0
L1D PREFETCH  REQUESTED:          0  ISSUED:          0  USEFUL:          0  USELESS:          0
L1I TOTAL     ACCESS:   24304878  HIT:   24229691  MISS:      75187
L1I LOAD      ACCESS:   24304878  HIT:   24229691  MISS:      75187
L1I RFO       ACCESS:          0  HIT:          0  MISS:          0
L1I PREFETCH  ACCESS:          0  HIT:          0  MISS:          0
L1I WRITEBACK ACCESS:          0  HIT:          0  MISS:          0
L1I PREFETCH  REQUESTED:          0  ISSUED:          0  USEFUL:          0  USELESS:          0
L2C TOTAL     ACCESS:     238650  HIT:     169653  MISS:      68997
L2C LOAD      ACCESS:     151187  HIT:     137874  MISS:      13313
L2C RFO       ACCESS:      15854  HIT:       6290  MISS:       9564
L2C PREFETCH  ACCESS:      48981  HIT:       3075  MISS:      45906
L2C WRITEBACK ACCESS:      22628  HIT:      22414  MISS:        214
L2C PREFETCH  REQUESTED:     802291  ISSUED:     798663  USEFUL:     616000  USELESS:      52766
LLC TOTAL     ACCESS:      77824  HIT:      10074  MISS:      67750
LLC LOAD      ACCESS:      12223  HIT:       1629  MISS:      10594
LLC RFO       ACCESS:       9553  HIT:        281  MISS:       9272
LLC PREFETCH  ACCESS:      47007  HIT:        262  MISS:      46745
LLC WRITEBACK ACCESS:       9041  HIT:       7902  MISS:       1139
LLC PREFETCH  REQUESTED:          0  ISSUED:          0  USEFUL:    1313396  USELESS:   12181507
Major fault: 0 Minor fault: 9673

CPU 1 cumulative IPC: 0.377238 instructions: 100000000 cycles: 265084716
L1D TOTAL     ACCESS:   23686293  HIT:   18722483  MISS:    4963810
L1D LOAD      ACCESS:   16952591  HIT:   12198799  MISS:    4753792
L1D RFO       ACCESS:    6733702  HIT:    6523684  MISS:     210018
L1D PREFETCH  ACCESS:          0  HIT:          0  MISS:          0
L1D WRITEBACK ACCESS:          0  HIT:          0  MISS:          0
L1D PREFETCH  REQUESTED:          0  ISSUED:          0  USEFUL:          0  USELESS:          0
L1I TOTAL     ACCESS:   43704656  HIT:   43457988  MISS:     246668
L1I LOAD      ACCESS:   43704656  HIT:   43457988  MISS:     246668
L1I RFO       ACCESS:          0  HIT:          0  MISS:          0
L1I PREFETCH  ACCESS:          0  HIT:          0  MISS:          0
L1I WRITEBACK ACCESS:          0  HIT:          0  MISS:          0
L1I PREFETCH  REQUESTED:          0  ISSUED:          0  USEFUL:          0  USELESS:          0
L2C TOTAL     ACCESS:    6382836  HIT:    3704094  MISS:    2678742
L2C LOAD      ACCESS:    5000417  HIT:    2906571  MISS:    2093846
L2C RFO       ACCESS:     210011  HIT:      35460  MISS:     174551
L2C PREFETCH  ACCESS:     849099  HIT:     438802  MISS:     410297
L2C WRITEBACK ACCESS:     323309  HIT:     323261  MISS:         48
L2C PREFETCH  REQUESTED:    3136877  ISSUED:    3136877  USEFUL:     531238  USELESS:     878366
LLC TOTAL     ACCESS:    2906795  HIT:    2690399  MISS:     216396
LLC LOAD      ACCESS:    2077338  HIT:    2045570  MISS:      31768
LLC RFO       ACCESS:     174242  HIT:      14574  MISS:     159668
LLC PREFETCH  ACCESS:     427114  HIT:     405910  MISS:      21204
LLC WRITEBACK ACCESS:     228101  HIT:     224345  MISS:       3756
LLC PREFETCH  REQUESTED:          0  ISSUED:          0  USEFUL:    1313396  USELESS:   12181507
Major fault: 0 Minor fault: 6513

CPU 2 cumulative IPC: 0.568143 instructions: 100000000 cycles: 176012183
L1D TOTAL     ACCESS:   25951962  HIT:   20845535  MISS:    5106427
L1D LOAD      ACCESS:    9891433  HIT:    9117624  MISS:     773809
L1D RFO       ACCESS:   16060529  HIT:   11727911  MISS:    4332618
L1D PREFETCH  ACCESS:          0  HIT:          0  MISS:          0
L1D WRITEBACK ACCESS:          0  HIT:          0  MISS:          0
L1D PREFETCH  REQUESTED:          0  ISSUED:          0  USEFUL:          0  USELESS:          0
L1I TOTAL     ACCESS:   23514398  HIT:   23514398  MISS:          0
L1I LOAD      ACCESS:   23514398  HIT:   23514398  MISS:          0
L1I RFO       ACCESS:          0  HIT:          0  MISS:          0
L1I PREFETCH  ACCESS:          0  HIT:          0  MISS:          0
L1I WRITEBACK ACCESS:          0  HIT:          0  MISS:          0
L1I PREFETCH  REQUESTED:          0  ISSUED:          0  USEFUL:          0  USELESS:          0
L2C TOTAL     ACCESS:   10087492  HIT:    6241834  MISS:    3845658
L2C LOAD      ACCESS:     773809  HIT:     643966  MISS:     129843
L2C RFO       ACCESS:    4332617  HIT:    1260970  MISS:    3071647
L2C PREFETCH  ACCESS:     648448  HIT:       4516  MISS:     643932
L2C WRITEBACK ACCESS:    4332618  HIT:    4332382  MISS:        236
L2C PREFETCH  REQUESTED:    3305319  ISSUED:    3305319  USEFUL:    3127131  USELESS:         64
LLC TOTAL     ACCESS:    6915226  HIT:    3820590  MISS:    3094636
LLC LOAD      ACCESS:     102672  HIT:         93  MISS:     102579
LLC RFO       ACCESS:    3069533  HIT:     748658  MISS:    2320875
LLC PREFETCH  ACCESS:     671103  HIT:          0  MISS:     671103
LLC WRITEBACK ACCESS:    3071918  HIT:    3071839  MISS:         79
LLC PREFETCH  REQUESTED:          0  ISSUED:          0  USEFUL:    1313396  USELESS:   12181507
Major fault: 0 Minor fault: 121536

CPU 3 cumulative IPC: 1.3228 instructions: 100000001 cycles: 75597270
L1D TOTAL     ACCESS:   14464733  HIT:   14427415  MISS:      37318
L1D LOAD      ACCESS:    8049079  HIT:    8012925  MISS:      36154
L1D RFO       ACCESS:    6415654  HIT:    6414490  MISS:       1164
L1D PREFETCH  ACCESS:          0  HIT:          0  MISS:          0
L1D WRITEBACK ACCESS:          0  HIT:          0  MISS:          0
L1D PREFETCH  REQUESTED:          0  ISSUED:          0  USEFUL:          0  USELESS:          0
L1I TOTAL     ACCESS:   24593177  HIT:   24593147  MISS:         30
L1I LOAD      ACCESS:   24593177  HIT:   24593147  MISS:         30
L1I RFO       ACCESS:          0  HIT:          0  MISS:          0
L1I PREFETCH  ACCESS:          0  HIT:          0  MISS:          0
L1I WRITEBACK ACCESS:          0  HIT:          0  MISS:          0
L1I PREFETCH  REQUESTED:          0  ISSUED:          0  USEFUL:          0  USELESS:          0
L2C TOTAL     ACCESS:      58608  HIT:      28660  MISS:      29948
L2C LOAD      ACCESS:      36184  HIT:      26565  MISS:       9619
L2C RFO       ACCESS:       1164  HIT:        557  MISS:        607
L2C PREFETCH  ACCESS:      20088  HIT:        383  MISS:      19705
L2C WRITEBACK ACCESS:       1172  HIT:       1155  MISS:         17
L2C PREFETCH  REQUESTED:     850416  ISSUED:     846649  USEFUL:     635111  USELESS:      75967
LLC TOTAL     ACCESS:      30826  HIT:         47  MISS:      30779
LLC LOAD      ACCESS:       8901  HIT:          3  MISS:       8898
LLC RFO       ACCESS:        607  HIT:          2  MISS:        605
LLC PREFETCH  ACCESS:      20423  HIT:          0  MISS:      20423
LLC WRITEBACK ACCESS:        895  HIT:         42  MISS:        853
LLC PREFETCH  REQUESTED:          0  ISSUED:          0  USEFUL:    1313396  USELESS:   12181507
Major fault: 0 Minor fault: 10289

CPU 4 cumulative IPC: 0.129948 instructions: 100000001 cycles: 769537810
L1D TOTAL     ACCESS:   19733779  HIT:   14188906  MISS:    5544873
L1D LOAD      ACCESS:   15299528  HIT:   10031849  MISS:    5267679
L1D RFO       ACCESS:    4434251  HIT:    4157057  MISS:     277194
L1D PREFETCH  ACCESS:          0  HIT:          0  MISS:          0
L1D WRITEBACK ACCESS:          0  HIT:          0  MISS:          0
L1D PREFETCH  REQUESTED:          0  ISSUED:          0  USEFUL:          0  USELESS:          0
L1I TOTAL     ACCESS:   25238213  HIT:   25238213  MISS:          0
L1I LOAD      ACCESS:   25238213  HIT:   25238213  MISS:          0
L1I RFO       ACCESS:          0  HIT:          0  MISS:          0
L1I PREFETCH  ACCESS:          0  HIT:          0  MISS:          0
L1I WRITEBACK ACCESS:          0  HIT:          0  MISS:          0
L1I PREFETCH  REQUESTED:          0  ISSUED:          0  USEFUL:          0  USELESS:          0
L2C TOTAL     ACCESS:    8723152  HIT:    4741571  MISS:    3981581
L2C LOAD      ACCESS:    5267679  HIT:    1807926  MISS:    3459753
L2C RFO       ACCESS:     277194  HIT:      39444  MISS:     237750
L2C PREFETCH  ACCESS:     961157  HIT:     677081  MISS:     284076
L2C WRITEBACK ACCESS:    2217122  HIT:    2217120  MISS:          2
L2C PREFETCH  REQUESTED:    1239753  ISSUED:    1239753  USEFUL:      94539  USELESS:     239713
LLC TOTAL     ACCESS:    6198999  HIT:    3613063  MISS:    2585936
LLC LOAD      ACCESS:    3456657  HIT:     910595  MISS:    2546062
LLC RFO       ACCESS:     237750  HIT:     237749  MISS:          1
LLC PREFETCH  ACCESS:     287172  HIT:     247400  MISS:      39772
LLC WRITEBACK ACCESS:    2217420  HIT:    2217319  MISS:        101
LLC PREFETCH  REQUESTED:          0  ISSUED:          0  USEFUL:    1313396  USELESS:   12181507
Major fault: 0 Minor fault: 64622

CPU 5 cumulative IPC: 0.933123 instructions: 100000001 cycles: 107167015
L1D TOTAL     ACCESS:   33851051  HIT:   30603482  MISS:    3247569
L1D LOAD      ACCESS:   17816007  HIT:   15956832  MISS:    1859175
L1D RFO       ACCESS:   16035044  HIT:   14646650  MISS:    1388394
L1D PREFETCH  ACCESS:          0  HIT:          0  MISS:          0
L1D WRITEBACK ACCESS:          0  HIT:          0  MISS:          0
L1D PREFETCH  REQUESTED:          0  ISSUED:          0  USEFUL:          0  USELESS:          0
L1I TOTAL     ACCESS:   24267863  HIT:   24267863  MISS:          0
L1I LOAD      ACCESS:   24267863  HIT:   24267863  MISS:          0
L1I RFO       ACCESS:          0  HIT:          0  MISS:          0
L1I PREFETCH  ACCESS:          0  HIT:          0  MISS:          0
L1I WRITEBACK ACCESS:          0  HIT:          0  MISS:          0
L1I PREFETCH  REQUESTED:          0  ISSUED:          0  USEFUL:          0  USELESS:          0
L2C TOTAL     ACCESS:    5231010  HIT:    3696005  MISS:    1535005
L2C LOAD      ACCESS:    1858489  HIT:    1647492  MISS:     210997
L2C RFO       ACCESS:    1245478  HIT:     650095  MISS:     595383
L2C PREFETCH  ACCESS:     727866  HIT:          0  MISS:     727866
L2C WRITEBACK ACCESS:    1399177  HIT:    1398418  MISS:        759
L2C PREFETCH  REQUESTED:    5485759  ISSUED:    5485759  USEFUL:    5468750  USELESS:       4128
LLC TOTAL     ACCESS:    2130703  HIT:     767655  MISS:    1363048
LLC LOAD      ACCESS:     209278  HIT:     171285  MISS:      37993
LLC RFO       ACCESS:     595383  HIT:          0  MISS:     595383
LLC PREFETCH  ACCESS:     729585  HIT:          0  MISS:     729585
LLC WRITEBACK ACCESS:     596457  HIT:     596370  MISS:         87
LLC PREFETCH  REQUESTED:          0  ISSUED:          0  USEFUL:    1313396  USELESS:   12181507
Major fault: 0 Minor fault: 142004

CPU 6 cumulative IPC: 0.426346 instructions: 100000000 cycles: 234551215
L1D TOTAL     ACCESS:   24972376  HIT:   20883591  MISS:    4088785
L1D LOAD      ACCESS:   17646035  HIT:   13710327  MISS:    3935708
L1D RFO       ACCESS:    7326341  HIT:    7173264  MISS:     153077
L1D PREFETCH  ACCESS:          0  HIT:          0  MISS:          0
L1D WRITEBACK ACCESS:          0  HIT:          0  MISS:          0
L1D PREFETCH  REQUESTED:          0  ISSUED:          0  USEFUL:          0  USELESS:          0
L1I TOTAL     ACCESS:   43332464  HIT:   43079576  MISS:     252888
L1I LOAD      ACCESS:   43332464  HIT:   43079576  MISS:     252888
L1I RFO       ACCESS:          0  HIT:          0  MISS:          0
L1I PREFETCH  ACCESS:          0  HIT:          0  MISS:          0
L1I WRITEBACK ACCESS:          0  HIT:          0  MISS:          0
L1I PREFETCH  REQUESTED:          0  ISSUED:          0  USEFUL:          0  USELESS:          0
L2C TOTAL     ACCESS:    5384861  HIT:    4691571  MISS:     693290
L2C LOAD      ACCESS:    4188579  HIT:    3730046  MISS:     458533
L2C RFO       ACCESS:     153077  HIT:      44049  MISS:     109028
L2C PREFETCH  ACCESS:     769296  HIT:     643763  MISS:     125533
L2C WRITEBACK ACCESS:     273909  HIT:     273713  MISS:        196
L2C PREFETCH  REQUESTED:    2756514  ISSUED:    2756514  USEFUL:     148810  USELESS:     296749
LLC TOTAL     ACCESS:     851971  HIT:     646877  MISS:     205094
LLC LOAD      ACCESS:     453806  HIT:     403906  MISS:      49900
LLC RFO       ACCESS:     108560  HIT:       5359  MISS:     103201
LLC PREFETCH  ACCESS:     130720  HIT:      93146  MISS:      37574
LLC WRITEBACK ACCESS:     158885  HIT:     144466  MISS:      14419
LLC PREFETCH  REQUESTED:          0  ISSUED:          0  USEFUL:    1313396  USELESS:   12181507
Major fault: 0 Minor fault: 2667

CPU 7 cumulative IPC: 0.156303 instructions: 100000000 cycles: 639782377
L1D TOTAL     ACCESS:   53590162  HIT:   44567350  MISS:    9022812
L1D LOAD      ACCESS:   33858471  HIT:   29209090  MISS:    4649381
L1D RFO       ACCESS:   19731691  HIT:   15358260  MISS:    4373431
L1D PREFETCH  ACCESS:          0  HIT:          0  MISS:          0
L1D WRITEBACK ACCESS:          0  HIT:          0  MISS:          0
L1D PREFETCH  REQUESTED:          0  ISSUED:          0  USEFUL:          0  USELESS:          0
L1I TOTAL     ACCESS:   24006815  HIT:   24006815  MISS:          0
L1I LOAD      ACCESS:   24006815  HIT:   24006815  MISS:          0
L1I RFO       ACCESS:          0  HIT:          0  MISS:          0
L1I PREFETCH  ACCESS:          0  HIT:          0  MISS:          0
L1I WRITEBACK ACCESS:          0  HIT:          0  MISS:          0
L1I PREFETCH  REQUESTED:          0  ISSUED:          0  USEFUL:          0  USELESS:          0
L2C TOTAL     ACCESS:   20693816  HIT:   11452321  MISS:    9241495
L2C LOAD      ACCESS:    4649316  HIT:    2430531  MISS:    2218785
L2C RFO       ACCESS:    4373432  HIT:          7  MISS:    4373425
L2C PREFETCH  ACCESS:    2648256  HIT:       3783  MISS:    2644473
L2C WRITEBACK ACCESS:    9022812  HIT:    9018000  MISS:       4812
L2C PREFETCH  REQUESTED:    3874413  ISSUED:    3874413  USEFUL:    3053104  USELESS:     592462
LLC TOTAL     ACCESS:   18003900  HIT:   10833933  MISS:    7169967
LLC LOAD      ACCESS:    2107842  HIT:    1731894  MISS:     375948
LLC RFO       ACCESS:    4373425  HIT:      49363  MISS:    4324062
LLC PREFETCH  ACCESS:    2755365  HIT:     285408  MISS:    2469957
LLC WRITEBACK ACCESS:    8767268  HIT:    8767268  MISS:          0
LLC PREFETCH  REQUESTED:          0  ISSUED:          0  USEFUL:    1313396  USELESS:   12181507
Major fault: 0 Minor fault: 265506

L2C DA-AMPM prefetcher final stats

L2C DA-AMPM prefetcher final stats

L2C DA-AMPM prefetcher final stats

L2C DA-AMPM prefetcher final stats

L2C DA-AMPM prefetcher final stats

L2C DA-AMPM prefetcher final stats

L2C DA-AMPM prefetcher final stats

L2C DA-AMPM prefetcher final stats

DRAM Statistics
 CHANNEL 0
 RQ ROW_BUFFER_HIT:    4296480  ROW_BUFFER_MISS:   14391002
 DBUS_CONGESTED:   52438022
 WQ ROW_BUFFER_HIT:    1410651  ROW_BUFFER_MISS:   11855795  FULL:          0

 CHANNEL 1
 RQ ROW_BUFFER_HIT:    4270585  ROW_BUFFER_MISS:   14413286
 DBUS_CONGESTED:   52438022
 WQ ROW_BUFFER_HIT:    1424046  ROW_BUFFER_MISS:   11842591  FULL:          0

 AVG_CONGESTED_CYCLE: 14
