
*** ChampSim Multicore Out-of-Order Simulator ***

Warmup Instructions: 20000000
Simulation Instructions: 100000000
Number of CPUs: 8
LLC sets: 16384
LLC ways: 16
Off-chip DRAM Size: 8192 MB Channels: 2 Width: 64-bit Data Rate: 1600 MT/s

CPU 0 runs /scratch/user/djimenez/champsim-traces/speccpu2017/xz/648.exchange2_s/648.exchange2_s-353B.champsimtrace.xz
CPU 1 runs /scratch/user/djimenez/champsim-traces/speccpu2017/xz/638.imagick_s/638.imagick_s-824B.champsimtrace.xz
CPU 2 runs /scratch/user/djimenez/champsim-traces/speccpu2017/xz/654.roms_s/654.roms_s-294B.champsimtrace.xz
CPU 3 runs /scratch/user/djimenez/champsim-traces/speccpu2017/xz/603.bwaves_s/603.bwaves_s-891B.champsimtrace.xz
CPU 4 runs /scratch/user/djimenez/champsim-traces/speccpu2017/xz/654.roms_s/654.roms_s-1070B.champsimtrace.xz
CPU 5 runs /scratch/user/djimenez/champsim-traces/speccpu2017/xz/654.roms_s/654.roms_s-1390B.champsimtrace.xz
CPU 6 runs /scratch/user/djimenez/champsim-traces/speccpu2017/xz/654.roms_s/654.roms_s-1613B.champsimtrace.xz
CPU 7 runs /scratch/user/djimenez/champsim-traces/speccpu2017/xz/649.fotonik3d_s/649.fotonik3d_s-7084B.champsimtrace.xz
L2C DA-AMPM prefetcher
L2C DA-AMPM prefetcher
L2C DA-AMPM prefetcher
L2C DA-AMPM prefetcher
L2C DA-AMPM prefetcher
L2C DA-AMPM prefetcher
L2C DA-AMPM prefetcher
L2C DA-AMPM prefetcher
Heartbeat CPU 3 instructions: 10000003 cycles: 3199201 heartbeat IPC: 3.12578 cumulative IPC: 3.12578 (Simulation time: 0 hr 3 min 10 sec) 
Heartbeat CPU 7 instructions: 10000000 cycles: 4192365 heartbeat IPC: 2.38529 cumulative IPC: 2.38529 (Simulation time: 0 hr 4 min 7 sec) 
Heartbeat CPU 0 instructions: 10000001 cycles: 4292872 heartbeat IPC: 2.32944 cumulative IPC: 2.32944 (Simulation time: 0 hr 4 min 13 sec) 
Heartbeat CPU 6 instructions: 10000003 cycles: 4454137 heartbeat IPC: 2.2451 cumulative IPC: 2.2451 (Simulation time: 0 hr 4 min 22 sec) 
Heartbeat CPU 1 instructions: 10000000 cycles: 4705791 heartbeat IPC: 2.12504 cumulative IPC: 2.12504 (Simulation time: 0 hr 4 min 37 sec) 
Heartbeat CPU 2 instructions: 10000003 cycles: 4879984 heartbeat IPC: 2.04919 cumulative IPC: 2.04919 (Simulation time: 0 hr 4 min 47 sec) 
Heartbeat CPU 4 instructions: 10000001 cycles: 4947516 heartbeat IPC: 2.02122 cumulative IPC: 2.02122 (Simulation time: 0 hr 4 min 51 sec) 
Heartbeat CPU 3 instructions: 20000000 cycles: 6398545 heartbeat IPC: 3.12564 cumulative IPC: 3.12571 (Simulation time: 0 hr 6 min 15 sec) 
Heartbeat CPU 5 instructions: 10000001 cycles: 6744565 heartbeat IPC: 1.48268 cumulative IPC: 1.48268 (Simulation time: 0 hr 6 min 35 sec) 
Heartbeat CPU 7 instructions: 20000000 cycles: 8382849 heartbeat IPC: 2.38636 cumulative IPC: 2.38582 (Simulation time: 0 hr 8 min 11 sec) 
Heartbeat CPU 0 instructions: 20000000 cycles: 8608020 heartbeat IPC: 2.31742 cumulative IPC: 2.32341 (Simulation time: 0 hr 8 min 24 sec) 
Heartbeat CPU 6 instructions: 20000000 cycles: 8908031 heartbeat IPC: 2.24523 cumulative IPC: 2.24517 (Simulation time: 0 hr 8 min 41 sec) 
Heartbeat CPU 1 instructions: 20000000 cycles: 9401641 heartbeat IPC: 2.12954 cumulative IPC: 2.12729 (Simulation time: 0 hr 9 min 11 sec) 
Heartbeat CPU 3 instructions: 30000003 cycles: 9598850 heartbeat IPC: 3.1247 cumulative IPC: 1.04179 (Simulation time: 0 hr 9 min 22 sec) 
Heartbeat CPU 2 instructions: 20000000 cycles: 9759564 heartbeat IPC: 2.04936 cumulative IPC: 2.04927 (Simulation time: 0 hr 9 min 31 sec) 
Heartbeat CPU 4 instructions: 20000000 cycles: 10007381 heartbeat IPC: 1.97634 cumulative IPC: 1.99852 (Simulation time: 0 hr 9 min 45 sec) 
Heartbeat CPU 5 instructions: 20000000 cycles: 11880833 heartbeat IPC: 1.94694 cumulative IPC: 1.68338 (Simulation time: 0 hr 11 min 36 sec) 

Warmup complete CPU 0 instructions: 27597570 cycles: 11880842 (Simulation time: 0 hr 11 min 36 sec) 
Warmup complete CPU 1 instructions: 25287061 cycles: 11880842 (Simulation time: 0 hr 11 min 36 sec) 
Warmup complete CPU 2 instructions: 24346385 cycles: 11880842 (Simulation time: 0 hr 11 min 36 sec) 
Warmup complete CPU 3 instructions: 37127422 cycles: 11880842 (Simulation time: 0 hr 11 min 36 sec) 
Warmup complete CPU 4 instructions: 23713281 cycles: 11880842 (Simulation time: 0 hr 11 min 36 sec) 
Warmup complete CPU 5 instructions: 20000001 cycles: 11880842 (Simulation time: 0 hr 11 min 36 sec) 
Warmup complete CPU 6 instructions: 26674295 cycles: 11880841 (Simulation time: 0 hr 11 min 36 sec) 
Warmup complete CPU 7 instructions: 28368291 cycles: 11880841 (Simulation time: 0 hr 11 min 36 sec) 

Heartbeat CPU 0 instructions: 30000001 cycles: 13358034 heartbeat IPC: 2.10526 cumulative IPC: 1.62635 (Simulation time: 0 hr 12 min 20 sec) 
Heartbeat CPU 7 instructions: 30000002 cycles: 13626083 heartbeat IPC: 1.90722 cumulative IPC: 0.934948 (Simulation time: 0 hr 12 min 28 sec) 
Heartbeat CPU 3 instructions: 40000000 cycles: 16166294 heartbeat IPC: 1.52266 cumulative IPC: 0.670309 (Simulation time: 0 hr 13 min 41 sec) 
Heartbeat CPU 6 instructions: 30000001 cycles: 16504638 heartbeat IPC: 1.31638 cumulative IPC: 0.719259 (Simulation time: 0 hr 13 min 51 sec) 
Heartbeat CPU 2 instructions: 30000002 cycles: 18608358 heartbeat IPC: 1.1301 cumulative IPC: 0.840372 (Simulation time: 0 hr 14 min 50 sec) 
Heartbeat CPU 0 instructions: 40000000 cycles: 19646421 heartbeat IPC: 1.59023 cumulative IPC: 1.5971 (Simulation time: 0 hr 15 min 19 sec) 
Heartbeat CPU 1 instructions: 30000002 cycles: 19832533 heartbeat IPC: 0.958691 cumulative IPC: 0.592697 (Simulation time: 0 hr 15 min 24 sec) 
Heartbeat CPU 4 instructions: 30000000 cycles: 21851172 heartbeat IPC: 0.844324 cumulative IPC: 0.630543 (Simulation time: 0 hr 16 min 20 sec) 
Heartbeat CPU 7 instructions: 40000000 cycles: 24360667 heartbeat IPC: 0.931568 cumulative IPC: 0.932041 (Simulation time: 0 hr 17 min 31 sec) 
Heartbeat CPU 0 instructions: 50000001 cycles: 25900900 heartbeat IPC: 1.59885 cumulative IPC: 1.59788 (Simulation time: 0 hr 18 min 16 sec) 
Heartbeat CPU 3 instructions: 50000001 cycles: 29697112 heartbeat IPC: 0.739054 cumulative IPC: 0.722518 (Simulation time: 0 hr 20 min 2 sec) 
Heartbeat CPU 2 instructions: 40000000 cycles: 30152780 heartbeat IPC: 0.866219 cumulative IPC: 0.856703 (Simulation time: 0 hr 20 min 14 sec) 
Heartbeat CPU 6 instructions: 40000000 cycles: 30546907 heartbeat IPC: 0.712136 cumulative IPC: 0.7139 (Simulation time: 0 hr 20 min 25 sec) 
Heartbeat CPU 0 instructions: 60000000 cycles: 32101628 heartbeat IPC: 1.61271 cumulative IPC: 1.60243 (Simulation time: 0 hr 21 min 8 sec) 
Heartbeat CPU 5 instructions: 30000002 cycles: 32730823 heartbeat IPC: 0.479617 cumulative IPC: 0.479617 (Simulation time: 0 hr 21 min 26 sec) 
Heartbeat CPU 7 instructions: 50000000 cycles: 34114680 heartbeat IPC: 1.02522 cumulative IPC: 0.972918 (Simulation time: 0 hr 22 min 0 sec) 
Heartbeat CPU 1 instructions: 40000000 cycles: 36694810 heartbeat IPC: 0.59304 cumulative IPC: 0.59293 (Simulation time: 0 hr 23 min 5 sec) 
Heartbeat CPU 4 instructions: 40000000 cycles: 37702289 heartbeat IPC: 0.63087 cumulative IPC: 0.630744 (Simulation time: 0 hr 23 min 31 sec) 
Heartbeat CPU 0 instructions: 70000002 cycles: 38307299 heartbeat IPC: 1.61143 cumulative IPC: 1.60454 (Simulation time: 0 hr 23 min 46 sec) 
Heartbeat CPU 2 instructions: 50000001 cycles: 41922563 heartbeat IPC: 0.849633 cumulative IPC: 0.853933 (Simulation time: 0 hr 25 min 16 sec) 
Heartbeat CPU 3 instructions: 60000000 cycles: 43729590 heartbeat IPC: 0.712632 cumulative IPC: 0.718163 (Simulation time: 0 hr 26 min 0 sec) 
Heartbeat CPU 7 instructions: 60000000 cycles: 44920384 heartbeat IPC: 0.925437 cumulative IPC: 0.957389 (Simulation time: 0 hr 26 min 31 sec) 
Heartbeat CPU 0 instructions: 80000000 cycles: 45435569 heartbeat IPC: 1.40286 cumulative IPC: 1.5617 (Simulation time: 0 hr 26 min 46 sec) 
Heartbeat CPU 4 instructions: 50000000 cycles: 49116595 heartbeat IPC: 0.876094 cumulative IPC: 0.705954 (Simulation time: 0 hr 28 min 34 sec) 
Heartbeat CPU 0 instructions: 90000000 cycles: 51669413 heartbeat IPC: 1.60415 cumulative IPC: 1.56835 (Simulation time: 0 hr 29 min 48 sec) 
Heartbeat CPU 5 instructions: 40000000 cycles: 53104235 heartbeat IPC: 0.490836 cumulative IPC: 0.485161 (Simulation time: 0 hr 30 min 29 sec) 
Heartbeat CPU 6 instructions: 50000000 cycles: 53133605 heartbeat IPC: 0.442738 cumulative IPC: 0.565434 (Simulation time: 0 hr 30 min 30 sec) 
Heartbeat CPU 1 instructions: 50000001 cycles: 53496772 heartbeat IPC: 0.595169 cumulative IPC: 0.593834 (Simulation time: 0 hr 30 min 40 sec) 
Heartbeat CPU 2 instructions: 60000000 cycles: 53594243 heartbeat IPC: 0.856775 cumulative IPC: 0.854728 (Simulation time: 0 hr 30 min 42 sec) 
Heartbeat CPU 7 instructions: 70000001 cycles: 55093973 heartbeat IPC: 0.982937 cumulative IPC: 0.963404 (Simulation time: 0 hr 31 min 23 sec) 
Heartbeat CPU 0 instructions: 100000000 cycles: 57911295 heartbeat IPC: 1.60208 cumulative IPC: 1.57292 (Simulation time: 0 hr 32 min 41 sec) 
Heartbeat CPU 3 instructions: 70000000 cycles: 57988413 heartbeat IPC: 0.70132 cumulative IPC: 0.712954 (Simulation time: 0 hr 32 min 43 sec) 
Heartbeat CPU 0 instructions: 110000001 cycles: 64074179 heartbeat IPC: 1.62262 cumulative IPC: 1.57879 (Simulation time: 0 hr 35 min 36 sec) 
Heartbeat CPU 2 instructions: 70000000 cycles: 65307462 heartbeat IPC: 0.853736 cumulative IPC: 0.854511 (Simulation time: 0 hr 36 min 12 sec) 
Heartbeat CPU 7 instructions: 80000000 cycles: 65360161 heartbeat IPC: 0.974071 cumulative IPC: 0.965452 (Simulation time: 0 hr 36 min 13 sec) 
Heartbeat CPU 6 instructions: 60000000 cycles: 67140113 heartbeat IPC: 0.713954 cumulative IPC: 0.603079 (Simulation time: 0 hr 37 min 4 sec) 
Heartbeat CPU 4 instructions: 60000000 cycles: 67162567 heartbeat IPC: 0.55414 cumulative IPC: 0.656396 (Simulation time: 0 hr 37 min 4 sec) 
Heartbeat CPU 0 instructions: 120000000 cycles: 70321026 heartbeat IPC: 1.60081 cumulative IPC: 1.58115 (Simulation time: 0 hr 38 min 32 sec) 
Heartbeat CPU 1 instructions: 60000000 cycles: 70378085 heartbeat IPC: 0.592371 cumulative IPC: 0.593412 (Simulation time: 0 hr 38 min 33 sec) 
Heartbeat CPU 5 instructions: 50000003 cycles: 70867544 heartbeat IPC: 0.562958 cumulative IPC: 0.508589 (Simulation time: 0 hr 38 min 47 sec) 
Heartbeat CPU 3 instructions: 80000000 cycles: 71308903 heartbeat IPC: 0.750723 cumulative IPC: 0.72142 (Simulation time: 0 hr 38 min 59 sec) 
Finished CPU 0 instructions: 100000002 cycles: 63157306 cumulative IPC: 1.58335 (Simulation time: 0 hr 40 min 49 sec) 
Heartbeat CPU 7 instructions: 90000003 cycles: 75423944 heartbeat IPC: 0.993662 cumulative IPC: 0.96992 (Simulation time: 0 hr 41 min 0 sec) 
Heartbeat CPU 0 instructions: 130000001 cycles: 76506203 heartbeat IPC: 1.61677 cumulative IPC: 1.58455 (Simulation time: 0 hr 41 min 33 sec) 
Heartbeat CPU 2 instructions: 80000000 cycles: 76728262 heartbeat IPC: 0.875595 cumulative IPC: 0.858224 (Simulation time: 0 hr 41 min 40 sec) 
Heartbeat CPU 4 instructions: 70000001 cycles: 78242370 heartbeat IPC: 0.902543 cumulative IPC: 0.697493 (Simulation time: 0 hr 42 min 28 sec) 
Heartbeat CPU 5 instructions: 60000000 cycles: 81073827 heartbeat IPC: 0.979788 cumulative IPC: 0.578093 (Simulation time: 0 hr 43 min 57 sec) 
Heartbeat CPU 6 instructions: 70000001 cycles: 81117121 heartbeat IPC: 0.715461 cumulative IPC: 0.625766 (Simulation time: 0 hr 43 min 58 sec) 
Heartbeat CPU 3 instructions: 90000000 cycles: 82507408 heartbeat IPC: 0.892976 cumulative IPC: 0.748622 (Simulation time: 0 hr 44 min 45 sec) 
Heartbeat CPU 0 instructions: 140000000 cycles: 82659592 heartbeat IPC: 1.62512 cumulative IPC: 1.58808 (Simulation time: 0 hr 44 min 50 sec) 
Heartbeat CPU 7 instructions: 100000000 cycles: 84321032 heartbeat IPC: 1.12396 cumulative IPC: 0.988839 (Simulation time: 0 hr 45 min 44 sec) 
Heartbeat CPU 1 instructions: 70000001 cycles: 87156474 heartbeat IPC: 0.596005 cumulative IPC: 0.59399 (Simulation time: 0 hr 47 min 18 sec) 
Heartbeat CPU 2 instructions: 90000001 cycles: 87598490 heartbeat IPC: 0.919944 cumulative IPC: 0.867085 (Simulation time: 0 hr 47 min 33 sec) 
Heartbeat CPU 0 instructions: 150000001 cycles: 88723840 heartbeat IPC: 1.64901 cumulative IPC: 1.59289 (Simulation time: 0 hr 48 min 14 sec) 
Heartbeat CPU 5 instructions: 70000002 cycles: 90306455 heartbeat IPC: 1.08312 cumulative IPC: 0.637547 (Simulation time: 0 hr 49 min 10 sec) 
Heartbeat CPU 4 instructions: 80000000 cycles: 90512798 heartbeat IPC: 0.814967 cumulative IPC: 0.715825 (Simulation time: 0 hr 49 min 18 sec) 
Heartbeat CPU 7 instructions: 110000002 cycles: 93686419 heartbeat IPC: 1.06776 cumulative IPC: 0.997875 (Simulation time: 0 hr 51 min 0 sec) 
Heartbeat CPU 3 instructions: 100000000 cycles: 93976625 heartbeat IPC: 0.871899 cumulative IPC: 0.765844 (Simulation time: 0 hr 51 min 9 sec) 
Heartbeat CPU 0 instructions: 160000000 cycles: 94918201 heartbeat IPC: 1.61437 cumulative IPC: 1.59449 (Simulation time: 0 hr 51 min 40 sec) 
Heartbeat CPU 6 instructions: 80000000 cycles: 94959795 heartbeat IPC: 0.722404 cumulative IPC: 0.641868 (Simulation time: 0 hr 51 min 41 sec) 
Heartbeat CPU 2 instructions: 100000000 cycles: 98570880 heartbeat IPC: 0.911378 cumulative IPC: 0.872691 (Simulation time: 0 hr 53 min 39 sec) 
Heartbeat CPU 5 instructions: 80000000 cycles: 99391442 heartbeat IPC: 1.10072 cumulative IPC: 0.685631 (Simulation time: 0 hr 54 min 6 sec) 
Heartbeat CPU 0 instructions: 170000000 cycles: 101255745 heartbeat IPC: 1.5779 cumulative IPC: 1.59332 (Simulation time: 0 hr 55 min 12 sec) 
Heartbeat CPU 7 instructions: 120000000 cycles: 102812521 heartbeat IPC: 1.09576 cumulative IPC: 1.0077 (Simulation time: 0 hr 56 min 0 sec) 
Heartbeat CPU 1 instructions: 80000000 cycles: 104019102 heartbeat IPC: 0.593027 cumulative IPC: 0.593813 (Simulation time: 0 hr 56 min 37 sec) 
Heartbeat CPU 4 instructions: 90000001 cycles: 104506687 heartbeat IPC: 0.714598 cumulative IPC: 0.71564 (Simulation time: 0 hr 56 min 52 sec) 
Heartbeat CPU 3 instructions: 110000002 cycles: 105093223 heartbeat IPC: 0.899556 cumulative IPC: 0.781791 (Simulation time: 0 hr 57 min 10 sec) 
Heartbeat CPU 0 instructions: 180000000 cycles: 107389547 heartbeat IPC: 1.63031 cumulative IPC: 1.59569 (Simulation time: 0 hr 58 min 31 sec) 
Heartbeat CPU 6 instructions: 90000001 cycles: 108969392 heartbeat IPC: 0.713796 cumulative IPC: 0.652247 (Simulation time: 0 hr 59 min 29 sec) 
Heartbeat CPU 2 instructions: 110000002 cycles: 109757594 heartbeat IPC: 0.893918 cumulative IPC: 0.875117 (Simulation time: 0 hr 59 min 54 sec) 
Finished CPU 7 instructions: 100000002 cycles: 98849803 cumulative IPC: 1.01164 (Simulation time: 1 hr 0 min 28 sec) 
Heartbeat CPU 7 instructions: 130000001 cycles: 112280290 heartbeat IPC: 1.05622 cumulative IPC: 1.01227 (Simulation time: 1 hr 1 min 22 sec) 
Heartbeat CPU 0 instructions: 190000002 cycles: 113706785 heartbeat IPC: 1.58297 cumulative IPC: 1.5949 (Simulation time: 1 hr 2 min 12 sec) 
Heartbeat CPU 4 instructions: 100000000 cycles: 114352513 heartbeat IPC: 1.01566 cumulative IPC: 0.744466 (Simulation time: 1 hr 2 min 37 sec) 
Heartbeat CPU 5 instructions: 90000003 cycles: 114372923 heartbeat IPC: 0.667491 cumulative IPC: 0.68298 (Simulation time: 1 hr 2 min 37 sec) 
Heartbeat CPU 3 instructions: 120000000 cycles: 116850200 heartbeat IPC: 0.850559 cumulative IPC: 0.789493 (Simulation time: 1 hr 3 min 57 sec) 
Heartbeat CPU 1 instructions: 90000000 cycles: 120826865 heartbeat IPC: 0.594963 cumulative IPC: 0.593991 (Simulation time: 1 hr 6 min 7 sec) 
Heartbeat CPU 0 instructions: 200000000 cycles: 121010114 heartbeat IPC: 1.36924 cumulative IPC: 1.5798 (Simulation time: 1 hr 6 min 12 sec) 
Heartbeat CPU 2 instructions: 120000000 cycles: 121035500 heartbeat IPC: 0.886689 cumulative IPC: 0.876313 (Simulation time: 1 hr 6 min 13 sec) 
Heartbeat CPU 7 instructions: 140000000 cycles: 121877483 heartbeat IPC: 1.04197 cumulative IPC: 1.01486 (Simulation time: 1 hr 6 min 41 sec) 
Heartbeat CPU 6 instructions: 100000000 cycles: 122888681 heartbeat IPC: 0.718427 cumulative IPC: 0.660545 (Simulation time: 1 hr 7 min 13 sec) 
Finished CPU 2 instructions: 100000003 cycles: 114070892 cumulative IPC: 0.876648 (Simulation time: 1 hr 8 min 54 sec) 
Heartbeat CPU 3 instructions: 130000001 cycles: 129374875 heartbeat IPC: 0.798424 cumulative IPC: 0.790445 (Simulation time: 1 hr 10 min 39 sec) 
Heartbeat CPU 5 instructions: 100000000 cycles: 129599710 heartbeat IPC: 0.656737 cumulative IPC: 0.679585 (Simulation time: 1 hr 10 min 45 sec) 
Heartbeat CPU 0 instructions: 210000003 cycles: 130886862 heartbeat IPC: 1.01248 cumulative IPC: 1.53272 (Simulation time: 1 hr 11 min 22 sec) 
Heartbeat CPU 4 instructions: 110000001 cycles: 131531656 heartbeat IPC: 0.582101 cumulative IPC: 0.721154 (Simulation time: 1 hr 11 min 40 sec) 
Heartbeat CPU 7 instructions: 150000002 cycles: 131547904 heartbeat IPC: 1.03408 cumulative IPC: 1.01642 (Simulation time: 1 hr 11 min 40 sec) 
Heartbeat CPU 2 instructions: 130000000 cycles: 132289818 heartbeat IPC: 0.888548 cumulative IPC: 0.877456 (Simulation time: 1 hr 12 min 2 sec) 
Heartbeat CPU 6 instructions: 110000001 cycles: 136863496 heartbeat IPC: 0.715573 cumulative IPC: 0.666698 (Simulation time: 1 hr 14 min 16 sec) 
Finished CPU 3 instructions: 100000001 cycles: 125611603 cumulative IPC: 0.796105 (Simulation time: 1 hr 14 min 34 sec) 
Heartbeat CPU 1 instructions: 100000000 cycles: 137684321 heartbeat IPC: 0.593209 cumulative IPC: 0.593886 (Simulation time: 1 hr 14 min 40 sec) 
Heartbeat CPU 0 instructions: 220000000 cycles: 140039593 heartbeat IPC: 1.09257 cumulative IPC: 1.50128 (Simulation time: 1 hr 15 min 46 sec) 
Heartbeat CPU 7 instructions: 160000000 cycles: 141028867 heartbeat IPC: 1.05474 cumulative IPC: 1.01923 (Simulation time: 1 hr 16 min 14 sec) 
Heartbeat CPU 3 instructions: 140000000 cycles: 141029840 heartbeat IPC: 0.858003 cumulative IPC: 0.796542 (Simulation time: 1 hr 16 min 14 sec) 
Heartbeat CPU 4 instructions: 120000000 cycles: 141815465 heartbeat IPC: 0.972402 cumulative IPC: 0.74104 (Simulation time: 1 hr 16 min 39 sec) 
Heartbeat CPU 2 instructions: 140000000 cycles: 143479154 heartbeat IPC: 0.893708 cumulative IPC: 0.878838 (Simulation time: 1 hr 17 min 27 sec) 
Heartbeat CPU 5 instructions: 110000000 cycles: 143855068 heartbeat IPC: 0.701491 cumulative IPC: 0.681951 (Simulation time: 1 hr 17 min 38 sec) 
Finished CPU 4 instructions: 100000000 cycles: 133779325 cumulative IPC: 0.7475 (Simulation time: 1 hr 18 min 29 sec) 
Heartbeat CPU 0 instructions: 230000002 cycles: 148363594 heartbeat IPC: 1.20135 cumulative IPC: 1.48299 (Simulation time: 1 hr 19 min 38 sec) 
Heartbeat CPU 7 instructions: 170000001 cycles: 150941227 heartbeat IPC: 1.00884 cumulative IPC: 1.01849 (Simulation time: 1 hr 20 min 40 sec) 
Heartbeat CPU 1 instructions: 110000003 cycles: 154497074 heartbeat IPC: 0.594787 cumulative IPC: 0.593992 (Simulation time: 1 hr 22 min 5 sec) 
Heartbeat CPU 0 instructions: 240000000 cycles: 154612697 heartbeat IPC: 1.60023 cumulative IPC: 1.48812 (Simulation time: 1 hr 22 min 8 sec) 
Heartbeat CPU 3 instructions: 150000000 cycles: 154674640 heartbeat IPC: 0.73288 cumulative IPC: 0.790459 (Simulation time: 1 hr 22 min 9 sec) 
Heartbeat CPU 2 instructions: 150000000 cycles: 155302802 heartbeat IPC: 0.845763 cumulative IPC: 0.876111 (Simulation time: 1 hr 22 min 25 sec) 
Heartbeat CPU 5 instructions: 120000000 cycles: 156525953 heartbeat IPC: 0.789211 cumulative IPC: 0.691347 (Simulation time: 1 hr 22 min 55 sec) 
Finished CPU 5 instructions: 100000001 cycles: 144645119 cumulative IPC: 0.691347 (Simulation time: 1 hr 22 min 55 sec) 
Heartbeat CPU 4 instructions: 130000001 cycles: 157132709 heartbeat IPC: 0.652859 cumulative IPC: 0.731741 (Simulation time: 1 hr 23 min 10 sec) 
Heartbeat CPU 6 instructions: 120000000 cycles: 159902186 heartbeat IPC: 0.434052 cumulative IPC: 0.630488 (Simulation time: 1 hr 24 min 26 sec) 
Heartbeat CPU 0 instructions: 250000000 cycles: 160867197 heartbeat IPC: 1.59885 cumulative IPC: 1.49277 (Simulation time: 1 hr 24 min 52 sec) 
Heartbeat CPU 7 instructions: 180000000 cycles: 161586048 heartbeat IPC: 0.939424 cumulative IPC: 1.01287 (Simulation time: 1 hr 25 min 12 sec) 
Heartbeat CPU 2 instructions: 160000000 cycles: 166739640 heartbeat IPC: 0.874368 cumulative IPC: 0.875983 (Simulation time: 1 hr 27 min 37 sec) 
Heartbeat CPU 0 instructions: 260000000 cycles: 167088813 heartbeat IPC: 1.6073 cumulative IPC: 1.49736 (Simulation time: 1 hr 27 min 47 sec) 
Heartbeat CPU 3 instructions: 160000000 cycles: 167428685 heartbeat IPC: 0.784065 cumulative IPC: 0.789934 (Simulation time: 1 hr 27 min 57 sec) 
Heartbeat CPU 5 instructions: 130000001 cycles: 168920075 heartbeat IPC: 0.806834 cumulative IPC: 0.700462 (Simulation time: 1 hr 28 min 41 sec) 
Finished CPU 6 instructions: 100000000 cycles: 157283203 cumulative IPC: 0.635796 (Simulation time: 1 hr 28 min 48 sec) 
Heartbeat CPU 4 instructions: 140000000 cycles: 170749834 heartbeat IPC: 0.734369 cumulative IPC: 0.731966 (Simulation time: 1 hr 29 min 34 sec) 
Heartbeat CPU 7 instructions: 190000001 cycles: 171061203 heartbeat IPC: 1.05539 cumulative IPC: 1.0154 (Simulation time: 1 hr 29 min 43 sec) 
Heartbeat CPU 1 instructions: 120000000 cycles: 171355732 heartbeat IPC: 0.593167 cumulative IPC: 0.593905 (Simulation time: 1 hr 29 min 51 sec) 
Heartbeat CPU 0 instructions: 270000000 cycles: 173246581 heartbeat IPC: 1.62397 cumulative IPC: 1.50219 (Simulation time: 1 hr 30 min 44 sec) 
Heartbeat CPU 6 instructions: 130000000 cycles: 173774880 heartbeat IPC: 0.720841 cumulative IPC: 0.63823 (Simulation time: 1 hr 30 min 58 sec) 
Heartbeat CPU 2 instructions: 170000003 cycles: 177941481 heartbeat IPC: 0.892711 cumulative IPC: 0.877111 (Simulation time: 1 hr 32 min 54 sec) 
Heartbeat CPU 0 instructions: 280000000 cycles: 179499357 heartbeat IPC: 1.59929 cumulative IPC: 1.50581 (Simulation time: 1 hr 33 min 39 sec) 
Heartbeat CPU 3 instructions: 170000003 cycles: 179590814 heartbeat IPC: 0.822225 cumulative IPC: 0.792276 (Simulation time: 1 hr 33 min 41 sec) 
Finished CPU 1 instructions: 100000002 cycles: 168392591 cumulative IPC: 0.59385 (Simulation time: 1 hr 34 min 1 sec) 

CPU 0 Branch Prediction Accuracy: 97.0334% MPKI: 4.04092

CPU 1 Branch Prediction Accuracy: 99.769% MPKI: 0.249812

CPU 2 Branch Prediction Accuracy: 99.9297% MPKI: 0.034289

CPU 3 Branch Prediction Accuracy: 99.867% MPKI: 0.201218

CPU 4 Branch Prediction Accuracy: 99.8822% MPKI: 0.0604603

CPU 5 Branch Prediction Accuracy: 99.7494% MPKI: 0.0977265

CPU 6 Branch Prediction Accuracy: 99.9624% MPKI: 0.0264922

CPU 7 Branch Prediction Accuracy: 99.1858% MPKI: 0.0535912

ChampSim completed all CPUs

Total Simulation Statistics (not including warmup)

CPU 0 cumulative IPC: 1.50626 instructions: 253643120 cycles: 168392591
L1D TOTAL     ACCESS:   70582704  HIT:   70582592  MISS:        112
L1D LOAD      ACCESS:   31102421  HIT:   31102377  MISS:         44
L1D RFO       ACCESS:   39480283  HIT:   39480215  MISS:         68
L1D PREFETCH  ACCESS:          0  HIT:          0  MISS:          0
L1D WRITEBACK ACCESS:          0  HIT:          0  MISS:          0
L1I TOTAL     ACCESS:   55950185  HIT:   55932321  MISS:      17864
L1I LOAD      ACCESS:   55950185  HIT:   55932321  MISS:      17864
L1I RFO       ACCESS:          0  HIT:          0  MISS:          0
L1I PREFETCH  ACCESS:          0  HIT:          0  MISS:          0
L1I WRITEBACK ACCESS:          0  HIT:          0  MISS:          0
L2C TOTAL     ACCESS:      18834  HIT:      17443  MISS:       1391
L2C LOAD      ACCESS:      17908  HIT:      17425  MISS:        483
L2C RFO       ACCESS:         68  HIT:         15  MISS:         53
L2C PREFETCH  ACCESS:        858  HIT:          3  MISS:        855
L2C WRITEBACK ACCESS:          0  HIT:          0  MISS:          0

L2C DA-AMPM prefetcher final stats
LLC TOTAL     ACCESS:       1391  HIT:          0  MISS:       1391
LLC LOAD      ACCESS:        381  HIT:          0  MISS:        381
LLC RFO       ACCESS:         53  HIT:          0  MISS:         53
LLC PREFETCH  ACCESS:        957  HIT:          0  MISS:        957
LLC WRITEBACK ACCESS:          0  HIT:          0  MISS:          0

CPU 1 cumulative IPC: 0.59385 instructions: 100000002 cycles: 168392591
L1D TOTAL     ACCESS:   20148479  HIT:   20126936  MISS:      21543
L1D LOAD      ACCESS:   15140697  HIT:   15119214  MISS:      21483
L1D RFO       ACCESS:    5007782  HIT:    5007722  MISS:         60
L1D PREFETCH  ACCESS:          0  HIT:          0  MISS:          0
L1D WRITEBACK ACCESS:          0  HIT:          0  MISS:          0
L1I TOTAL     ACCESS:   43088189  HIT:   43088189  MISS:          0
L1I LOAD      ACCESS:   43088189  HIT:   43088189  MISS:          0
L1I RFO       ACCESS:          0  HIT:          0  MISS:          0
L1I PREFETCH  ACCESS:          0  HIT:          0  MISS:          0
L1I WRITEBACK ACCESS:          0  HIT:          0  MISS:          0
L2C TOTAL     ACCESS:      62924  HIT:      41616  MISS:      21308
L2C LOAD      ACCESS:      21483  HIT:      19821  MISS:       1662
L2C RFO       ACCESS:         60  HIT:         60  MISS:          0
L2C PREFETCH  ACCESS:      19978  HIT:        332  MISS:      19646
L2C WRITEBACK ACCESS:      21403  HIT:      21403  MISS:          0

L2C DA-AMPM prefetcher final stats
LLC TOTAL     ACCESS:      42536  HIT:          0  MISS:      42536
LLC LOAD      ACCESS:       1662  HIT:          0  MISS:       1662
LLC RFO       ACCESS:          0  HIT:          0  MISS:          0
LLC PREFETCH  ACCESS:      19646  HIT:          0  MISS:      19646
LLC WRITEBACK ACCESS:      21228  HIT:          0  MISS:      21228

CPU 2 cumulative IPC: 0.877199 instructions: 147713892 cycles: 168392591
L1D TOTAL     ACCESS:   44617284  HIT:   41851265  MISS:    2766019
L1D LOAD      ACCESS:   39667905  HIT:   36917516  MISS:    2750389
L1D RFO       ACCESS:    4949379  HIT:    4933749  MISS:      15630
L1D PREFETCH  ACCESS:          0  HIT:          0  MISS:          0
L1D WRITEBACK ACCESS:          0  HIT:          0  MISS:          0
L1I TOTAL     ACCESS:   37123277  HIT:   37123277  MISS:          0
L1I LOAD      ACCESS:   37123277  HIT:   37123277  MISS:          0
L1I RFO       ACCESS:          0  HIT:          0  MISS:          0
L1I PREFETCH  ACCESS:          0  HIT:          0  MISS:          0
L1I WRITEBACK ACCESS:          0  HIT:          0  MISS:          0
L2C TOTAL     ACCESS:    5302323  HIT:    3125174  MISS:    2177149
L2C LOAD      ACCESS:    2750256  HIT:    2536618  MISS:     213638
L2C RFO       ACCESS:      15630  HIT:          2  MISS:      15628
L2C PREFETCH  ACCESS:    1959312  HIT:      11433  MISS:    1947879
L2C WRITEBACK ACCESS:     577125  HIT:     577121  MISS:          4

L2C DA-AMPM prefetcher final stats
LLC TOTAL     ACCESS:    2192812  HIT:     374128  MISS:    1818684
LLC LOAD      ACCESS:     172545  HIT:      29013  MISS:     143532
LLC RFO       ACCESS:      15628  HIT:       2766  MISS:      12862
LLC PREFETCH  ACCESS:    1988972  HIT:     326763  MISS:    1662209
LLC WRITEBACK ACCESS:      15667  HIT:      15586  MISS:         81

CPU 3 cumulative IPC: 0.792259 instructions: 133410562 cycles: 168392591
L1D TOTAL     ACCESS:   12953163  HIT:   10805995  MISS:    2147168
L1D LOAD      ACCESS:    9388416  HIT:    7241249  MISS:    2147167
L1D RFO       ACCESS:    3564747  HIT:    3564746  MISS:          1
L1D PREFETCH  ACCESS:          0  HIT:          0  MISS:          0
L1D WRITEBACK ACCESS:          0  HIT:          0  MISS:          0
L1I TOTAL     ACCESS:   29040329  HIT:   29040325  MISS:          4
L1I LOAD      ACCESS:   29040329  HIT:   29040325  MISS:          4
L1I RFO       ACCESS:          0  HIT:          0  MISS:          0
L1I PREFETCH  ACCESS:          0  HIT:          0  MISS:          0
L1I WRITEBACK ACCESS:          0  HIT:          0  MISS:          0
L2C TOTAL     ACCESS:    3890333  HIT:    1743218  MISS:    2147115
L2C LOAD      ACCESS:    2147168  HIT:    1632439  MISS:     514729
L2C RFO       ACCESS:          1  HIT:          0  MISS:          1
L2C PREFETCH  ACCESS:    1663630  HIT:      31295  MISS:    1632335
L2C WRITEBACK ACCESS:      79534  HIT:      79484  MISS:         50

L2C DA-AMPM prefetcher final stats
LLC TOTAL     ACCESS:    2228336  HIT:      81783  MISS:    2146553
LLC LOAD      ACCESS:     167340  HIT:        519  MISS:     166821
LLC RFO       ACCESS:          1  HIT:          0  MISS:          1
LLC PREFETCH  ACCESS:    1979724  HIT:          0  MISS:    1979724
LLC WRITEBACK ACCESS:      81271  HIT:      81264  MISS:          7

CPU 4 cumulative IPC: 0.745157 instructions: 125478908 cycles: 168392591
L1D TOTAL     ACCESS:   32288769  HIT:   29552718  MISS:    2736051
L1D LOAD      ACCESS:   30551080  HIT:   28651829  MISS:    1899251
L1D RFO       ACCESS:    1737689  HIT:     900889  MISS:     836800
L1D PREFETCH  ACCESS:          0  HIT:          0  MISS:          0
L1D WRITEBACK ACCESS:          0  HIT:          0  MISS:          0
L1I TOTAL     ACCESS:   34956503  HIT:   34956503  MISS:          0
L1I LOAD      ACCESS:   34956503  HIT:   34956503  MISS:          0
L1I RFO       ACCESS:          0  HIT:          0  MISS:          0
L1I PREFETCH  ACCESS:          0  HIT:          0  MISS:          0
L1I WRITEBACK ACCESS:          0  HIT:          0  MISS:          0
L2C TOTAL     ACCESS:    5378467  HIT:    2511970  MISS:    2866497
L2C LOAD      ACCESS:    1899250  HIT:    1669998  MISS:     229252
L2C RFO       ACCESS:     836800  HIT:          5  MISS:     836795
L2C PREFETCH  ACCESS:    1800474  HIT:         30  MISS:    1800444
L2C WRITEBACK ACCESS:     841943  HIT:     841937  MISS:          6

L2C DA-AMPM prefetcher final stats
LLC TOTAL     ACCESS:    3703019  HIT:     836514  MISS:    2866505
LLC LOAD      ACCESS:     139531  HIT:          5  MISS:     139526
LLC RFO       ACCESS:     836795  HIT:          0  MISS:     836795
LLC PREFETCH  ACCESS:    1890165  HIT:          2  MISS:    1890163
LLC WRITEBACK ACCESS:     836528  HIT:     836507  MISS:         21

CPU 5 cumulative IPC: 0.685872 instructions: 115495791 cycles: 168392591
L1D TOTAL     ACCESS:   24705821  HIT:   21070817  MISS:    3635004
L1D LOAD      ACCESS:   21358119  HIT:   18552106  MISS:    2806013
L1D RFO       ACCESS:    3347702  HIT:    2518711  MISS:     828991
L1D PREFETCH  ACCESS:          0  HIT:          0  MISS:          0
L1D WRITEBACK ACCESS:          0  HIT:          0  MISS:          0
L1I TOTAL     ACCESS:   26243940  HIT:   26243588  MISS:        352
L1I LOAD      ACCESS:   26243940  HIT:   26243588  MISS:        352
L1I RFO       ACCESS:          0  HIT:          0  MISS:          0
L1I PREFETCH  ACCESS:          0  HIT:          0  MISS:          0
L1I WRITEBACK ACCESS:          0  HIT:          0  MISS:          0
L2C TOTAL     ACCESS:    6640098  HIT:    3556434  MISS:    3083664
L2C LOAD      ACCESS:    2806337  HIT:    2483396  MISS:     322941
L2C RFO       ACCESS:     828991  HIT:          8  MISS:     828983
L2C PREFETCH  ACCESS:    1934742  HIT:       3093  MISS:    1931649
L2C WRITEBACK ACCESS:    1070028  HIT:    1069937  MISS:         91

L2C DA-AMPM prefetcher final stats
LLC TOTAL     ACCESS:    4146311  HIT:    1072836  MISS:    3073475
LLC LOAD      ACCESS:     165535  HIT:       1877  MISS:     163658
LLC RFO       ACCESS:     828981  HIT:        223  MISS:     828758
LLC PREFETCH  ACCESS:    2089057  HIT:       8047  MISS:    2081010
LLC WRITEBACK ACCESS:    1062738  HIT:    1062689  MISS:         49

CPU 6 cumulative IPC: 0.641141 instructions: 107963410 cycles: 168392592
L1D TOTAL     ACCESS:   27128684  HIT:   26676474  MISS:     452210
L1D LOAD      ACCESS:   16820488  HIT:   16548955  MISS:     271533
L1D RFO       ACCESS:   10308196  HIT:   10127519  MISS:     180677
L1D PREFETCH  ACCESS:          0  HIT:          0  MISS:          0
L1D WRITEBACK ACCESS:          0  HIT:          0  MISS:          0
L1I TOTAL     ACCESS:   43494903  HIT:   43494726  MISS:        177
L1I LOAD      ACCESS:   43494903  HIT:   43494726  MISS:        177
L1I RFO       ACCESS:          0  HIT:          0  MISS:          0
L1I PREFETCH  ACCESS:          0  HIT:          0  MISS:          0
L1I WRITEBACK ACCESS:          0  HIT:          0  MISS:          0
L2C TOTAL     ACCESS:     870142  HIT:     390770  MISS:     479372
L2C LOAD      ACCESS:     271710  HIT:     208833  MISS:      62877
L2C RFO       ACCESS:     180675  HIT:         16  MISS:     180659
L2C PREFETCH  ACCESS:     237064  HIT:       1646  MISS:     235418
L2C WRITEBACK ACCESS:     180693  HIT:     180275  MISS:        418

L2C DA-AMPM prefetcher final stats
LLC TOTAL     ACCESS:     659686  HIT:     141742  MISS:     517944
LLC LOAD      ACCESS:      29477  HIT:          0  MISS:      29477
LLC RFO       ACCESS:     180659  HIT:          0  MISS:     180659
LLC PREFETCH  ACCESS:     268818  HIT:          0  MISS:     268818
LLC WRITEBACK ACCESS:     180732  HIT:     141742  MISS:      38990

CPU 7 cumulative IPC: 1.01686 instructions: 171232140 cycles: 168392592
L1D TOTAL     ACCESS:   48486526  HIT:   45602256  MISS:    2884270
L1D LOAD      ACCESS:   40066687  HIT:   37182417  MISS:    2884270
L1D RFO       ACCESS:    8419839  HIT:    8419839  MISS:          0
L1D PREFETCH  ACCESS:          0  HIT:          0  MISS:          0
L1D WRITEBACK ACCESS:          0  HIT:          0  MISS:          0
L1I TOTAL     ACCESS:   36388369  HIT:   36388369  MISS:          0
L1I LOAD      ACCESS:   36388369  HIT:   36388369  MISS:          0
L1I RFO       ACCESS:          0  HIT:          0  MISS:          0
L1I PREFETCH  ACCESS:          0  HIT:          0  MISS:          0
L1I WRITEBACK ACCESS:          0  HIT:          0  MISS:          0
L2C TOTAL     ACCESS:    6534358  HIT:    3560827  MISS:    2973531
L2C LOAD      ACCESS:    2884270  HIT:    2666851  MISS:     217419
L2C RFO       ACCESS:          0  HIT:          0  MISS:          0
L2C PREFETCH  ACCESS:    2755857  HIT:        225  MISS:    2755632
L2C WRITEBACK ACCESS:     894231  HIT:     893751  MISS:        480

L2C DA-AMPM prefetcher final stats
LLC TOTAL     ACCESS:    3862614  HIT:     889923  MISS:    2972691
LLC LOAD      ACCESS:     171785  HIT:        487  MISS:     171298
LLC RFO       ACCESS:          0  HIT:          0  MISS:          0
LLC PREFETCH  ACCESS:    2801265  HIT:          0  MISS:    2801265
LLC WRITEBACK ACCESS:     889564  HIT:     889436  MISS:        128

Region of Interest Statistics

CPU 0 cumulative IPC: 1.58335 instructions: 100000002 cycles: 63157306
L1D TOTAL     ACCESS:   28269136  HIT:   28269036  MISS:        100
L1D LOAD      ACCESS:   12174214  HIT:   12174181  MISS:         33
L1D RFO       ACCESS:   16094922  HIT:   16094855  MISS:         67
L1D PREFETCH  ACCESS:          0  HIT:          0  MISS:          0
L1D WRITEBACK ACCESS:          0  HIT:          0  MISS:          0
L1D PREFETCH  REQUESTED:          0  ISSUED:          0  USEFUL:          0  USELESS:          0
L1I TOTAL     ACCESS:   21786579  HIT:   21785367  MISS:       1212
L1I LOAD      ACCESS:   21786579  HIT:   21785367  MISS:       1212
L1I RFO       ACCESS:          0  HIT:          0  MISS:          0
L1I PREFETCH  ACCESS:          0  HIT:          0  MISS:          0
L1I WRITEBACK ACCESS:          0  HIT:          0  MISS:          0
L1I PREFETCH  REQUESTED:          0  ISSUED:          0  USEFUL:          0  USELESS:          0
L2C TOTAL     ACCESS:       2005  HIT:        805  MISS:       1200
L2C LOAD      ACCESS:       1245  HIT:        787  MISS:        458
L2C RFO       ACCESS:         67  HIT:         15  MISS:         52
L2C PREFETCH  ACCESS:        693  HIT:          3  MISS:        690
L2C WRITEBACK ACCESS:          0  HIT:          0  MISS:          0
L2C PREFETCH  REQUESTED:       1401  ISSUED:       1401  USEFUL:        843  USELESS:          1
LLC TOTAL     ACCESS:       1200  HIT:          0  MISS:       1200
LLC LOAD      ACCESS:        359  HIT:          0  MISS:        359
LLC RFO       ACCESS:         52  HIT:          0  MISS:         52
LLC PREFETCH  ACCESS:        789  HIT:          0  MISS:        789
LLC WRITEBACK ACCESS:          0  HIT:          0  MISS:          0
LLC PREFETCH  REQUESTED:          0  ISSUED:          0  USEFUL:       3731  USELESS:   13071253
Major fault: 0 Minor fault: 49

CPU 1 cumulative IPC: 0.59385 instructions: 100000002 cycles: 168392591
L1D TOTAL     ACCESS:   20148479  HIT:   20126936  MISS:      21543
L1D LOAD      ACCESS:   15140697  HIT:   15119214  MISS:      21483
L1D RFO       ACCESS:    5007782  HIT:    5007722  MISS:         60
L1D PREFETCH  ACCESS:          0  HIT:          0  MISS:          0
L1D WRITEBACK ACCESS:          0  HIT:          0  MISS:          0
L1D PREFETCH  REQUESTED:          0  ISSUED:          0  USEFUL:          0  USELESS:          0
L1I TOTAL     ACCESS:   43088189  HIT:   43088189  MISS:          0
L1I LOAD      ACCESS:   43088189  HIT:   43088189  MISS:          0
L1I RFO       ACCESS:          0  HIT:          0  MISS:          0
L1I PREFETCH  ACCESS:          0  HIT:          0  MISS:          0
L1I WRITEBACK ACCESS:          0  HIT:          0  MISS:          0
L1I PREFETCH  REQUESTED:          0  ISSUED:          0  USEFUL:          0  USELESS:          0
L2C TOTAL     ACCESS:      62924  HIT:      41616  MISS:      21308
L2C LOAD      ACCESS:      21483  HIT:      19821  MISS:       1662
L2C RFO       ACCESS:         60  HIT:         60  MISS:          0
L2C PREFETCH  ACCESS:      19978  HIT:        332  MISS:      19646
L2C WRITEBACK ACCESS:      21403  HIT:      21403  MISS:          0
L2C PREFETCH  REQUESTED:      25461  ISSUED:      25461  USEFUL:      24588  USELESS:         28
LLC TOTAL     ACCESS:      42536  HIT:          0  MISS:      42536
LLC LOAD      ACCESS:       1662  HIT:          0  MISS:       1662
LLC RFO       ACCESS:          0  HIT:          0  MISS:          0
LLC PREFETCH  ACCESS:      19646  HIT:          0  MISS:      19646
LLC WRITEBACK ACCESS:      21228  HIT:          0  MISS:      21228
LLC PREFETCH  REQUESTED:          0  ISSUED:          0  USEFUL:       3731  USELESS:   13071253
Major fault: 0 Minor fault: 442

CPU 2 cumulative IPC: 0.876648 instructions: 100000003 cycles: 114070892
L1D TOTAL     ACCESS:   30205933  HIT:   28333483  MISS:    1872450
L1D LOAD      ACCESS:   26855411  HIT:   24993510  MISS:    1861901
L1D RFO       ACCESS:    3350522  HIT:    3339973  MISS:      10549
L1D PREFETCH  ACCESS:          0  HIT:          0  MISS:          0
L1D WRITEBACK ACCESS:          0  HIT:          0  MISS:          0
L1D PREFETCH  REQUESTED:          0  ISSUED:          0  USEFUL:          0  USELESS:          0
L1I TOTAL     ACCESS:   25133057  HIT:   25133057  MISS:          0
L1I LOAD      ACCESS:   25133057  HIT:   25133057  MISS:          0
L1I RFO       ACCESS:          0  HIT:          0  MISS:          0
L1I PREFETCH  ACCESS:          0  HIT:          0  MISS:          0
L1I WRITEBACK ACCESS:          0  HIT:          0  MISS:          0
L1I PREFETCH  REQUESTED:          0  ISSUED:          0  USEFUL:          0  USELESS:          0
L2C TOTAL     ACCESS:    3590143  HIT:    2115731  MISS:    1474412
L2C LOAD      ACCESS:    1861811  HIT:    1717101  MISS:     144710
L2C RFO       ACCESS:      10549  HIT:          2  MISS:      10547
L2C PREFETCH  ACCESS:    1327128  HIT:       7973  MISS:    1319155
L2C WRITEBACK ACCESS:     390655  HIT:     390655  MISS:          0
L2C PREFETCH  REQUESTED:    2333171  ISSUED:    2333100  USEFUL:    1949075  USELESS:     328641
LLC TOTAL     ACCESS:    1484982  HIT:     254270  MISS:    1230712
LLC LOAD      ACCESS:     116826  HIT:      19708  MISS:      97118
LLC RFO       ACCESS:      10547  HIT:       1612  MISS:       8935
LLC PREFETCH  ACCESS:    1347039  HIT:     222420  MISS:    1124619
LLC WRITEBACK ACCESS:      10570  HIT:      10530  MISS:         40
LLC PREFETCH  REQUESTED:          0  ISSUED:          0  USEFUL:       3731  USELESS:   13071253
Major fault: 0 Minor fault: 56628

CPU 3 cumulative IPC: 0.796105 instructions: 100000001 cycles: 125611603
L1D TOTAL     ACCESS:    9830385  HIT:    8204039  MISS:    1626346
L1D LOAD      ACCESS:    7098765  HIT:    5472420  MISS:    1626345
L1D RFO       ACCESS:    2731620  HIT:    2731619  MISS:          1
L1D PREFETCH  ACCESS:          0  HIT:          0  MISS:          0
L1D WRITEBACK ACCESS:          0  HIT:          0  MISS:          0
L1D PREFETCH  REQUESTED:          0  ISSUED:          0  USEFUL:          0  USELESS:          0
L1I TOTAL     ACCESS:   21752690  HIT:   21752686  MISS:          4
L1I LOAD      ACCESS:   21752690  HIT:   21752686  MISS:          4
L1I RFO       ACCESS:          0  HIT:          0  MISS:          0
L1I PREFETCH  ACCESS:          0  HIT:          0  MISS:          0
L1I WRITEBACK ACCESS:          0  HIT:          0  MISS:          0
L1I PREFETCH  REQUESTED:          0  ISSUED:          0  USEFUL:          0  USELESS:          0
L2C TOTAL     ACCESS:    2969903  HIT:    1343613  MISS:    1626290
L2C LOAD      ACCESS:    1626346  HIT:    1240965  MISS:     385381
L2C RFO       ACCESS:          1  HIT:          0  MISS:          1
L2C PREFETCH  ACCESS:    1264022  HIT:      23164  MISS:    1240858
L2C WRITEBACK ACCESS:      79534  HIT:      79484  MISS:         50
L2C PREFETCH  REQUESTED:    3039895  ISSUED:    3003864  USEFUL:    2591435  USELESS:         58
LLC TOTAL     ACCESS:    1707511  HIT:      81667  MISS:    1625844
LLC LOAD      ACCESS:     125684  HIT:        403  MISS:     125281
LLC RFO       ACCESS:          1  HIT:          0  MISS:          1
LLC PREFETCH  ACCESS:    1500555  HIT:          0  MISS:    1500555
LLC WRITEBACK ACCESS:      81271  HIT:      81264  MISS:          7
LLC PREFETCH  REQUESTED:          0  ISSUED:          0  USEFUL:       3731  USELESS:   13071253
Major fault: 0 Minor fault: 48340

CPU 4 cumulative IPC: 0.7475 instructions: 100000000 cycles: 133779325
L1D TOTAL     ACCESS:   25751029  HIT:   23569265  MISS:    2181764
L1D LOAD      ACCESS:   24347280  HIT:   22833885  MISS:    1513395
L1D RFO       ACCESS:    1403749  HIT:     735380  MISS:     668369
L1D PREFETCH  ACCESS:          0  HIT:          0  MISS:          0
L1D WRITEBACK ACCESS:          0  HIT:          0  MISS:          0
L1D PREFETCH  REQUESTED:          0  ISSUED:          0  USEFUL:          0  USELESS:          0
L1I TOTAL     ACCESS:   27870617  HIT:   27870617  MISS:          0
L1I LOAD      ACCESS:   27870617  HIT:   27870617  MISS:          0
L1I RFO       ACCESS:          0  HIT:          0  MISS:          0
L1I PREFETCH  ACCESS:          0  HIT:          0  MISS:          0
L1I WRITEBACK ACCESS:          0  HIT:          0  MISS:          0
L1I PREFETCH  REQUESTED:          0  ISSUED:          0  USEFUL:          0  USELESS:          0
L2C TOTAL     ACCESS:    4290049  HIT:    2004070  MISS:    2285979
L2C LOAD      ACCESS:    1513395  HIT:    1331426  MISS:     181969
L2C RFO       ACCESS:     668369  HIT:          4  MISS:     668365
L2C PREFETCH  ACCESS:    1435670  HIT:         29  MISS:    1435641
L2C WRITEBACK ACCESS:     672615  HIT:     672611  MISS:          4
L2C PREFETCH  REQUESTED:    2287291  ISSUED:    2253060  USEFUL:    1977055  USELESS:     180796
LLC TOTAL     ACCESS:    2954369  HIT:     668382  MISS:    2285987
LLC LOAD      ACCESS:     111107  HIT:          4  MISS:     111103
LLC RFO       ACCESS:     668365  HIT:          0  MISS:     668365
LLC PREFETCH  ACCESS:    1506504  HIT:          1  MISS:    1506503
LLC WRITEBACK ACCESS:     668393  HIT:     668377  MISS:         16
LLC PREFETCH  REQUESTED:          0  ISSUED:          0  USEFUL:       3731  USELESS:   13071253
Major fault: 0 Minor fault: 31582

CPU 5 cumulative IPC: 0.691347 instructions: 100000001 cycles: 144645119
L1D TOTAL     ACCESS:   21355366  HIT:   18398782  MISS:    2956584
L1D LOAD      ACCESS:   18395000  HIT:   16191841  MISS:    2203159
L1D RFO       ACCESS:    2960366  HIT:    2206941  MISS:     753425
L1D PREFETCH  ACCESS:          0  HIT:          0  MISS:          0
L1D WRITEBACK ACCESS:          0  HIT:          0  MISS:          0
L1D PREFETCH  REQUESTED:          0  ISSUED:          0  USEFUL:          0  USELESS:          0
L1I TOTAL     ACCESS:   22684898  HIT:   22684611  MISS:        287
L1I LOAD      ACCESS:   22684898  HIT:   22684611  MISS:        287
L1I RFO       ACCESS:          0  HIT:          0  MISS:          0
L1I PREFETCH  ACCESS:          0  HIT:          0  MISS:          0
L1I WRITEBACK ACCESS:          0  HIT:          0  MISS:          0
L1I PREFETCH  REQUESTED:          0  ISSUED:          0  USEFUL:          0  USELESS:          0
L2C TOTAL     ACCESS:    5458758  HIT:    2869384  MISS:    2589374
L2C LOAD      ACCESS:    2203418  HIT:    1941230  MISS:     262188
L2C RFO       ACCESS:     753425  HIT:          5  MISS:     753420
L2C PREFETCH  ACCESS:    1576545  HIT:       2870  MISS:    1573675
L2C WRITEBACK ACCESS:     925370  HIT:     925279  MISS:         91
L2C PREFETCH  REQUESTED:    2668264  ISSUED:    2621952  USEFUL:    2234755  USELESS:     205957
LLC TOTAL     ACCESS:    3509298  HIT:     930024  MISS:    2579274
LLC LOAD      ACCESS:     137688  HIT:       1877  MISS:     135811
LLC RFO       ACCESS:     753418  HIT:        129  MISS:     753289
LLC PREFETCH  ACCESS:    1698177  HIT:       8047  MISS:    1690130
LLC WRITEBACK ACCESS:     920015  HIT:     919971  MISS:         44
LLC PREFETCH  REQUESTED:          0  ISSUED:          0  USEFUL:       3731  USELESS:   13071253
Major fault: 0 Minor fault: 35476

CPU 6 cumulative IPC: 0.635796 instructions: 100000000 cycles: 157283203
L1D TOTAL     ACCESS:   25113212  HIT:   24670236  MISS:     442976
L1D LOAD      ACCESS:   15588789  HIT:   15322816  MISS:     265973
L1D RFO       ACCESS:    9524423  HIT:    9347420  MISS:     177003
L1D PREFETCH  ACCESS:          0  HIT:          0  MISS:          0
L1D WRITEBACK ACCESS:          0  HIT:          0  MISS:          0
L1D PREFETCH  REQUESTED:          0  ISSUED:          0  USEFUL:          0  USELESS:          0
L1I TOTAL     ACCESS:   40234856  HIT:   40234679  MISS:        177
L1I LOAD      ACCESS:   40234856  HIT:   40234679  MISS:        177
L1I RFO       ACCESS:          0  HIT:          0  MISS:          0
L1I PREFETCH  ACCESS:          0  HIT:          0  MISS:          0
L1I WRITEBACK ACCESS:          0  HIT:          0  MISS:          0
L1I PREFETCH  REQUESTED:          0  ISSUED:          0  USEFUL:          0  USELESS:          0
L2C TOTAL     ACCESS:     852276  HIT:     382319  MISS:     469957
L2C LOAD      ACCESS:     266150  HIT:     204106  MISS:      62044
L2C RFO       ACCESS:     177001  HIT:         16  MISS:     176985
L2C PREFETCH  ACCESS:     232100  HIT:       1590  MISS:     230510
L2C WRITEBACK ACCESS:     177025  HIT:     176607  MISS:        418
L2C PREFETCH  REQUESTED:     295855  ISSUED:     295855  USEFUL:     225607  USELESS:      28359
LLC TOTAL     ACCESS:     646760  HIT:     141231  MISS:     505529
LLC LOAD      ACCESS:      28849  HIT:          0  MISS:      28849
LLC RFO       ACCESS:     176985  HIT:          0  MISS:     176985
LLC PREFETCH  ACCESS:     263705  HIT:          0  MISS:     263705
LLC WRITEBACK ACCESS:     177221  HIT:     141231  MISS:      35990
LLC PREFETCH  REQUESTED:          0  ISSUED:          0  USEFUL:       3731  USELESS:   13071253
Major fault: 0 Minor fault: 5969

CPU 7 cumulative IPC: 1.01164 instructions: 100000002 cycles: 98849803
L1D TOTAL     ACCESS:   28309838  HIT:   26623463  MISS:    1686375
L1D LOAD      ACCESS:   23392618  HIT:   21706243  MISS:    1686375
L1D RFO       ACCESS:    4917220  HIT:    4917220  MISS:          0
L1D PREFETCH  ACCESS:          0  HIT:          0  MISS:          0
L1D WRITEBACK ACCESS:          0  HIT:          0  MISS:          0
L1D PREFETCH  REQUESTED:          0  ISSUED:          0  USEFUL:          0  USELESS:          0
L1I TOTAL     ACCESS:   21255502  HIT:   21255502  MISS:          0
L1I LOAD      ACCESS:   21255502  HIT:   21255502  MISS:          0
L1I RFO       ACCESS:          0  HIT:          0  MISS:          0
L1I PREFETCH  ACCESS:          0  HIT:          0  MISS:          0
L1I WRITEBACK ACCESS:          0  HIT:          0  MISS:          0
L1I PREFETCH  REQUESTED:          0  ISSUED:          0  USEFUL:          0  USELESS:          0
L2C TOTAL     ACCESS:    3817565  HIT:    2080954  MISS:    1736611
L2C LOAD      ACCESS:    1686375  HIT:    1558816  MISS:     127559
L2C RFO       ACCESS:          0  HIT:          0  MISS:          0
L2C PREFETCH  ACCESS:    1608938  HIT:        177  MISS:    1608761
L2C WRITEBACK ACCESS:     522252  HIT:     521961  MISS:        291
L2C PREFETCH  REQUESTED:    3284489  ISSUED:    3266671  USEFUL:    3023281  USELESS:     196748
LLC TOTAL     ACCESS:    2255883  HIT:     519772  MISS:    1736111
LLC LOAD      ACCESS:     100581  HIT:        287  MISS:     100294
LLC RFO       ACCESS:          0  HIT:          0  MISS:          0
LLC PREFETCH  ACCESS:    1635739  HIT:          0  MISS:    1635739
LLC WRITEBACK ACCESS:     519563  HIT:     519485  MISS:         78
LLC PREFETCH  REQUESTED:          0  ISSUED:          0  USEFUL:       3731  USELESS:   13071253
Major fault: 0 Minor fault: 43816

L2C DA-AMPM prefetcher final stats

L2C DA-AMPM prefetcher final stats

L2C DA-AMPM prefetcher final stats

L2C DA-AMPM prefetcher final stats

L2C DA-AMPM prefetcher final stats

L2C DA-AMPM prefetcher final stats

L2C DA-AMPM prefetcher final stats

L2C DA-AMPM prefetcher final stats

DRAM Statistics
 CHANNEL 0
 RQ ROW_BUFFER_HIT:    3381858  ROW_BUFFER_MISS:    3303576
 DBUS_CONGESTED:   14244905
 WQ ROW_BUFFER_HIT:     116029  ROW_BUFFER_MISS:    1444015  FULL:          0

 CHANNEL 1
 RQ ROW_BUFFER_HIT:    3377441  ROW_BUFFER_MISS:    3316395
 DBUS_CONGESTED:   14244905
 WQ ROW_BUFFER_HIT:     115152  ROW_BUFFER_MISS:    1444792  FULL:          0

 AVG_CONGESTED_CYCLE: 14
