
*** ChampSim Multicore Out-of-Order Simulator ***

Warmup Instructions: 20000000
Simulation Instructions: 100000000
Number of CPUs: 8
LLC sets: 16384
LLC ways: 16
Off-chip DRAM Size: 8192 MB Channels: 2 Width: 64-bit Data Rate: 1600 MT/s

CPU 0 runs /scratch/user/djimenez/champsim-traces/speccpu2017/xz/603.bwaves_s/603.bwaves_s-1080B.champsimtrace.xz
CPU 1 runs /scratch/user/djimenez/champsim-traces/speccpu2017/xz/657.xz_s/657.xz_s-4994B.champsimtrace.xz
CPU 2 runs /scratch/user/djimenez/champsim-traces/speccpu2017/xz/623.xalancbmk_s/623.xalancbmk_s-700B.champsimtrace.xz
CPU 3 runs /scratch/user/djimenez/champsim-traces/speccpu2017/xz/623.xalancbmk_s/623.xalancbmk_s-10B.champsimtrace.xz
CPU 4 runs /scratch/user/djimenez/champsim-traces/speccpu2017/xz/654.roms_s/654.roms_s-842B.champsimtrace.xz
CPU 5 runs /scratch/user/djimenez/champsim-traces/speccpu2017/xz/623.xalancbmk_s/623.xalancbmk_s-592B.champsimtrace.xz
CPU 6 runs /scratch/user/djimenez/champsim-traces/speccpu2017/xz/605.mcf_s/605.mcf_s-1554B.champsimtrace.xz
CPU 7 runs /scratch/user/djimenez/champsim-traces/speccpu2017/xz/657.xz_s/657.xz_s-3167B.champsimtrace.xz
L2C DA-AMPM prefetcher
L2C DA-AMPM prefetcher
L2C DA-AMPM prefetcher
L2C DA-AMPM prefetcher
L2C DA-AMPM prefetcher
L2C DA-AMPM prefetcher
L2C DA-AMPM prefetcher
L2C DA-AMPM prefetcher
Heartbeat CPU 4 instructions: 10000003 cycles: 3781179 heartbeat IPC: 2.64468 cumulative IPC: 2.64468 (Simulation time: 0 hr 2 min 55 sec) 
Heartbeat CPU 7 instructions: 10000003 cycles: 3994921 heartbeat IPC: 2.50318 cumulative IPC: 2.50318 (Simulation time: 0 hr 3 min 6 sec) 
Heartbeat CPU 1 instructions: 10000003 cycles: 4245529 heartbeat IPC: 2.35542 cumulative IPC: 2.35542 (Simulation time: 0 hr 3 min 18 sec) 
Heartbeat CPU 0 instructions: 10000003 cycles: 4334905 heartbeat IPC: 2.30686 cumulative IPC: 2.30686 (Simulation time: 0 hr 3 min 23 sec) 
Heartbeat CPU 3 instructions: 10000001 cycles: 4858494 heartbeat IPC: 2.05825 cumulative IPC: 2.05825 (Simulation time: 0 hr 3 min 49 sec) 
Heartbeat CPU 5 instructions: 10000002 cycles: 5042720 heartbeat IPC: 1.98306 cumulative IPC: 1.98306 (Simulation time: 0 hr 3 min 59 sec) 
Heartbeat CPU 6 instructions: 10000001 cycles: 5414510 heartbeat IPC: 1.84689 cumulative IPC: 1.84689 (Simulation time: 0 hr 4 min 17 sec) 
Heartbeat CPU 2 instructions: 10000001 cycles: 5970346 heartbeat IPC: 1.67494 cumulative IPC: 1.67494 (Simulation time: 0 hr 4 min 46 sec) 
Heartbeat CPU 4 instructions: 20000000 cycles: 7609234 heartbeat IPC: 2.61229 cumulative IPC: 2.62839 (Simulation time: 0 hr 6 min 9 sec) 
Heartbeat CPU 7 instructions: 20000000 cycles: 8000907 heartbeat IPC: 2.49626 cumulative IPC: 2.49972 (Simulation time: 0 hr 6 min 28 sec) 
Heartbeat CPU 1 instructions: 20000000 cycles: 8442899 heartbeat IPC: 2.38244 cumulative IPC: 2.36885 (Simulation time: 0 hr 6 min 50 sec) 
Heartbeat CPU 0 instructions: 20000000 cycles: 8838450 heartbeat IPC: 2.22047 cumulative IPC: 2.26284 (Simulation time: 0 hr 7 min 9 sec) 
Heartbeat CPU 3 instructions: 20000000 cycles: 9635219 heartbeat IPC: 2.09348 cumulative IPC: 2.07572 (Simulation time: 0 hr 7 min 48 sec) 
Heartbeat CPU 5 instructions: 20000000 cycles: 10168813 heartbeat IPC: 1.9508 cumulative IPC: 1.9668 (Simulation time: 0 hr 8 min 14 sec) 
Heartbeat CPU 6 instructions: 20000000 cycles: 10791605 heartbeat IPC: 1.85974 cumulative IPC: 1.85329 (Simulation time: 0 hr 8 min 45 sec) 
Heartbeat CPU 2 instructions: 20000000 cycles: 10851440 heartbeat IPC: 2.04872 cumulative IPC: 1.84307 (Simulation time: 0 hr 8 min 48 sec) 

Warmup complete CPU 0 instructions: 25089022 cycles: 10851441 (Simulation time: 0 hr 8 min 48 sec) 
Warmup complete CPU 1 instructions: 25650470 cycles: 10851441 (Simulation time: 0 hr 8 min 48 sec) 
Warmup complete CPU 2 instructions: 20000001 cycles: 10851441 (Simulation time: 0 hr 8 min 48 sec) 
Warmup complete CPU 3 instructions: 22494847 cycles: 10851440 (Simulation time: 0 hr 8 min 48 sec) 
Warmup complete CPU 4 instructions: 28631705 cycles: 10851440 (Simulation time: 0 hr 8 min 48 sec) 
Warmup complete CPU 5 instructions: 21261323 cycles: 10851440 (Simulation time: 0 hr 8 min 48 sec) 
Warmup complete CPU 6 instructions: 20112131 cycles: 10851440 (Simulation time: 0 hr 8 min 48 sec) 
Warmup complete CPU 7 instructions: 26910603 cycles: 10851440 (Simulation time: 0 hr 8 min 48 sec) 

Heartbeat CPU 4 instructions: 30000003 cycles: 12214563 heartbeat IPC: 2.1714 cumulative IPC: 1.0038 (Simulation time: 0 hr 9 min 17 sec) 
Heartbeat CPU 7 instructions: 30000000 cycles: 14387280 heartbeat IPC: 1.56583 cumulative IPC: 0.873738 (Simulation time: 0 hr 10 min 8 sec) 
Heartbeat CPU 0 instructions: 30000001 cycles: 15041619 heartbeat IPC: 1.61208 cumulative IPC: 1.17202 (Simulation time: 0 hr 10 min 24 sec) 
Heartbeat CPU 1 instructions: 30000000 cycles: 15212114 heartbeat IPC: 1.47728 cumulative IPC: 0.997445 (Simulation time: 0 hr 10 min 28 sec) 
Heartbeat CPU 4 instructions: 40000000 cycles: 22820160 heartbeat IPC: 0.942898 cumulative IPC: 0.949834 (Simulation time: 0 hr 13 min 36 sec) 
Heartbeat CPU 0 instructions: 40000000 cycles: 23586666 heartbeat IPC: 1.17027 cumulative IPC: 1.17085 (Simulation time: 0 hr 13 min 52 sec) 
Heartbeat CPU 1 instructions: 40000000 cycles: 25635709 heartbeat IPC: 0.959362 cumulative IPC: 0.970595 (Simulation time: 0 hr 14 min 35 sec) 
Heartbeat CPU 7 instructions: 40000000 cycles: 27094658 heartbeat IPC: 0.786944 cumulative IPC: 0.805838 (Simulation time: 0 hr 15 min 6 sec) 
Heartbeat CPU 3 instructions: 30000000 cycles: 28784072 heartbeat IPC: 0.522224 cumulative IPC: 0.418519 (Simulation time: 0 hr 15 min 43 sec) 
Heartbeat CPU 6 instructions: 30000003 cycles: 31093441 heartbeat IPC: 0.492566 cumulative IPC: 0.488483 (Simulation time: 0 hr 16 min 33 sec) 
Heartbeat CPU 0 instructions: 50000000 cycles: 32188722 heartbeat IPC: 1.16251 cumulative IPC: 1.16749 (Simulation time: 0 hr 16 min 56 sec) 
Heartbeat CPU 4 instructions: 50000001 cycles: 34343786 heartbeat IPC: 0.867782 cumulative IPC: 0.909585 (Simulation time: 0 hr 17 min 41 sec) 
Heartbeat CPU 1 instructions: 50000001 cycles: 35783303 heartbeat IPC: 0.985455 cumulative IPC: 0.976643 (Simulation time: 0 hr 18 min 11 sec) 
Heartbeat CPU 5 instructions: 30000000 cycles: 39326660 heartbeat IPC: 0.342961 cumulative IPC: 0.306887 (Simulation time: 0 hr 19 min 24 sec) 
Heartbeat CPU 7 instructions: 50000000 cycles: 39582603 heartbeat IPC: 0.800772 cumulative IPC: 0.803636 (Simulation time: 0 hr 19 min 29 sec) 
Heartbeat CPU 0 instructions: 60000000 cycles: 41023958 heartbeat IPC: 1.13183 cumulative IPC: 1.15705 (Simulation time: 0 hr 20 min 1 sec) 
Heartbeat CPU 2 instructions: 30000001 cycles: 42430294 heartbeat IPC: 0.316668 cumulative IPC: 0.316668 (Simulation time: 0 hr 20 min 31 sec) 
Heartbeat CPU 4 instructions: 60000000 cycles: 44792138 heartbeat IPC: 0.957089 cumulative IPC: 0.924209 (Simulation time: 0 hr 21 min 22 sec) 
Heartbeat CPU 1 instructions: 60000000 cycles: 46118007 heartbeat IPC: 0.967614 cumulative IPC: 0.973997 (Simulation time: 0 hr 21 min 49 sec) 
Heartbeat CPU 0 instructions: 70000000 cycles: 49833165 heartbeat IPC: 1.13518 cumulative IPC: 1.1521 (Simulation time: 0 hr 23 min 8 sec) 
Heartbeat CPU 7 instructions: 60000000 cycles: 51002384 heartbeat IPC: 0.875674 cumulative IPC: 0.824125 (Simulation time: 0 hr 23 min 34 sec) 
Heartbeat CPU 6 instructions: 40000000 cycles: 51623195 heartbeat IPC: 0.487098 cumulative IPC: 0.487785 (Simulation time: 0 hr 23 min 48 sec) 
Heartbeat CPU 3 instructions: 40000000 cycles: 52680012 heartbeat IPC: 0.418481 cumulative IPC: 0.418498 (Simulation time: 0 hr 24 min 12 sec) 
Heartbeat CPU 4 instructions: 70000001 cycles: 55119515 heartbeat IPC: 0.9683 cumulative IPC: 0.934495 (Simulation time: 0 hr 25 min 3 sec) 
Heartbeat CPU 1 instructions: 70000003 cycles: 56305151 heartbeat IPC: 0.98163 cumulative IPC: 0.975708 (Simulation time: 0 hr 25 min 28 sec) 
Heartbeat CPU 0 instructions: 80000000 cycles: 58660640 heartbeat IPC: 1.13283 cumulative IPC: 1.14854 (Simulation time: 0 hr 26 min 29 sec) 
Heartbeat CPU 7 instructions: 70000000 cycles: 61680276 heartbeat IPC: 0.936514 cumulative IPC: 0.847735 (Simulation time: 0 hr 27 min 38 sec) 
Heartbeat CPU 4 instructions: 80000000 cycles: 65553518 heartbeat IPC: 0.958405 cumulative IPC: 0.939056 (Simulation time: 0 hr 29 min 8 sec) 
Heartbeat CPU 1 instructions: 80000000 cycles: 66548337 heartbeat IPC: 0.976258 cumulative IPC: 0.975809 (Simulation time: 0 hr 29 min 33 sec) 
Heartbeat CPU 0 instructions: 90000000 cycles: 67504915 heartbeat IPC: 1.13067 cumulative IPC: 1.14575 (Simulation time: 0 hr 29 min 54 sec) 
Heartbeat CPU 5 instructions: 40000000 cycles: 70330614 heartbeat IPC: 0.32254 cumulative IPC: 0.315046 (Simulation time: 0 hr 30 min 55 sec) 
Heartbeat CPU 2 instructions: 40000000 cycles: 71372104 heartbeat IPC: 0.345521 cumulative IPC: 0.330466 (Simulation time: 0 hr 31 min 17 sec) 
Heartbeat CPU 6 instructions: 50000000 cycles: 72201188 heartbeat IPC: 0.485956 cumulative IPC: 0.487172 (Simulation time: 0 hr 31 min 34 sec) 
Heartbeat CPU 7 instructions: 80000000 cycles: 72719670 heartbeat IPC: 0.905847 cumulative IPC: 0.858104 (Simulation time: 0 hr 31 min 46 sec) 
Heartbeat CPU 4 instructions: 90000003 cycles: 76117969 heartbeat IPC: 0.946571 cumulative IPC: 0.940272 (Simulation time: 0 hr 33 min 11 sec) 
Heartbeat CPU 0 instructions: 100000000 cycles: 76355833 heartbeat IPC: 1.12983 cumulative IPC: 1.1436 (Simulation time: 0 hr 33 min 17 sec) 
Heartbeat CPU 1 instructions: 90000002 cycles: 76931059 heartbeat IPC: 0.963139 cumulative IPC: 0.973818 (Simulation time: 0 hr 33 min 30 sec) 
Heartbeat CPU 3 instructions: 50000001 cycles: 78876778 heartbeat IPC: 0.381727 cumulative IPC: 0.404337 (Simulation time: 0 hr 34 min 13 sec) 
Heartbeat CPU 7 instructions: 90000000 cycles: 82697579 heartbeat IPC: 1.00221 cumulative IPC: 0.878118 (Simulation time: 0 hr 35 min 49 sec) 
Heartbeat CPU 0 instructions: 110000001 cycles: 85158998 heartbeat IPC: 1.13596 cumulative IPC: 1.1427 (Simulation time: 0 hr 36 min 46 sec) 
Heartbeat CPU 4 instructions: 100000000 cycles: 86234614 heartbeat IPC: 0.98847 cumulative IPC: 0.94674 (Simulation time: 0 hr 37 min 13 sec) 
Heartbeat CPU 1 instructions: 100000000 cycles: 87166952 heartbeat IPC: 0.976954 cumulative IPC: 0.974239 (Simulation time: 0 hr 37 min 36 sec) 
Heartbeat CPU 6 instructions: 60000000 cycles: 92620869 heartbeat IPC: 0.489724 cumulative IPC: 0.487809 (Simulation time: 0 hr 39 min 50 sec) 
Heartbeat CPU 7 instructions: 100000000 cycles: 93723904 heartbeat IPC: 0.90692 cumulative IPC: 0.88195 (Simulation time: 0 hr 40 min 16 sec) 
Heartbeat CPU 0 instructions: 120000000 cycles: 93933859 heartbeat IPC: 1.13962 cumulative IPC: 1.14237 (Simulation time: 0 hr 40 min 21 sec) 
Heartbeat CPU 4 instructions: 110000001 cycles: 96995163 heartbeat IPC: 0.929321 cumulative IPC: 0.944564 (Simulation time: 0 hr 41 min 33 sec) 
Heartbeat CPU 1 instructions: 110000003 cycles: 97461724 heartbeat IPC: 0.971367 cumulative IPC: 0.973897 (Simulation time: 0 hr 41 min 43 sec) 
Heartbeat CPU 2 instructions: 50000001 cycles: 98262955 heartbeat IPC: 0.371874 cumulative IPC: 0.343204 (Simulation time: 0 hr 42 min 1 sec) 
Heartbeat CPU 5 instructions: 50000002 cycles: 98391702 heartbeat IPC: 0.356365 cumulative IPC: 0.328291 (Simulation time: 0 hr 42 min 4 sec) 
Finished CPU 0 instructions: 100000001 cycles: 87542862 cumulative IPC: 1.1423 (Simulation time: 0 hr 42 min 4 sec) 
Heartbeat CPU 0 instructions: 130000000 cycles: 102695962 heartbeat IPC: 1.14128 cumulative IPC: 1.14227 (Simulation time: 0 hr 43 min 43 sec) 
Heartbeat CPU 3 instructions: 60000000 cycles: 103770947 heartbeat IPC: 0.4017 cumulative IPC: 0.403631 (Simulation time: 0 hr 44 min 7 sec) 
Heartbeat CPU 7 instructions: 110000001 cycles: 104577861 heartbeat IPC: 0.921323 cumulative IPC: 0.88651 (Simulation time: 0 hr 44 min 24 sec) 
Heartbeat CPU 4 instructions: 120000000 cycles: 107202391 heartbeat IPC: 0.979698 cumulative IPC: 0.948286 (Simulation time: 0 hr 45 min 33 sec) 
Heartbeat CPU 1 instructions: 120000000 cycles: 107827574 heartbeat IPC: 0.964706 cumulative IPC: 0.972915 (Simulation time: 0 hr 45 min 48 sec) 
Heartbeat CPU 0 instructions: 140000000 cycles: 111457742 heartbeat IPC: 1.14132 cumulative IPC: 1.14218 (Simulation time: 0 hr 47 min 14 sec) 
Heartbeat CPU 6 instructions: 70000001 cycles: 113137986 heartbeat IPC: 0.487398 cumulative IPC: 0.487727 (Simulation time: 0 hr 47 min 51 sec) 
Finished CPU 1 instructions: 100000000 cycles: 103272408 cumulative IPC: 0.968313 (Simulation time: 0 hr 48 min 13 sec) 
Heartbeat CPU 7 instructions: 120000000 cycles: 114511828 heartbeat IPC: 1.00665 cumulative IPC: 0.898023 (Simulation time: 0 hr 48 min 23 sec) 
Finished CPU 4 instructions: 100000001 cycles: 105009910 cumulative IPC: 0.952291 (Simulation time: 0 hr 48 min 53 sec) 
Heartbeat CPU 4 instructions: 130000002 cycles: 117224848 heartbeat IPC: 0.99776 cumulative IPC: 0.952948 (Simulation time: 0 hr 49 min 24 sec) 
Heartbeat CPU 2 instructions: 60000000 cycles: 117903759 heartbeat IPC: 0.509144 cumulative IPC: 0.373649 (Simulation time: 0 hr 49 min 39 sec) 
Heartbeat CPU 1 instructions: 130000000 cycles: 118596082 heartbeat IPC: 0.928634 cumulative IPC: 0.968489 (Simulation time: 0 hr 49 min 55 sec) 
Heartbeat CPU 0 instructions: 150000002 cycles: 120283086 heartbeat IPC: 1.1331 cumulative IPC: 1.14145 (Simulation time: 0 hr 50 min 39 sec) 
Finished CPU 7 instructions: 100000003 cycles: 109670760 cumulative IPC: 0.91182 (Simulation time: 0 hr 50 min 45 sec) 
Heartbeat CPU 7 instructions: 130000002 cycles: 123304767 heartbeat IPC: 1.13728 cumulative IPC: 0.916731 (Simulation time: 0 hr 52 min 6 sec) 
Heartbeat CPU 5 instructions: 60000000 cycles: 124653857 heartbeat IPC: 0.380776 cumulative IPC: 0.340403 (Simulation time: 0 hr 52 min 40 sec) 
Heartbeat CPU 4 instructions: 140000000 cycles: 127822982 heartbeat IPC: 0.943562 cumulative IPC: 0.952097 (Simulation time: 0 hr 54 min 2 sec) 
Heartbeat CPU 3 instructions: 70000000 cycles: 128658146 heartbeat IPC: 0.401813 cumulative IPC: 0.403247 (Simulation time: 0 hr 54 min 24 sec) 
Heartbeat CPU 1 instructions: 140000000 cycles: 128958718 heartbeat IPC: 0.965005 cumulative IPC: 0.968184 (Simulation time: 0 hr 54 min 30 sec) 
Heartbeat CPU 0 instructions: 160000000 cycles: 129096303 heartbeat IPC: 1.13466 cumulative IPC: 1.14095 (Simulation time: 0 hr 54 min 33 sec) 
Heartbeat CPU 7 instructions: 140000000 cycles: 133453080 heartbeat IPC: 0.985385 cumulative IPC: 0.922413 (Simulation time: 0 hr 56 min 25 sec) 
Heartbeat CPU 6 instructions: 80000000 cycles: 133964461 heartbeat IPC: 0.480158 cumulative IPC: 0.486446 (Simulation time: 0 hr 56 min 36 sec) 
Heartbeat CPU 0 instructions: 170000002 cycles: 137963652 heartbeat IPC: 1.12773 cumulative IPC: 1.14002 (Simulation time: 0 hr 58 min 15 sec) 
Heartbeat CPU 4 instructions: 150000001 cycles: 138424395 heartbeat IPC: 0.943271 cumulative IPC: 0.951364 (Simulation time: 0 hr 58 min 26 sec) 
Heartbeat CPU 1 instructions: 150000000 cycles: 140284879 heartbeat IPC: 0.882912 cumulative IPC: 0.960722 (Simulation time: 0 hr 59 min 13 sec) 
Heartbeat CPU 2 instructions: 70000001 cycles: 141193604 heartbeat IPC: 0.429372 cumulative IPC: 0.383606 (Simulation time: 0 hr 59 min 35 sec) 
Heartbeat CPU 7 instructions: 150000003 cycles: 142416207 heartbeat IPC: 1.11568 cumulative IPC: 0.93558 (Simulation time: 1 hr 0 min 6 sec) 
Heartbeat CPU 0 instructions: 180000000 cycles: 146764589 heartbeat IPC: 1.13624 cumulative IPC: 1.13978 (Simulation time: 1 hr 1 min 48 sec) 
Heartbeat CPU 4 instructions: 160000000 cycles: 148617687 heartbeat IPC: 0.981037 cumulative IPC: 0.953559 (Simulation time: 1 hr 2 min 29 sec) 
Heartbeat CPU 5 instructions: 70000001 cycles: 149713798 heartbeat IPC: 0.399043 cumulative IPC: 0.350986 (Simulation time: 1 hr 2 min 53 sec) 
Heartbeat CPU 1 instructions: 160000000 cycles: 150642413 heartbeat IPC: 0.965481 cumulative IPC: 0.961074 (Simulation time: 1 hr 3 min 18 sec) 
Heartbeat CPU 7 instructions: 160000000 cycles: 151067364 heartbeat IPC: 1.15591 cumulative IPC: 0.949175 (Simulation time: 1 hr 3 min 30 sec) 
Heartbeat CPU 3 instructions: 80000000 cycles: 153471254 heartbeat IPC: 0.403013 cumulative IPC: 0.403206 (Simulation time: 1 hr 4 min 28 sec) 
Heartbeat CPU 6 instructions: 90000003 cycles: 154345264 heartbeat IPC: 0.490658 cumulative IPC: 0.487044 (Simulation time: 1 hr 4 min 48 sec) 
Heartbeat CPU 0 instructions: 190000001 cycles: 155613654 heartbeat IPC: 1.13006 cumulative IPC: 1.13919 (Simulation time: 1 hr 5 min 17 sec) 
Heartbeat CPU 4 instructions: 170000003 cycles: 159038260 heartbeat IPC: 0.95964 cumulative IPC: 0.953987 (Simulation time: 1 hr 6 min 32 sec) 
Heartbeat CPU 1 instructions: 170000002 cycles: 161654308 heartbeat IPC: 0.908109 cumulative IPC: 0.957207 (Simulation time: 1 hr 7 min 27 sec) 
Heartbeat CPU 7 instructions: 170000000 cycles: 161950328 heartbeat IPC: 0.918867 cumulative IPC: 0.946992 (Simulation time: 1 hr 7 min 33 sec) 
Heartbeat CPU 0 instructions: 200000000 cycles: 164472987 heartbeat IPC: 1.12875 cumulative IPC: 1.13858 (Simulation time: 1 hr 8 min 29 sec) 
Heartbeat CPU 5 instructions: 80000000 cycles: 168297034 heartbeat IPC: 0.538119 cumulative IPC: 0.373073 (Simulation time: 1 hr 9 min 50 sec) 
Heartbeat CPU 4 instructions: 180000000 cycles: 169868272 heartbeat IPC: 0.92336 cumulative IPC: 0.951901 (Simulation time: 1 hr 10 min 25 sec) 
Heartbeat CPU 1 instructions: 180000000 cycles: 173046204 heartbeat IPC: 0.877817 cumulative IPC: 0.951631 (Simulation time: 1 hr 11 min 35 sec) 
Heartbeat CPU 0 instructions: 210000003 cycles: 173294702 heartbeat IPC: 1.13357 cumulative IPC: 1.13831 (Simulation time: 1 hr 11 min 40 sec) 
Heartbeat CPU 2 instructions: 80000000 cycles: 174549078 heartbeat IPC: 0.299801 cumulative IPC: 0.366529 (Simulation time: 1 hr 12 min 6 sec) 
Heartbeat CPU 6 instructions: 100000000 cycles: 174625945 heartbeat IPC: 0.49308 cumulative IPC: 0.487792 (Simulation time: 1 hr 12 min 8 sec) 
Heartbeat CPU 7 instructions: 180000000 cycles: 174888673 heartbeat IPC: 0.772896 cumulative IPC: 0.93326 (Simulation time: 1 hr 12 min 14 sec) 
Heartbeat CPU 3 instructions: 90000002 cycles: 177346174 heartbeat IPC: 0.41885 cumulative IPC: 0.405449 (Simulation time: 1 hr 13 min 8 sec) 
Heartbeat CPU 4 instructions: 190000000 cycles: 180489737 heartbeat IPC: 0.94149 cumulative IPC: 0.951249 (Simulation time: 1 hr 14 min 14 sec) 
Heartbeat CPU 0 instructions: 220000000 cycles: 182144820 heartbeat IPC: 1.12993 cumulative IPC: 1.13788 (Simulation time: 1 hr 14 min 48 sec) 
Heartbeat CPU 1 instructions: 190000002 cycles: 185449428 heartbeat IPC: 0.806242 cumulative IPC: 0.941303 (Simulation time: 1 hr 15 min 59 sec) 
Heartbeat CPU 5 instructions: 90000000 cycles: 185557494 heartbeat IPC: 0.579359 cumulative IPC: 0.393453 (Simulation time: 1 hr 16 min 2 sec) 
Heartbeat CPU 7 instructions: 190000000 cycles: 189863406 heartbeat IPC: 0.667792 cumulative IPC: 0.911053 (Simulation time: 1 hr 17 min 34 sec) 
Heartbeat CPU 4 instructions: 200000000 cycles: 190903003 heartbeat IPC: 0.960313 cumulative IPC: 0.951773 (Simulation time: 1 hr 17 min 56 sec) 
Heartbeat CPU 0 instructions: 230000001 cycles: 190973447 heartbeat IPC: 1.13268 cumulative IPC: 1.13762 (Simulation time: 1 hr 17 min 58 sec) 
Heartbeat CPU 6 instructions: 110000000 cycles: 194950656 heartbeat IPC: 0.492012 cumulative IPC: 0.488258 (Simulation time: 1 hr 19 min 24 sec) 
Heartbeat CPU 1 instructions: 200000000 cycles: 196625996 heartbeat IPC: 0.894729 cumulative IPC: 0.938501 (Simulation time: 1 hr 20 min 0 sec) 
Heartbeat CPU 0 instructions: 240000000 cycles: 199826856 heartbeat IPC: 1.12951 cumulative IPC: 1.13724 (Simulation time: 1 hr 21 min 8 sec) 
Heartbeat CPU 4 instructions: 210000001 cycles: 200981616 heartbeat IPC: 0.9922 cumulative IPC: 0.953916 (Simulation time: 1 hr 21 min 32 sec) 
Heartbeat CPU 3 instructions: 100000000 cycles: 202543928 heartbeat IPC: 0.396861 cumulative IPC: 0.40432 (Simulation time: 1 hr 22 min 5 sec) 
Heartbeat CPU 2 instructions: 90000001 cycles: 203767564 heartbeat IPC: 0.342249 cumulative IPC: 0.362852 (Simulation time: 1 hr 22 min 32 sec) 
Heartbeat CPU 7 instructions: 200000000 cycles: 204028458 heartbeat IPC: 0.705963 cumulative IPC: 0.896014 (Simulation time: 1 hr 22 min 37 sec) 
Heartbeat CPU 5 instructions: 100000000 cycles: 205811824 heartbeat IPC: 0.493722 cumulative IPC: 0.40387 (Simulation time: 1 hr 23 min 15 sec) 
Heartbeat CPU 1 instructions: 210000001 cycles: 208154634 heartbeat IPC: 0.867405 cumulative IPC: 0.934346 (Simulation time: 1 hr 24 min 3 sec) 
Heartbeat CPU 0 instructions: 250000003 cycles: 208674894 heartbeat IPC: 1.13019 cumulative IPC: 1.13693 (Simulation time: 1 hr 24 min 13 sec) 
Heartbeat CPU 4 instructions: 220000000 cycles: 211587798 heartbeat IPC: 0.942846 cumulative IPC: 0.953332 (Simulation time: 1 hr 25 min 17 sec) 
Heartbeat CPU 6 instructions: 120000000 cycles: 214822991 heartbeat IPC: 0.503212 cumulative IPC: 0.489715 (Simulation time: 1 hr 26 min 25 sec) 
Finished CPU 6 instructions: 100000000 cycles: 204167231 cumulative IPC: 0.489795 (Simulation time: 1 hr 26 min 29 sec) 
Heartbeat CPU 1 instructions: 220000000 cycles: 217354748 heartbeat IPC: 1.08694 cumulative IPC: 0.941145 (Simulation time: 1 hr 27 min 16 sec) 
Heartbeat CPU 0 instructions: 260000000 cycles: 217507801 heartbeat IPC: 1.13213 cumulative IPC: 1.13672 (Simulation time: 1 hr 27 min 19 sec) 
Heartbeat CPU 7 instructions: 210000000 cycles: 217752345 heartbeat IPC: 0.728657 cumulative IPC: 0.884913 (Simulation time: 1 hr 27 min 24 sec) 
Heartbeat CPU 4 instructions: 230000003 cycles: 221604904 heartbeat IPC: 0.998293 cumulative IPC: 0.955469 (Simulation time: 1 hr 28 min 41 sec) 
Heartbeat CPU 3 instructions: 110000000 cycles: 225972400 heartbeat IPC: 0.426831 cumulative IPC: 0.406772 (Simulation time: 1 hr 30 min 8 sec) 
Heartbeat CPU 0 instructions: 270000001 cycles: 226354949 heartbeat IPC: 1.13031 cumulative IPC: 1.13646 (Simulation time: 1 hr 30 min 15 sec) 
Heartbeat CPU 1 instructions: 230000001 cycles: 227341907 heartbeat IPC: 1.00129 cumulative IPC: 0.943919 (Simulation time: 1 hr 30 min 35 sec) 
Heartbeat CPU 7 instructions: 220000000 cycles: 230068169 heartbeat IPC: 0.811964 cumulative IPC: 0.880815 (Simulation time: 1 hr 31 min 28 sec) 
Heartbeat CPU 4 instructions: 240000000 cycles: 232152322 heartbeat IPC: 0.948099 cumulative IPC: 0.955117 (Simulation time: 1 hr 32 min 13 sec) 
Heartbeat CPU 5 instructions: 110000001 cycles: 234497407 heartbeat IPC: 0.348607 cumulative IPC: 0.396782 (Simulation time: 1 hr 33 min 0 sec) 
Heartbeat CPU 6 instructions: 130000001 cycles: 234950505 heartbeat IPC: 0.496832 cumulative IPC: 0.490354 (Simulation time: 1 hr 33 min 9 sec) 
Heartbeat CPU 0 instructions: 280000000 cycles: 235201990 heartbeat IPC: 1.13032 cumulative IPC: 1.13622 (Simulation time: 1 hr 33 min 14 sec) 
Heartbeat CPU 2 instructions: 100000000 cycles: 236896537 heartbeat IPC: 0.301851 cumulative IPC: 0.353912 (Simulation time: 1 hr 33 min 49 sec) 
Heartbeat CPU 1 instructions: 240000000 cycles: 239470419 heartbeat IPC: 0.824503 cumulative IPC: 0.937584 (Simulation time: 1 hr 34 min 43 sec) 
Heartbeat CPU 7 instructions: 230000002 cycles: 240786887 heartbeat IPC: 0.932948 cumulative IPC: 0.883245 (Simulation time: 1 hr 35 min 10 sec) 
Heartbeat CPU 4 instructions: 250000000 cycles: 242646944 heartbeat IPC: 0.952869 cumulative IPC: 0.955015 (Simulation time: 1 hr 35 min 48 sec) 
Heartbeat CPU 0 instructions: 290000001 cycles: 244029936 heartbeat IPC: 1.13277 cumulative IPC: 1.13609 (Simulation time: 1 hr 36 min 18 sec) 
Heartbeat CPU 3 instructions: 120000000 cycles: 249838660 heartbeat IPC: 0.419002 cumulative IPC: 0.407993 (Simulation time: 1 hr 38 min 26 sec) 
Heartbeat CPU 1 instructions: 250000001 cycles: 250436003 heartbeat IPC: 0.911944 cumulative IPC: 0.936411 (Simulation time: 1 hr 38 min 39 sec) 
Heartbeat CPU 7 instructions: 240000000 cycles: 251816217 heartbeat IPC: 0.906673 cumulative IPC: 0.884318 (Simulation time: 1 hr 39 min 8 sec) 
Heartbeat CPU 4 instructions: 260000000 cycles: 252845692 heartbeat IPC: 0.980512 cumulative IPC: 0.95609 (Simulation time: 1 hr 39 min 31 sec) 
Heartbeat CPU 0 instructions: 300000000 cycles: 252877282 heartbeat IPC: 1.13028 cumulative IPC: 1.13587 (Simulation time: 1 hr 39 min 32 sec) 
Heartbeat CPU 6 instructions: 140000000 cycles: 255187716 heartbeat IPC: 0.494139 cumulative IPC: 0.490667 (Simulation time: 1 hr 40 min 24 sec) 
Finished CPU 3 instructions: 100000001 cycles: 245309890 cumulative IPC: 0.407648 (Simulation time: 1 hr 40 min 45 sec) 
Heartbeat CPU 0 instructions: 310000001 cycles: 261701277 heartbeat IPC: 1.13327 cumulative IPC: 1.13578 (Simulation time: 1 hr 42 min 45 sec) 
Heartbeat CPU 1 instructions: 260000000 cycles: 262165003 heartbeat IPC: 0.852588 cumulative IPC: 0.932499 (Simulation time: 1 hr 42 min 55 sec) 
Heartbeat CPU 7 instructions: 250000000 cycles: 262267423 heartbeat IPC: 0.956827 cumulative IPC: 0.887332 (Simulation time: 1 hr 42 min 57 sec) 
Heartbeat CPU 4 instructions: 270000002 cycles: 263337794 heartbeat IPC: 0.953098 cumulative IPC: 0.955966 (Simulation time: 1 hr 43 min 21 sec) 
Heartbeat CPU 5 instructions: 120000000 cycles: 264937511 heartbeat IPC: 0.328514 cumulative IPC: 0.388603 (Simulation time: 1 hr 43 min 56 sec) 
Heartbeat CPU 2 instructions: 110000002 cycles: 266672624 heartbeat IPC: 0.33584 cumulative IPC: 0.351808 (Simulation time: 1 hr 44 min 33 sec) 
Finished CPU 5 instructions: 100000000 cycles: 257677936 cumulative IPC: 0.388081 (Simulation time: 1 hr 45 min 16 sec) 
Heartbeat CPU 0 instructions: 320000000 cycles: 270551929 heartbeat IPC: 1.12986 cumulative IPC: 1.13558 (Simulation time: 1 hr 46 min 1 sec) 
Heartbeat CPU 7 instructions: 260000000 cycles: 271394135 heartbeat IPC: 1.09568 cumulative IPC: 0.89463 (Simulation time: 1 hr 46 min 20 sec) 
Heartbeat CPU 4 instructions: 280000000 cycles: 273652665 heartbeat IPC: 0.969474 cumulative IPC: 0.956496 (Simulation time: 1 hr 47 min 10 sec) 
Heartbeat CPU 1 instructions: 270000001 cycles: 273701343 heartbeat IPC: 0.866826 cumulative IPC: 0.929616 (Simulation time: 1 hr 47 min 11 sec) 
Heartbeat CPU 6 instructions: 150000001 cycles: 275313872 heartbeat IPC: 0.496866 cumulative IPC: 0.491139 (Simulation time: 1 hr 47 min 47 sec) 
Heartbeat CPU 3 instructions: 130000003 cycles: 275849884 heartbeat IPC: 0.38445 cumulative IPC: 0.405682 (Simulation time: 1 hr 48 min 0 sec) 
Heartbeat CPU 0 instructions: 330000003 cycles: 279381254 heartbeat IPC: 1.13259 cumulative IPC: 1.13548 (Simulation time: 1 hr 49 min 20 sec) 
Heartbeat CPU 7 instructions: 270000001 cycles: 280158010 heartbeat IPC: 1.14105 cumulative IPC: 0.902649 (Simulation time: 1 hr 49 min 38 sec) 
Heartbeat CPU 4 instructions: 290000003 cycles: 283673930 heartbeat IPC: 0.997878 cumulative IPC: 0.958016 (Simulation time: 1 hr 51 min 5 sec) 
Heartbeat CPU 1 instructions: 280000000 cycles: 285157315 heartbeat IPC: 0.872907 cumulative IPC: 0.927248 (Simulation time: 1 hr 51 min 36 sec) 
Heartbeat CPU 0 instructions: 340000000 cycles: 288189914 heartbeat IPC: 1.13525 cumulative IPC: 1.13548 (Simulation time: 1 hr 52 min 41 sec) 
Heartbeat CPU 5 instructions: 130000002 cycles: 292659484 heartbeat IPC: 0.360725 cumulative IPC: 0.385861 (Simulation time: 1 hr 54 min 13 sec) 
Heartbeat CPU 7 instructions: 280000000 cycles: 293064586 heartbeat IPC: 0.774799 cumulative IPC: 0.896802 (Simulation time: 1 hr 54 min 22 sec) 
Heartbeat CPU 4 instructions: 300000000 cycles: 293868817 heartbeat IPC: 0.980884 cumulative IPC: 0.95884 (Simulation time: 1 hr 54 min 38 sec) 
Heartbeat CPU 2 instructions: 120000000 cycles: 293968920 heartbeat IPC: 0.36635 cumulative IPC: 0.35321 (Simulation time: 1 hr 54 min 40 sec) 
Finished CPU 2 instructions: 100000000 cycles: 283117492 cumulative IPC: 0.35321 (Simulation time: 1 hr 54 min 40 sec) 

CPU 0 Branch Prediction Accuracy: 91.7162% MPKI: 11.6376

CPU 1 Branch Prediction Accuracy: 87.4729% MPKI: 13.1436

CPU 2 Branch Prediction Accuracy: 99.1796% MPKI: 1.91548

CPU 3 Branch Prediction Accuracy: 99.2465% MPKI: 1.73605

CPU 4 Branch Prediction Accuracy: 99.5539% MPKI: 0.650059

CPU 5 Branch Prediction Accuracy: 99.23% MPKI: 1.9223

CPU 6 Branch Prediction Accuracy: 98.0436% MPKI: 3.56901

CPU 7 Branch Prediction Accuracy: 93.5677% MPKI: 9.21646

ChampSim completed all CPUs

Total Simulation Statistics (not including warmup)

CPU 0 cumulative IPC: 1.13563 instructions: 321516967 cycles: 283117492
L1D TOTAL     ACCESS:   55653754  HIT:   55623429  MISS:      30325
L1D LOAD      ACCESS:   44653562  HIT:   44649763  MISS:       3799
L1D RFO       ACCESS:   11000192  HIT:   10973666  MISS:      26526
L1D PREFETCH  ACCESS:          0  HIT:          0  MISS:          0
L1D WRITEBACK ACCESS:          0  HIT:          0  MISS:          0
L1I TOTAL     ACCESS:   78875005  HIT:   78875005  MISS:          0
L1I LOAD      ACCESS:   78875005  HIT:   78875005  MISS:          0
L1I RFO       ACCESS:          0  HIT:          0  MISS:          0
L1I PREFETCH  ACCESS:          0  HIT:          0  MISS:          0
L1I WRITEBACK ACCESS:          0  HIT:          0  MISS:          0
L2C TOTAL     ACCESS:      59082  HIT:      33100  MISS:      25982
L2C LOAD      ACCESS:       3799  HIT:       3614  MISS:        185
L2C RFO       ACCESS:      26526  HIT:       2903  MISS:      23623
L2C PREFETCH  ACCESS:       2211  HIT:         37  MISS:       2174
L2C WRITEBACK ACCESS:      26546  HIT:      26546  MISS:          0

L2C DA-AMPM prefetcher final stats
LLC TOTAL     ACCESS:      49592  HIT:       5831  MISS:      43761
LLC LOAD      ACCESS:        185  HIT:          0  MISS:        185
LLC RFO       ACCESS:      23623  HIT:          0  MISS:      23623
LLC PREFETCH  ACCESS:       2174  HIT:          0  MISS:       2174
LLC WRITEBACK ACCESS:      23610  HIT:       5831  MISS:      17779

CPU 1 cumulative IPC: 0.924604 instructions: 261771580 cycles: 283117492
L1D TOTAL     ACCESS:   39295620  HIT:   38955811  MISS:     339809
L1D LOAD      ACCESS:   21941950  HIT:   21734016  MISS:     207934
L1D RFO       ACCESS:   17353670  HIT:   17221795  MISS:     131875
L1D PREFETCH  ACCESS:          0  HIT:          0  MISS:          0
L1D WRITEBACK ACCESS:          0  HIT:          0  MISS:          0
L1I TOTAL     ACCESS:   57213154  HIT:   57213002  MISS:        152
L1I LOAD      ACCESS:   57213154  HIT:   57213002  MISS:        152
L1I RFO       ACCESS:          0  HIT:          0  MISS:          0
L1I PREFETCH  ACCESS:          0  HIT:          0  MISS:          0
L1I WRITEBACK ACCESS:          0  HIT:          0  MISS:          0
L2C TOTAL     ACCESS:     556404  HIT:     412815  MISS:     143589
L2C LOAD      ACCESS:     208085  HIT:     168193  MISS:      39892
L2C RFO       ACCESS:     131874  HIT:      50334  MISS:      81540
L2C PREFETCH  ACCESS:      41461  HIT:      19460  MISS:      22001
L2C WRITEBACK ACCESS:     174984  HIT:     174828  MISS:        156

L2C DA-AMPM prefetcher final stats
LLC TOTAL     ACCESS:     230593  HIT:     101300  MISS:     129293
LLC LOAD      ACCESS:      39293  HIT:      18809  MISS:      20484
LLC RFO       ACCESS:      81536  HIT:        611  MISS:      80925
LLC PREFETCH  ACCESS:      22604  HIT:       3669  MISS:      18935
LLC WRITEBACK ACCESS:      87160  HIT:      78211  MISS:       8949

CPU 2 cumulative IPC: 0.35321 instructions: 100000000 cycles: 283117492
L1D TOTAL     ACCESS:   27455834  HIT:   22146565  MISS:    5309269
L1D LOAD      ACCESS:   19221428  HIT:   14078546  MISS:    5142882
L1D RFO       ACCESS:    8234406  HIT:    8068019  MISS:     166387
L1D PREFETCH  ACCESS:          0  HIT:          0  MISS:          0
L1D WRITEBACK ACCESS:          0  HIT:          0  MISS:          0
L1I TOTAL     ACCESS:   42721929  HIT:   42421279  MISS:     300650
L1I LOAD      ACCESS:   42721929  HIT:   42421279  MISS:     300650
L1I RFO       ACCESS:          0  HIT:          0  MISS:          0
L1I PREFETCH  ACCESS:          0  HIT:          0  MISS:          0
L1I WRITEBACK ACCESS:          0  HIT:          0  MISS:          0
L2C TOTAL     ACCESS:    6777890  HIT:    3778539  MISS:    2999351
L2C LOAD      ACCESS:    5443512  HIT:    3015662  MISS:    2427850
L2C RFO       ACCESS:     166381  HIT:      27948  MISS:     138433
L2C PREFETCH  ACCESS:     897063  HIT:     464084  MISS:     432979
L2C WRITEBACK ACCESS:     270934  HIT:     270845  MISS:         89

L2C DA-AMPM prefetcher final stats
LLC TOTAL     ACCESS:    3198054  HIT:    3029106  MISS:     168948
LLC LOAD      ACCESS:    2414150  HIT:    2379925  MISS:      34225
LLC RFO       ACCESS:     138191  HIT:      25151  MISS:     113040
LLC PREFETCH  ACCESS:     446905  HIT:     426124  MISS:      20781
LLC WRITEBACK ACCESS:     198808  HIT:     197906  MISS:        902

CPU 3 cumulative IPC: 0.405225 instructions: 114726297 cycles: 283117493
L1D TOTAL     ACCESS:   26830422  HIT:   23601291  MISS:    3229131
L1D LOAD      ACCESS:   21408843  HIT:   18249363  MISS:    3159480
L1D RFO       ACCESS:    5421579  HIT:    5351928  MISS:      69651
L1D PREFETCH  ACCESS:          0  HIT:          0  MISS:          0
L1D WRITEBACK ACCESS:          0  HIT:          0  MISS:          0
L1I TOTAL     ACCESS:   36725374  HIT:   36319061  MISS:     406313
L1I LOAD      ACCESS:   36725374  HIT:   36319061  MISS:     406313
L1I RFO       ACCESS:          0  HIT:          0  MISS:          0
L1I PREFETCH  ACCESS:          0  HIT:          0  MISS:          0
L1I WRITEBACK ACCESS:          0  HIT:          0  MISS:          0
L2C TOTAL     ACCESS:    4831598  HIT:     940337  MISS:    3891261
L2C LOAD      ACCESS:    3565717  HIT:     716036  MISS:    2849681
L2C RFO       ACCESS:      69644  HIT:      32769  MISS:      36875
L2C PREFETCH  ACCESS:    1051883  HIT:      49979  MISS:    1001904
L2C WRITEBACK ACCESS:     144354  HIT:     141553  MISS:       2801

L2C DA-AMPM prefetcher final stats
LLC TOTAL     ACCESS:    3955483  HIT:    3799211  MISS:     156272
LLC LOAD      ACCESS:    2822967  HIT:    2736900  MISS:      86067
LLC RFO       ACCESS:      36859  HIT:      21680  MISS:      15179
LLC PREFETCH  ACCESS:    1028633  HIT:     973611  MISS:      55022
LLC WRITEBACK ACCESS:      67024  HIT:      67020  MISS:          4

CPU 4 cumulative IPC: 0.958856 instructions: 271468964 cycles: 283117493
L1D TOTAL     ACCESS:   49392656  HIT:   49351791  MISS:      40865
L1D LOAD      ACCESS:   29297344  HIT:   29273139  MISS:      24205
L1D RFO       ACCESS:   20095312  HIT:   20078652  MISS:      16660
L1D PREFETCH  ACCESS:          0  HIT:          0  MISS:          0
L1D WRITEBACK ACCESS:          0  HIT:          0  MISS:          0
L1I TOTAL     ACCESS:   78850797  HIT:   78850797  MISS:          0
L1I LOAD      ACCESS:   78850797  HIT:   78850797  MISS:          0
L1I RFO       ACCESS:          0  HIT:          0  MISS:          0
L1I PREFETCH  ACCESS:          0  HIT:          0  MISS:          0
L1I WRITEBACK ACCESS:          0  HIT:          0  MISS:          0
L2C TOTAL     ACCESS:      80707  HIT:      38666  MISS:      42041
L2C LOAD      ACCESS:      24205  HIT:      20998  MISS:       3207
L2C RFO       ACCESS:      16660  HIT:        793  MISS:      15867
L2C PREFETCH  ACCESS:      23161  HIT:        200  MISS:      22961
L2C WRITEBACK ACCESS:      16681  HIT:      16675  MISS:          6

L2C DA-AMPM prefetcher final stats
LLC TOTAL     ACCESS:      57889  HIT:       6560  MISS:      51329
LLC LOAD      ACCESS:       2754  HIT:          2  MISS:       2752
LLC RFO       ACCESS:      15867  HIT:         52  MISS:      15815
LLC PREFETCH  ACCESS:      23414  HIT:          0  MISS:      23414
LLC WRITEBACK ACCESS:      15854  HIT:       6506  MISS:       9348

CPU 5 cumulative IPC: 0.385772 instructions: 109218894 cycles: 283117493
L1D TOTAL     ACCESS:   27046428  HIT:   21505576  MISS:    5540852
L1D LOAD      ACCESS:   19229365  HIT:   13914455  MISS:    5314910
L1D RFO       ACCESS:    7817063  HIT:    7591121  MISS:     225942
L1D PREFETCH  ACCESS:          0  HIT:          0  MISS:          0
L1D WRITEBACK ACCESS:          0  HIT:          0  MISS:          0
L1I TOTAL     ACCESS:   47380303  HIT:   47096300  MISS:     284003
L1I LOAD      ACCESS:   47380303  HIT:   47096300  MISS:     284003
L1I RFO       ACCESS:          0  HIT:          0  MISS:          0
L1I PREFETCH  ACCESS:          0  HIT:          0  MISS:          0
L1I WRITEBACK ACCESS:          0  HIT:          0  MISS:          0
L2C TOTAL     ACCESS:    7112221  HIT:    4097124  MISS:    3015097
L2C LOAD      ACCESS:    5598870  HIT:    3219684  MISS:    2379186
L2C RFO       ACCESS:     225936  HIT:      35782  MISS:     190154
L2C PREFETCH  ACCESS:     938822  HIT:     493347  MISS:     445475
L2C WRITEBACK ACCESS:     348593  HIT:     348311  MISS:        282

L2C DA-AMPM prefetcher final stats
LLC TOTAL     ACCESS:    3264537  HIT:    3044191  MISS:     220346
LLC LOAD      ACCESS:    2360124  HIT:    2331483  MISS:      28641
LLC RFO       ACCESS:     189876  HIT:      20622  MISS:     169254
LLC PREFETCH  ACCESS:     464808  HIT:     443431  MISS:      21377
LLC WRITEBACK ACCESS:     249729  HIT:     248655  MISS:       1074

CPU 6 cumulative IPC: 0.49265 instructions: 139477725 cycles: 283117493
L1D TOTAL     ACCESS:   55545997  HIT:   33989073  MISS:   21556924
L1D LOAD      ACCESS:   46901704  HIT:   25720222  MISS:   21181482
L1D RFO       ACCESS:    8644293  HIT:    8268851  MISS:     375442
L1D PREFETCH  ACCESS:          0  HIT:          0  MISS:          0
L1D WRITEBACK ACCESS:          0  HIT:          0  MISS:          0
L1I TOTAL     ACCESS:   49590013  HIT:   49590013  MISS:          0
L1I LOAD      ACCESS:   49590013  HIT:   49590013  MISS:          0
L1I RFO       ACCESS:          0  HIT:          0  MISS:          0
L1I PREFETCH  ACCESS:          0  HIT:          0  MISS:          0
L1I WRITEBACK ACCESS:          0  HIT:          0  MISS:          0
L2C TOTAL     ACCESS:   44101080  HIT:   13940436  MISS:   30160644
L2C LOAD      ACCESS:   21181482  HIT:   13408717  MISS:    7772765
L2C RFO       ACCESS:     375442  HIT:      13195  MISS:     362247
L2C PREFETCH  ACCESS:   22077356  HIT:      53109  MISS:   22024247
L2C WRITEBACK ACCESS:     466800  HIT:     465415  MISS:       1385

L2C DA-AMPM prefetcher final stats
LLC TOTAL     ACCESS:   30623680  HIT:   29999939  MISS:     623741
LLC LOAD      ACCESS:    5549373  HIT:    5511026  MISS:      38347
LLC RFO       ACCESS:     361932  HIT:       2495  MISS:     359437
LLC PREFETCH  ACCESS:   24247954  HIT:   24022038  MISS:     225916
LLC WRITEBACK ACCESS:     464421  HIT:     464380  MISS:         41

CPU 7 cumulative IPC: 0.895565 instructions: 253550226 cycles: 283117493
L1D TOTAL     ACCESS:   49806256  HIT:   48238432  MISS:    1567824
L1D LOAD      ACCESS:   32939042  HIT:   31755278  MISS:    1183764
L1D RFO       ACCESS:   16867214  HIT:   16483154  MISS:     384060
L1D PREFETCH  ACCESS:          0  HIT:          0  MISS:          0
L1D WRITEBACK ACCESS:          0  HIT:          0  MISS:          0
L1I TOTAL     ACCESS:   45669229  HIT:   45668386  MISS:        843
L1I LOAD      ACCESS:   45669229  HIT:   45668386  MISS:        843
L1I RFO       ACCESS:          0  HIT:          0  MISS:          0
L1I PREFETCH  ACCESS:          0  HIT:          0  MISS:          0
L1I WRITEBACK ACCESS:          0  HIT:          0  MISS:          0
L2C TOTAL     ACCESS:    2878205  HIT:    2309747  MISS:     568458
L2C LOAD      ACCESS:    1184558  HIT:     777909  MISS:     406649
L2C RFO       ACCESS:     383983  HIT:     286462  MISS:      97521
L2C PREFETCH  ACCESS:     166169  HIT:     103972  MISS:      62197
L2C WRITEBACK ACCESS:    1143495  HIT:    1141404  MISS:       2091

L2C DA-AMPM prefetcher final stats
LLC TOTAL     ACCESS:     936055  HIT:     647857  MISS:     288198
LLC LOAD      ACCESS:     406111  HIT:     212816  MISS:     193295
LLC RFO       ACCESS:      97508  HIT:      21667  MISS:      75841
LLC PREFETCH  ACCESS:      62745  HIT:      46536  MISS:      16209
LLC WRITEBACK ACCESS:     369691  HIT:     366838  MISS:       2853

Region of Interest Statistics

CPU 0 cumulative IPC: 1.1423 instructions: 100000001 cycles: 87542862
L1D TOTAL     ACCESS:   17340197  HIT:   17335908  MISS:       4289
L1D LOAD      ACCESS:   13909530  HIT:   13909009  MISS:        521
L1D RFO       ACCESS:    3430667  HIT:    3426899  MISS:       3768
L1D PREFETCH  ACCESS:          0  HIT:          0  MISS:          0
L1D WRITEBACK ACCESS:          0  HIT:          0  MISS:          0
L1D PREFETCH  REQUESTED:          0  ISSUED:          0  USEFUL:          0  USELESS:          0
L1I TOTAL     ACCESS:   24488560  HIT:   24488560  MISS:          0
L1I LOAD      ACCESS:   24488560  HIT:   24488560  MISS:          0
L1I RFO       ACCESS:          0  HIT:          0  MISS:          0
L1I PREFETCH  ACCESS:          0  HIT:          0  MISS:          0
L1I WRITEBACK ACCESS:          0  HIT:          0  MISS:          0
L1I PREFETCH  REQUESTED:          0  ISSUED:          0  USEFUL:          0  USELESS:          0
L2C TOTAL     ACCESS:       8388  HIT:       4627  MISS:       3761
L2C LOAD      ACCESS:        521  HIT:        496  MISS:         25
L2C RFO       ACCESS:       3768  HIT:        359  MISS:       3409
L2C PREFETCH  ACCESS:        332  HIT:          5  MISS:        327
L2C WRITEBACK ACCESS:       3767  HIT:       3767  MISS:          0
L2C PREFETCH  REQUESTED:       8742  ISSUED:       8742  USEFUL:       8286  USELESS:        121
LLC TOTAL     ACCESS:       7139  HIT:        243  MISS:       6896
LLC LOAD      ACCESS:         25  HIT:          0  MISS:         25
LLC RFO       ACCESS:       3409  HIT:          0  MISS:       3409
LLC PREFETCH  ACCESS:        327  HIT:          0  MISS:        327
LLC WRITEBACK ACCESS:       3378  HIT:        243  MISS:       3135
LLC PREFETCH  REQUESTED:          0  ISSUED:          0  USEFUL:      28938  USELESS:     416390
Major fault: 0 Minor fault: 1562

CPU 1 cumulative IPC: 0.968313 instructions: 100000000 cycles: 103272408
L1D TOTAL     ACCESS:   14682835  HIT:   14617208  MISS:      65627
L1D LOAD      ACCESS:    8452678  HIT:    8412318  MISS:      40360
L1D RFO       ACCESS:    6230157  HIT:    6204890  MISS:      25267
L1D PREFETCH  ACCESS:          0  HIT:          0  MISS:          0
L1D WRITEBACK ACCESS:          0  HIT:          0  MISS:          0
L1D PREFETCH  REQUESTED:          0  ISSUED:          0  USEFUL:          0  USELESS:          0
L1I TOTAL     ACCESS:   21047090  HIT:   21047005  MISS:         85
L1I LOAD      ACCESS:   21047090  HIT:   21047005  MISS:         85
L1I RFO       ACCESS:          0  HIT:          0  MISS:          0
L1I PREFETCH  ACCESS:          0  HIT:          0  MISS:          0
L1I WRITEBACK ACCESS:          0  HIT:          0  MISS:          0
L1I PREFETCH  REQUESTED:          0  ISSUED:          0  USEFUL:          0  USELESS:          0
L2C TOTAL     ACCESS:     111075  HIT:      87349  MISS:      23726
L2C LOAD      ACCESS:      40445  HIT:      36684  MISS:       3761
L2C RFO       ACCESS:      25267  HIT:      11476  MISS:      13791
L2C PREFETCH  ACCESS:       7841  HIT:       1672  MISS:       6169
L2C WRITEBACK ACCESS:      37522  HIT:      37517  MISS:          5
L2C PREFETCH  REQUESTED:      44633  ISSUED:      44633  USEFUL:      16284  USELESS:       7179
LLC TOTAL     ACCESS:      38644  HIT:      10747  MISS:      27897
LLC LOAD      ACCESS:       3566  HIT:        710  MISS:       2856
LLC RFO       ACCESS:      13791  HIT:          2  MISS:      13789
LLC PREFETCH  ACCESS:       6365  HIT:        434  MISS:       5931
LLC WRITEBACK ACCESS:      14922  HIT:       9601  MISS:       5321
LLC PREFETCH  REQUESTED:          0  ISSUED:          0  USEFUL:      28938  USELESS:     416390
Major fault: 0 Minor fault: 1855

CPU 2 cumulative IPC: 0.35321 instructions: 100000000 cycles: 283117492
L1D TOTAL     ACCESS:   27455834  HIT:   22146565  MISS:    5309269
L1D LOAD      ACCESS:   19221428  HIT:   14078546  MISS:    5142882
L1D RFO       ACCESS:    8234406  HIT:    8068019  MISS:     166387
L1D PREFETCH  ACCESS:          0  HIT:          0  MISS:          0
L1D WRITEBACK ACCESS:          0  HIT:          0  MISS:          0
L1D PREFETCH  REQUESTED:          0  ISSUED:          0  USEFUL:          0  USELESS:          0
L1I TOTAL     ACCESS:   42721929  HIT:   42421279  MISS:     300650
L1I LOAD      ACCESS:   42721929  HIT:   42421279  MISS:     300650
L1I RFO       ACCESS:          0  HIT:          0  MISS:          0
L1I PREFETCH  ACCESS:          0  HIT:          0  MISS:          0
L1I WRITEBACK ACCESS:          0  HIT:          0  MISS:          0
L1I PREFETCH  REQUESTED:          0  ISSUED:          0  USEFUL:          0  USELESS:          0
L2C TOTAL     ACCESS:    6777890  HIT:    3778539  MISS:    2999351
L2C LOAD      ACCESS:    5443512  HIT:    3015662  MISS:    2427850
L2C RFO       ACCESS:     166381  HIT:      27948  MISS:     138433
L2C PREFETCH  ACCESS:     897063  HIT:     464084  MISS:     432979
L2C WRITEBACK ACCESS:     270934  HIT:     270845  MISS:         89
L2C PREFETCH  REQUESTED:    1136741  ISSUED:    1136741  USEFUL:     158699  USELESS:     361572
LLC TOTAL     ACCESS:    3198054  HIT:    3029106  MISS:     168948
LLC LOAD      ACCESS:    2414150  HIT:    2379925  MISS:      34225
LLC RFO       ACCESS:     138191  HIT:      25151  MISS:     113040
LLC PREFETCH  ACCESS:     446905  HIT:     426124  MISS:      20781
LLC WRITEBACK ACCESS:     198808  HIT:     197906  MISS:        902
LLC PREFETCH  REQUESTED:          0  ISSUED:          0  USEFUL:      28938  USELESS:     416390
Major fault: 0 Minor fault: 3608

CPU 3 cumulative IPC: 0.407648 instructions: 100000001 cycles: 245309890
L1D TOTAL     ACCESS:   23426949  HIT:   20634953  MISS:    2791996
L1D LOAD      ACCESS:   18664107  HIT:   15933905  MISS:    2730202
L1D RFO       ACCESS:    4762842  HIT:    4701048  MISS:      61794
L1D PREFETCH  ACCESS:          0  HIT:          0  MISS:          0
L1D WRITEBACK ACCESS:          0  HIT:          0  MISS:          0
L1D PREFETCH  REQUESTED:          0  ISSUED:          0  USEFUL:          0  USELESS:          0
L1I TOTAL     ACCESS:   31900832  HIT:   31540325  MISS:     360507
L1I LOAD      ACCESS:   31900832  HIT:   31540325  MISS:     360507
L1I RFO       ACCESS:          0  HIT:          0  MISS:          0
L1I PREFETCH  ACCESS:          0  HIT:          0  MISS:          0
L1I WRITEBACK ACCESS:          0  HIT:          0  MISS:          0
L1I PREFETCH  REQUESTED:          0  ISSUED:          0  USEFUL:          0  USELESS:          0
L2C TOTAL     ACCESS:    4206112  HIT:     838154  MISS:    3367958
L2C LOAD      ACCESS:    3090649  HIT:     637846  MISS:    2452803
L2C RFO       ACCESS:      61788  HIT:      29275  MISS:      32513
L2C PREFETCH  ACCESS:     926176  HIT:      46004  MISS:     880172
L2C WRITEBACK ACCESS:     127499  HIT:     125029  MISS:       2470
L2C PREFETCH  REQUESTED:    1435669  ISSUED:    1435669  USEFUL:     294556  USELESS:     931302
LLC TOTAL     ACCESS:    3424672  HIT:    3285906  MISS:     138766
LLC LOAD      ACCESS:    2429487  HIT:    2352229  MISS:      77258
LLC RFO       ACCESS:      32497  HIT:      19235  MISS:      13262
LLC PREFETCH  ACCESS:     903503  HIT:     855260  MISS:      48243
LLC WRITEBACK ACCESS:      59185  HIT:      59182  MISS:          3
LLC PREFETCH  REQUESTED:          0  ISSUED:          0  USEFUL:      28938  USELESS:     416390
Major fault: 0 Minor fault: 11151

CPU 4 cumulative IPC: 0.952291 instructions: 100000001 cycles: 105009910
L1D TOTAL     ACCESS:   18311034  HIT:   18294002  MISS:      17032
L1D LOAD      ACCESS:   10874590  HIT:   10864494  MISS:      10096
L1D RFO       ACCESS:    7436444  HIT:    7429508  MISS:       6936
L1D PREFETCH  ACCESS:          0  HIT:          0  MISS:          0
L1D WRITEBACK ACCESS:          0  HIT:          0  MISS:          0
L1D PREFETCH  REQUESTED:          0  ISSUED:          0  USEFUL:          0  USELESS:          0
L1I TOTAL     ACCESS:   29270250  HIT:   29270250  MISS:          0
L1I LOAD      ACCESS:   29270250  HIT:   29270250  MISS:          0
L1I RFO       ACCESS:          0  HIT:          0  MISS:          0
L1I PREFETCH  ACCESS:          0  HIT:          0  MISS:          0
L1I WRITEBACK ACCESS:          0  HIT:          0  MISS:          0
L1I PREFETCH  REQUESTED:          0  ISSUED:          0  USEFUL:          0  USELESS:          0
L2C TOTAL     ACCESS:      33735  HIT:      16051  MISS:      17684
L2C LOAD      ACCESS:      10096  HIT:       8704  MISS:       1392
L2C RFO       ACCESS:       6936  HIT:        316  MISS:       6620
L2C PREFETCH  ACCESS:       9760  HIT:         88  MISS:       9672
L2C WRITEBACK ACCESS:       6943  HIT:       6943  MISS:          0
L2C PREFETCH  REQUESTED:      26500  ISSUED:      26500  USEFUL:      22766  USELESS:       2088
LLC TOTAL     ACCESS:      24326  HIT:       2978  MISS:      21348
LLC LOAD      ACCESS:       1188  HIT:          2  MISS:       1186
LLC RFO       ACCESS:       6620  HIT:         27  MISS:       6593
LLC PREFETCH  ACCESS:       9876  HIT:          0  MISS:       9876
LLC WRITEBACK ACCESS:       6642  HIT:       2949  MISS:       3693
LLC PREFETCH  REQUESTED:          0  ISSUED:          0  USEFUL:      28938  USELESS:     416390
Major fault: 0 Minor fault: 1019

CPU 5 cumulative IPC: 0.388081 instructions: 100000000 cycles: 257677936
L1D TOTAL     ACCESS:   24370713  HIT:   19275393  MISS:    5095320
L1D LOAD      ACCESS:   17478826  HIT:   12581428  MISS:    4897398
L1D RFO       ACCESS:    6891887  HIT:    6693965  MISS:     197922
L1D PREFETCH  ACCESS:          0  HIT:          0  MISS:          0
L1D WRITEBACK ACCESS:          0  HIT:          0  MISS:          0
L1D PREFETCH  REQUESTED:          0  ISSUED:          0  USEFUL:          0  USELESS:          0
L1I TOTAL     ACCESS:   43533525  HIT:   43284726  MISS:     248799
L1I LOAD      ACCESS:   43533525  HIT:   43284726  MISS:     248799
L1I RFO       ACCESS:          0  HIT:          0  MISS:          0
L1I PREFETCH  ACCESS:          0  HIT:          0  MISS:          0
L1I WRITEBACK ACCESS:          0  HIT:          0  MISS:          0
L1I PREFETCH  REQUESTED:          0  ISSUED:          0  USEFUL:          0  USELESS:          0
L2C TOTAL     ACCESS:    6513792  HIT:    3761359  MISS:    2752433
L2C LOAD      ACCESS:    5146154  HIT:    2967718  MISS:    2178436
L2C RFO       ACCESS:     197916  HIT:      31292  MISS:     166624
L2C PREFETCH  ACCESS:     860725  HIT:     453599  MISS:     407126
L2C WRITEBACK ACCESS:     308997  HIT:     308750  MISS:        247
L2C PREFETCH  REQUESTED:    1192185  ISSUED:    1192185  USEFUL:     175241  USELESS:     354095
LLC TOTAL     ACCESS:    2973095  HIT:    2776610  MISS:     196485
LLC LOAD      ACCESS:    2161074  HIT:    2133464  MISS:      27610
LLC RFO       ACCESS:     166364  HIT:      18785  MISS:     147579
LLC PREFETCH  ACCESS:     424741  HIT:     404483  MISS:      20258
LLC WRITEBACK ACCESS:     220916  HIT:     219878  MISS:       1038
LLC PREFETCH  REQUESTED:          0  ISSUED:          0  USEFUL:      28938  USELESS:     416390
Major fault: 0 Minor fault: 4209

CPU 6 cumulative IPC: 0.489795 instructions: 100000000 cycles: 204167231
L1D TOTAL     ACCESS:   39835532  HIT:   24474301  MISS:   15361231
L1D LOAD      ACCESS:   33508254  HIT:   18437581  MISS:   15070673
L1D RFO       ACCESS:    6327278  HIT:    6036720  MISS:     290558
L1D PREFETCH  ACCESS:          0  HIT:          0  MISS:          0
L1D WRITEBACK ACCESS:          0  HIT:          0  MISS:          0
L1D PREFETCH  REQUESTED:          0  ISSUED:          0  USEFUL:          0  USELESS:          0
L1I TOTAL     ACCESS:   35244419  HIT:   35244419  MISS:          0
L1I LOAD      ACCESS:   35244419  HIT:   35244419  MISS:          0
L1I RFO       ACCESS:          0  HIT:          0  MISS:          0
L1I PREFETCH  ACCESS:          0  HIT:          0  MISS:          0
L1I WRITEBACK ACCESS:          0  HIT:          0  MISS:          0
L1I PREFETCH  REQUESTED:          0  ISSUED:          0  USEFUL:          0  USELESS:          0
L2C TOTAL     ACCESS:   31445711  HIT:    9963809  MISS:   21481902
L2C LOAD      ACCESS:   15070673  HIT:    9556164  MISS:    5514509
L2C RFO       ACCESS:     290558  HIT:      10092  MISS:     280466
L2C PREFETCH  ACCESS:   15724134  HIT:      38193  MISS:   15685941
L2C WRITEBACK ACCESS:     360346  HIT:     359360  MISS:        986
L2C PREFETCH  REQUESTED:   28484703  ISSUED:   28481712  USEFUL:   15690611  USELESS:    9853279
LLC TOTAL     ACCESS:   21839781  HIT:   21358046  MISS:     481735
LLC LOAD      ACCESS:    3943561  HIT:    3914212  MISS:      29349
LLC RFO       ACCESS:     280229  HIT:       1806  MISS:     278423
LLC PREFETCH  ACCESS:   17257126  HIT:   17083190  MISS:     173936
LLC WRITEBACK ACCESS:     358865  HIT:     358838  MISS:         27
LLC PREFETCH  REQUESTED:          0  ISSUED:          0  USEFUL:      28938  USELESS:     416390
Major fault: 0 Minor fault: 13544

CPU 7 cumulative IPC: 0.91182 instructions: 100000003 cycles: 109670760
L1D TOTAL     ACCESS:   19487014  HIT:   18850859  MISS:     636155
L1D LOAD      ACCESS:   12870781  HIT:   12394784  MISS:     475997
L1D RFO       ACCESS:    6616233  HIT:    6456075  MISS:     160158
L1D PREFETCH  ACCESS:          0  HIT:          0  MISS:          0
L1D WRITEBACK ACCESS:          0  HIT:          0  MISS:          0
L1D PREFETCH  REQUESTED:          0  ISSUED:          0  USEFUL:          0  USELESS:          0
L1I TOTAL     ACCESS:   17866612  HIT:   17866269  MISS:        343
L1I LOAD      ACCESS:   17866612  HIT:   17866269  MISS:        343
L1I RFO       ACCESS:          0  HIT:          0  MISS:          0
L1I PREFETCH  ACCESS:          0  HIT:          0  MISS:          0
L1I WRITEBACK ACCESS:          0  HIT:          0  MISS:          0
L1I PREFETCH  REQUESTED:          0  ISSUED:          0  USEFUL:          0  USELESS:          0
L2C TOTAL     ACCESS:    1173448  HIT:     950930  MISS:     222518
L2C LOAD      ACCESS:     476319  HIT:     318808  MISS:     157511
L2C RFO       ACCESS:     160133  HIT:     120662  MISS:      39471
L2C PREFETCH  ACCESS:      72854  HIT:      48175  MISS:      24679
L2C WRITEBACK ACCESS:     464142  HIT:     463285  MISS:        857
L2C PREFETCH  REQUESTED:     181190  ISSUED:     181190  USEFUL:      38477  USELESS:      31896
LLC TOTAL     ACCESS:     364860  HIT:     256740  MISS:     108120
LLC LOAD      ACCESS:     157286  HIT:      86818  MISS:      70468
LLC RFO       ACCESS:      39467  HIT:       8440  MISS:      31027
LLC PREFETCH  ACCESS:      24906  HIT:      19290  MISS:       5616
LLC WRITEBACK ACCESS:     143201  HIT:     142192  MISS:       1009
LLC PREFETCH  REQUESTED:          0  ISSUED:          0  USEFUL:      28938  USELESS:     416390
Major fault: 0 Minor fault: 8422

L2C DA-AMPM prefetcher final stats

L2C DA-AMPM prefetcher final stats

L2C DA-AMPM prefetcher final stats

L2C DA-AMPM prefetcher final stats

L2C DA-AMPM prefetcher final stats

L2C DA-AMPM prefetcher final stats

L2C DA-AMPM prefetcher final stats

L2C DA-AMPM prefetcher final stats

DRAM Statistics
 CHANNEL 0
 RQ ROW_BUFFER_HIT:     290571  ROW_BUFFER_MISS:     536012
 DBUS_CONGESTED:    1318662
 WQ ROW_BUFFER_HIT:      54304  ROW_BUFFER_MISS:     516241  FULL:          0

 CHANNEL 1
 RQ ROW_BUFFER_HIT:     284293  ROW_BUFFER_MISS:     529981
 DBUS_CONGESTED:    1318662
 WQ ROW_BUFFER_HIT:      55388  ROW_BUFFER_MISS:     513892  FULL:          0

 AVG_CONGESTED_CYCLE: 14
