
*** ChampSim Multicore Out-of-Order Simulator ***

Warmup Instructions: 20000000
Simulation Instructions: 100000000
Number of CPUs: 8
LLC sets: 16384
LLC ways: 16
Off-chip DRAM Size: 8192 MB Channels: 2 Width: 64-bit Data Rate: 1600 MT/s

CPU 0 runs /scratch/user/djimenez/champsim-traces/speccpu2017/xz/600.perlbench_s/600.perlbench_s-570B.champsimtrace.xz
CPU 1 runs /scratch/user/djimenez/champsim-traces/speccpu2017/xz/631.deepsjeng_s/631.deepsjeng_s-928B.champsimtrace.xz
CPU 2 runs /scratch/user/djimenez/champsim-traces/speccpu2017/xz/603.bwaves_s/603.bwaves_s-1080B.champsimtrace.xz
CPU 3 runs /scratch/user/djimenez/champsim-traces/speccpu2017/xz/605.mcf_s/605.mcf_s-665B.champsimtrace.xz
CPU 4 runs /scratch/user/djimenez/champsim-traces/speccpu2017/xz/605.mcf_s/605.mcf_s-1644B.champsimtrace.xz
CPU 5 runs /scratch/user/djimenez/champsim-traces/speccpu2017/xz/625.x264_s/625.x264_s-12B.champsimtrace.xz
CPU 6 runs /scratch/user/djimenez/champsim-traces/speccpu2017/xz/649.fotonik3d_s/649.fotonik3d_s-10881B.champsimtrace.xz
CPU 7 runs /scratch/user/djimenez/champsim-traces/speccpu2017/xz/657.xz_s/657.xz_s-4994B.champsimtrace.xz
L2C DA-AMPM prefetcher
L2C DA-AMPM prefetcher
L2C DA-AMPM prefetcher
L2C DA-AMPM prefetcher
L2C DA-AMPM prefetcher
L2C DA-AMPM prefetcher
L2C DA-AMPM prefetcher
L2C DA-AMPM prefetcher
Heartbeat CPU 5 instructions: 10000001 cycles: 3758996 heartbeat IPC: 2.66028 cumulative IPC: 2.66028 (Simulation time: 0 hr 2 min 29 sec) 
Heartbeat CPU 7 instructions: 10000003 cycles: 4245343 heartbeat IPC: 2.35552 cumulative IPC: 2.35552 (Simulation time: 0 hr 2 min 49 sec) 
Heartbeat CPU 2 instructions: 10000003 cycles: 4334760 heartbeat IPC: 2.30693 cumulative IPC: 2.30693 (Simulation time: 0 hr 2 min 52 sec) 
Heartbeat CPU 1 instructions: 10000003 cycles: 5309057 heartbeat IPC: 1.88357 cumulative IPC: 1.88357 (Simulation time: 0 hr 3 min 32 sec) 
Heartbeat CPU 0 instructions: 10000000 cycles: 5689964 heartbeat IPC: 1.75748 cumulative IPC: 1.75748 (Simulation time: 0 hr 3 min 47 sec) 
Heartbeat CPU 3 instructions: 10000001 cycles: 6499260 heartbeat IPC: 1.53864 cumulative IPC: 1.53864 (Simulation time: 0 hr 4 min 20 sec) 
Heartbeat CPU 5 instructions: 20000000 cycles: 7570511 heartbeat IPC: 2.62363 cumulative IPC: 2.64183 (Simulation time: 0 hr 5 min 3 sec) 
Heartbeat CPU 6 instructions: 10000001 cycles: 8413750 heartbeat IPC: 1.18853 cumulative IPC: 1.18853 (Simulation time: 0 hr 5 min 36 sec) 
Heartbeat CPU 7 instructions: 20000000 cycles: 8442725 heartbeat IPC: 2.38244 cumulative IPC: 2.3689 (Simulation time: 0 hr 5 min 37 sec) 
Heartbeat CPU 2 instructions: 20000000 cycles: 8838280 heartbeat IPC: 2.22048 cumulative IPC: 2.26288 (Simulation time: 0 hr 5 min 53 sec) 
Heartbeat CPU 4 instructions: 10000002 cycles: 10566020 heartbeat IPC: 0.94643 cumulative IPC: 0.94643 (Simulation time: 0 hr 7 min 0 sec) 
Heartbeat CPU 1 instructions: 20000000 cycles: 10751791 heartbeat IPC: 1.83731 cumulative IPC: 1.86016 (Simulation time: 0 hr 7 min 7 sec) 
Heartbeat CPU 5 instructions: 30000001 cycles: 11374151 heartbeat IPC: 2.62906 cumulative IPC: 0.879187 (Simulation time: 0 hr 7 min 31 sec) 
Heartbeat CPU 0 instructions: 20000000 cycles: 11556112 heartbeat IPC: 1.7047 cumulative IPC: 1.73069 (Simulation time: 0 hr 7 min 38 sec) 
Heartbeat CPU 7 instructions: 30000000 cycles: 12683666 heartbeat IPC: 2.35797 cumulative IPC: 0.788416 (Simulation time: 0 hr 8 min 21 sec) 
Heartbeat CPU 2 instructions: 30000000 cycles: 12796121 heartbeat IPC: 2.52663 cumulative IPC: 0.781487 (Simulation time: 0 hr 8 min 26 sec) 
Heartbeat CPU 3 instructions: 20000000 cycles: 12984176 heartbeat IPC: 1.54204 cumulative IPC: 1.54034 (Simulation time: 0 hr 8 min 33 sec) 
Heartbeat CPU 5 instructions: 40000000 cycles: 15173479 heartbeat IPC: 2.63204 cumulative IPC: 1.31809 (Simulation time: 0 hr 9 min 57 sec) 
Heartbeat CPU 1 instructions: 30000000 cycles: 16026366 heartbeat IPC: 1.89589 cumulative IPC: 0.623972 (Simulation time: 0 hr 10 min 30 sec) 
Heartbeat CPU 2 instructions: 40000000 cycles: 16751479 heartbeat IPC: 2.52822 cumulative IPC: 1.19392 (Simulation time: 0 hr 10 min 57 sec) 
Heartbeat CPU 6 instructions: 20000000 cycles: 16798593 heartbeat IPC: 1.19263 cumulative IPC: 1.19058 (Simulation time: 0 hr 10 min 59 sec) 
Heartbeat CPU 7 instructions: 40000000 cycles: 16937179 heartbeat IPC: 2.351 cumulative IPC: 1.18083 (Simulation time: 0 hr 11 min 5 sec) 
Heartbeat CPU 0 instructions: 30000000 cycles: 17417589 heartbeat IPC: 1.70605 cumulative IPC: 0.574132 (Simulation time: 0 hr 11 min 23 sec) 
Heartbeat CPU 5 instructions: 50000001 cycles: 18967740 heartbeat IPC: 2.63556 cumulative IPC: 1.58163 (Simulation time: 0 hr 12 min 25 sec) 
Heartbeat CPU 3 instructions: 30000001 cycles: 19460487 heartbeat IPC: 1.54409 cumulative IPC: 0.513862 (Simulation time: 0 hr 12 min 45 sec) 
Heartbeat CPU 2 instructions: 50000000 cycles: 20725104 heartbeat IPC: 2.51659 cumulative IPC: 1.44752 (Simulation time: 0 hr 13 min 45 sec) 
Heartbeat CPU 4 instructions: 20000000 cycles: 21068160 heartbeat IPC: 0.952187 cumulative IPC: 0.9493 (Simulation time: 0 hr 14 min 0 sec) 

Warmup complete CPU 0 instructions: 36351419 cycles: 21068163 (Simulation time: 0 hr 14 min 0 sec) 
Warmup complete CPU 1 instructions: 39525175 cycles: 21068163 (Simulation time: 0 hr 14 min 0 sec) 
Warmup complete CPU 2 instructions: 50858707 cycles: 21068163 (Simulation time: 0 hr 14 min 0 sec) 
Warmup complete CPU 3 instructions: 32474387 cycles: 21068163 (Simulation time: 0 hr 14 min 0 sec) 
Warmup complete CPU 4 instructions: 20000001 cycles: 21068163 (Simulation time: 0 hr 14 min 0 sec) 
Warmup complete CPU 5 instructions: 55518522 cycles: 21068162 (Simulation time: 0 hr 14 min 0 sec) 
Warmup complete CPU 6 instructions: 25097487 cycles: 21068162 (Simulation time: 0 hr 14 min 0 sec) 
Warmup complete CPU 7 instructions: 49779679 cycles: 21068162 (Simulation time: 0 hr 14 min 0 sec) 

Heartbeat CPU 7 instructions: 50000001 cycles: 21281923 heartbeat IPC: 2.30163 cumulative IPC: 1.03069 (Simulation time: 0 hr 14 min 5 sec) 
Heartbeat CPU 1 instructions: 40000000 cycles: 21897461 heartbeat IPC: 1.70326 cumulative IPC: 0.572563 (Simulation time: 0 hr 14 min 18 sec) 
Heartbeat CPU 5 instructions: 60000000 cycles: 24408720 heartbeat IPC: 1.8379 cumulative IPC: 1.34154 (Simulation time: 0 hr 15 min 11 sec) 
Heartbeat CPU 0 instructions: 40000000 cycles: 25536428 heartbeat IPC: 1.2317 cumulative IPC: 0.816554 (Simulation time: 0 hr 15 min 35 sec) 
Heartbeat CPU 2 instructions: 60000000 cycles: 29144764 heartbeat IPC: 1.1877 cumulative IPC: 1.13182 (Simulation time: 0 hr 16 min 53 sec) 
Heartbeat CPU 7 instructions: 60000000 cycles: 31680637 heartbeat IPC: 0.961657 cumulative IPC: 0.963048 (Simulation time: 0 hr 17 min 46 sec) 
Heartbeat CPU 5 instructions: 70000002 cycles: 31945421 heartbeat IPC: 1.32684 cumulative IPC: 1.33135 (Simulation time: 0 hr 17 min 52 sec) 
Heartbeat CPU 6 instructions: 30000000 cycles: 34685884 heartbeat IPC: 0.559056 cumulative IPC: 0.36001 (Simulation time: 0 hr 18 min 49 sec) 
Heartbeat CPU 2 instructions: 70000000 cycles: 37954746 heartbeat IPC: 1.13508 cumulative IPC: 1.13352 (Simulation time: 0 hr 19 min 58 sec) 
Heartbeat CPU 0 instructions: 50000002 cycles: 38586353 heartbeat IPC: 0.766288 cumulative IPC: 0.779109 (Simulation time: 0 hr 20 min 11 sec) 
Heartbeat CPU 5 instructions: 80000000 cycles: 39396874 heartbeat IPC: 1.34202 cumulative IPC: 1.33569 (Simulation time: 0 hr 20 min 29 sec) 
Heartbeat CPU 1 instructions: 50000001 cycles: 39607782 heartbeat IPC: 0.564643 cumulative IPC: 0.564997 (Simulation time: 0 hr 20 min 33 sec) 
Heartbeat CPU 7 instructions: 70000003 cycles: 41922072 heartbeat IPC: 0.976426 cumulative IPC: 0.969618 (Simulation time: 0 hr 21 min 24 sec) 
Heartbeat CPU 3 instructions: 40000000 cycles: 45213151 heartbeat IPC: 0.388309 cumulative IPC: 0.311684 (Simulation time: 0 hr 22 min 32 sec) 
Heartbeat CPU 2 instructions: 80000000 cycles: 46782538 heartbeat IPC: 1.13279 cumulative IPC: 1.13327 (Simulation time: 0 hr 23 min 3 sec) 
Heartbeat CPU 5 instructions: 90000002 cycles: 46835706 heartbeat IPC: 1.3443 cumulative IPC: 1.33817 (Simulation time: 0 hr 23 min 4 sec) 
Heartbeat CPU 0 instructions: 60000000 cycles: 51506930 heartbeat IPC: 0.773959 cumulative IPC: 0.776923 (Simulation time: 0 hr 24 min 37 sec) 
Heartbeat CPU 7 instructions: 80000000 cycles: 52225474 heartbeat IPC: 0.970553 cumulative IPC: 0.969927 (Simulation time: 0 hr 24 min 52 sec) 
Heartbeat CPU 5 instructions: 100000000 cycles: 54283407 heartbeat IPC: 1.3427 cumulative IPC: 1.33919 (Simulation time: 0 hr 25 min 32 sec) 
Heartbeat CPU 2 instructions: 90000000 cycles: 55632135 heartbeat IPC: 1.12999 cumulative IPC: 1.13243 (Simulation time: 0 hr 25 min 56 sec) 
Heartbeat CPU 1 instructions: 60000000 cycles: 56815435 heartbeat IPC: 0.581137 cumulative IPC: 0.572766 (Simulation time: 0 hr 26 min 17 sec) 
Heartbeat CPU 5 instructions: 110000003 cycles: 61759170 heartbeat IPC: 1.33766 cumulative IPC: 1.33891 (Simulation time: 0 hr 27 min 50 sec) 
Heartbeat CPU 6 instructions: 40000000 cycles: 62374940 heartbeat IPC: 0.361154 cumulative IPC: 0.360776 (Simulation time: 0 hr 28 min 2 sec) 
Heartbeat CPU 7 instructions: 90000002 cycles: 62678930 heartbeat IPC: 0.956622 cumulative IPC: 0.966585 (Simulation time: 0 hr 28 min 8 sec) 
Heartbeat CPU 2 instructions: 100000000 cycles: 64488477 heartbeat IPC: 1.12913 cumulative IPC: 1.13176 (Simulation time: 0 hr 28 min 42 sec) 
Heartbeat CPU 5 instructions: 120000000 cycles: 69210667 heartbeat IPC: 1.34201 cumulative IPC: 1.33939 (Simulation time: 0 hr 30 min 18 sec) 
Heartbeat CPU 0 instructions: 70000002 cycles: 72775337 heartbeat IPC: 0.470181 cumulative IPC: 0.650753 (Simulation time: 0 hr 31 min 26 sec) 
Heartbeat CPU 7 instructions: 100000000 cycles: 72970348 heartbeat IPC: 0.971683 cumulative IPC: 0.967596 (Simulation time: 0 hr 31 min 30 sec) 
Heartbeat CPU 2 instructions: 110000001 cycles: 73293773 heartbeat IPC: 1.13568 cumulative IPC: 1.13242 (Simulation time: 0 hr 31 min 36 sec) 
Heartbeat CPU 1 instructions: 70000001 cycles: 73780878 heartbeat IPC: 0.589434 cumulative IPC: 0.57813 (Simulation time: 0 hr 31 min 45 sec) 
Heartbeat CPU 5 instructions: 130000002 cycles: 76676863 heartbeat IPC: 1.33937 cumulative IPC: 1.33939 (Simulation time: 0 hr 32 min 42 sec) 
Heartbeat CPU 3 instructions: 50000003 cycles: 77240848 heartbeat IPC: 0.31223 cumulative IPC: 0.311995 (Simulation time: 0 hr 32 min 53 sec) 
Heartbeat CPU 4 instructions: 30000003 cycles: 78304322 heartbeat IPC: 0.174715 cumulative IPC: 0.174715 (Simulation time: 0 hr 33 min 13 sec) 
Heartbeat CPU 2 instructions: 120000000 cycles: 82069061 heartbeat IPC: 1.13956 cumulative IPC: 1.13345 (Simulation time: 0 hr 34 min 27 sec) 
Heartbeat CPU 7 instructions: 110000003 cycles: 83314620 heartbeat IPC: 0.966719 cumulative IPC: 0.96745 (Simulation time: 0 hr 34 min 51 sec) 
Heartbeat CPU 5 instructions: 140000000 cycles: 84127501 heartbeat IPC: 1.34217 cumulative IPC: 1.33971 (Simulation time: 0 hr 35 min 8 sec) 
Heartbeat CPU 6 instructions: 50000001 cycles: 90029081 heartbeat IPC: 0.36161 cumulative IPC: 0.361111 (Simulation time: 0 hr 37 min 10 sec) 
Heartbeat CPU 2 instructions: 130000000 cycles: 90830915 heartbeat IPC: 1.14131 cumulative IPC: 1.13443 (Simulation time: 0 hr 37 min 27 sec) 
Heartbeat CPU 1 instructions: 80000000 cycles: 90920557 heartbeat IPC: 0.583441 cumulative IPC: 0.579434 (Simulation time: 0 hr 37 min 29 sec) 
Heartbeat CPU 5 instructions: 150000001 cycles: 91537127 heartbeat IPC: 1.3496 cumulative IPC: 1.34075 (Simulation time: 0 hr 37 min 41 sec) 
Heartbeat CPU 7 instructions: 120000000 cycles: 93739802 heartbeat IPC: 0.959216 cumulative IPC: 0.966269 (Simulation time: 0 hr 38 min 27 sec) 
Heartbeat CPU 0 instructions: 80000000 cycles: 94905547 heartbeat IPC: 0.451871 cumulative IPC: 0.591145 (Simulation time: 0 hr 38 min 51 sec) 
Finished CPU 5 instructions: 100000000 cycles: 74577466 cumulative IPC: 1.34089 (Simulation time: 0 hr 39 min 6 sec) 
Heartbeat CPU 5 instructions: 160000000 cycles: 99004380 heartbeat IPC: 1.33918 cumulative IPC: 1.3406 (Simulation time: 0 hr 40 min 12 sec) 
Heartbeat CPU 2 instructions: 140000000 cycles: 99593237 heartbeat IPC: 1.14125 cumulative IPC: 1.1352 (Simulation time: 0 hr 40 min 23 sec) 
Heartbeat CPU 7 instructions: 130000000 cycles: 104626376 heartbeat IPC: 0.918563 cumulative IPC: 0.960053 (Simulation time: 0 hr 42 min 2 sec) 
Heartbeat CPU 5 instructions: 170000002 cycles: 106497232 heartbeat IPC: 1.33461 cumulative IPC: 1.34008 (Simulation time: 0 hr 42 min 59 sec) 
Heartbeat CPU 1 instructions: 90000000 cycles: 108014139 heartbeat IPC: 0.585015 cumulative IPC: 0.580531 (Simulation time: 0 hr 43 min 32 sec) 
Heartbeat CPU 2 instructions: 150000002 cycles: 108422505 heartbeat IPC: 1.1326 cumulative IPC: 1.13493 (Simulation time: 0 hr 43 min 40 sec) 
Finished CPU 2 instructions: 100000001 cycles: 88103386 cumulative IPC: 1.13503 (Simulation time: 0 hr 43 min 54 sec) 
Heartbeat CPU 3 instructions: 60000000 cycles: 109775180 heartbeat IPC: 0.307368 cumulative IPC: 0.310298 (Simulation time: 0 hr 44 min 6 sec) 
Heartbeat CPU 5 instructions: 180000000 cycles: 114003870 heartbeat IPC: 1.33215 cumulative IPC: 1.33944 (Simulation time: 0 hr 45 min 29 sec) 
Heartbeat CPU 7 instructions: 140000000 cycles: 115028188 heartbeat IPC: 0.961371 cumulative IPC: 0.960199 (Simulation time: 0 hr 45 min 50 sec) 
Heartbeat CPU 2 instructions: 160000000 cycles: 117243643 heartbeat IPC: 1.13364 cumulative IPC: 1.13481 (Simulation time: 0 hr 46 min 33 sec) 
Heartbeat CPU 6 instructions: 60000000 cycles: 117679945 heartbeat IPC: 0.361652 cumulative IPC: 0.361266 (Simulation time: 0 hr 46 min 41 sec) 
Heartbeat CPU 5 instructions: 190000003 cycles: 122192331 heartbeat IPC: 1.22123 cumulative IPC: 1.32986 (Simulation time: 0 hr 48 min 4 sec) 
Heartbeat CPU 0 instructions: 90000002 cycles: 122956781 heartbeat IPC: 0.356491 cumulative IPC: 0.526541 (Simulation time: 0 hr 48 min 18 sec) 
Heartbeat CPU 1 instructions: 100000000 cycles: 125422651 heartbeat IPC: 0.574432 cumulative IPC: 0.579513 (Simulation time: 0 hr 49 min 7 sec) 
Heartbeat CPU 2 instructions: 170000002 cycles: 126121581 heartbeat IPC: 1.12639 cumulative IPC: 1.1341 (Simulation time: 0 hr 49 min 20 sec) 
Finished CPU 7 instructions: 100000002 cycles: 105124086 cumulative IPC: 0.951257 (Simulation time: 0 hr 49 min 22 sec) 
Heartbeat CPU 7 instructions: 150000000 cycles: 126410684 heartbeat IPC: 0.878542 cumulative IPC: 0.951376 (Simulation time: 0 hr 49 min 26 sec) 
Heartbeat CPU 5 instructions: 200000000 cycles: 129742503 heartbeat IPC: 1.32447 cumulative IPC: 1.32949 (Simulation time: 0 hr 50 min 33 sec) 
Heartbeat CPU 2 instructions: 180000000 cycles: 134931962 heartbeat IPC: 1.13502 cumulative IPC: 1.13417 (Simulation time: 0 hr 52 min 15 sec) 
Heartbeat CPU 4 instructions: 40000000 cycles: 135541130 heartbeat IPC: 0.174713 cumulative IPC: 0.174714 (Simulation time: 0 hr 52 min 27 sec) 
Heartbeat CPU 7 instructions: 160000000 cycles: 136811938 heartbeat IPC: 0.961423 cumulative IPC: 0.952279 (Simulation time: 0 hr 52 min 53 sec) 
Heartbeat CPU 0 instructions: 100000000 cycles: 137077854 heartbeat IPC: 0.708161 cumulative IPC: 0.548649 (Simulation time: 0 hr 52 min 59 sec) 
Heartbeat CPU 5 instructions: 210000000 cycles: 137392941 heartbeat IPC: 1.30711 cumulative IPC: 1.32802 (Simulation time: 0 hr 53 min 5 sec) 
Heartbeat CPU 3 instructions: 70000000 cycles: 142028071 heartbeat IPC: 0.31005 cumulative IPC: 0.310232 (Simulation time: 0 hr 54 min 56 sec) 
Heartbeat CPU 1 instructions: 110000001 cycles: 142541964 heartbeat IPC: 0.584136 cumulative IPC: 0.580165 (Simulation time: 0 hr 55 min 7 sec) 
Heartbeat CPU 2 instructions: 190000001 cycles: 143792809 heartbeat IPC: 1.12856 cumulative IPC: 1.13377 (Simulation time: 0 hr 55 min 33 sec) 
Heartbeat CPU 5 instructions: 220000000 cycles: 145075105 heartbeat IPC: 1.30172 cumulative IPC: 1.32639 (Simulation time: 0 hr 55 min 58 sec) 
Heartbeat CPU 6 instructions: 70000001 cycles: 145112567 heartbeat IPC: 0.36453 cumulative IPC: 0.361987 (Simulation time: 0 hr 55 min 59 sec) 
Heartbeat CPU 7 instructions: 170000002 cycles: 147983687 heartbeat IPC: 0.895115 cumulative IPC: 0.947247 (Simulation time: 0 hr 56 min 58 sec) 
Heartbeat CPU 0 instructions: 110000000 cycles: 151018765 heartbeat IPC: 0.717313 cumulative IPC: 0.566743 (Simulation time: 0 hr 58 min 2 sec) 
Heartbeat CPU 5 instructions: 230000001 cycles: 152652340 heartbeat IPC: 1.31974 cumulative IPC: 1.32601 (Simulation time: 0 hr 58 min 45 sec) 
Heartbeat CPU 2 instructions: 200000000 cycles: 152658015 heartbeat IPC: 1.12801 cumulative IPC: 1.13338 (Simulation time: 0 hr 58 min 45 sec) 
Heartbeat CPU 1 instructions: 120000000 cycles: 159537541 heartbeat IPC: 0.588388 cumulative IPC: 0.581174 (Simulation time: 1 hr 1 min 10 sec) 
Heartbeat CPU 7 instructions: 180000000 cycles: 159648059 heartbeat IPC: 0.857311 cumulative IPC: 0.939677 (Simulation time: 1 hr 1 min 13 sec) 
Heartbeat CPU 5 instructions: 240000000 cycles: 160774006 heartbeat IPC: 1.23127 cumulative IPC: 1.3205 (Simulation time: 1 hr 1 min 36 sec) 
Heartbeat CPU 2 instructions: 210000003 cycles: 161485120 heartbeat IPC: 1.13287 cumulative IPC: 1.13335 (Simulation time: 1 hr 1 min 50 sec) 
Heartbeat CPU 0 instructions: 120000000 cycles: 166123045 heartbeat IPC: 0.662064 cumulative IPC: 0.576669 (Simulation time: 1 hr 3 min 23 sec) 
Heartbeat CPU 5 instructions: 250000001 cycles: 168325485 heartbeat IPC: 1.32424 cumulative IPC: 1.32069 (Simulation time: 1 hr 4 min 8 sec) 
Heartbeat CPU 2 instructions: 220000000 cycles: 170341730 heartbeat IPC: 1.1291 cumulative IPC: 1.1331 (Simulation time: 1 hr 4 min 48 sec) 
Heartbeat CPU 7 instructions: 190000002 cycles: 172415731 heartbeat IPC: 0.783228 cumulative IPC: 0.926479 (Simulation time: 1 hr 5 min 29 sec) 
Heartbeat CPU 6 instructions: 80000000 cycles: 172706391 heartbeat IPC: 0.3624 cumulative IPC: 0.362062 (Simulation time: 1 hr 5 min 35 sec) 
Heartbeat CPU 3 instructions: 80000000 cycles: 174542969 heartbeat IPC: 0.307551 cumulative IPC: 0.309664 (Simulation time: 1 hr 6 min 12 sec) 
Heartbeat CPU 5 instructions: 260000000 cycles: 176003305 heartbeat IPC: 1.30245 cumulative IPC: 1.31979 (Simulation time: 1 hr 6 min 41 sec) 
Heartbeat CPU 1 instructions: 130000000 cycles: 176714936 heartbeat IPC: 0.58216 cumulative IPC: 0.581283 (Simulation time: 1 hr 6 min 55 sec) 
Heartbeat CPU 2 instructions: 230000001 cycles: 179176717 heartbeat IPC: 1.13186 cumulative IPC: 1.13303 (Simulation time: 1 hr 7 min 45 sec) 
Heartbeat CPU 0 instructions: 130000000 cycles: 181059903 heartbeat IPC: 0.669485 cumulative IPC: 0.585334 (Simulation time: 1 hr 8 min 22 sec) 
Heartbeat CPU 5 instructions: 270000003 cycles: 183673241 heartbeat IPC: 1.30379 cumulative IPC: 1.31903 (Simulation time: 1 hr 9 min 10 sec) 
Heartbeat CPU 7 instructions: 200000000 cycles: 184015059 heartbeat IPC: 0.862119 cumulative IPC: 0.921897 (Simulation time: 1 hr 9 min 16 sec) 
Heartbeat CPU 2 instructions: 240000000 cycles: 188044300 heartbeat IPC: 1.1277 cumulative IPC: 1.13274 (Simulation time: 1 hr 10 min 33 sec) 
Heartbeat CPU 5 instructions: 280000000 cycles: 191238711 heartbeat IPC: 1.32179 cumulative IPC: 1.31916 (Simulation time: 1 hr 11 min 32 sec) 
Heartbeat CPU 4 instructions: 50000001 cycles: 192748424 heartbeat IPC: 0.174803 cumulative IPC: 0.174743 (Simulation time: 1 hr 12 min 0 sec) 
Finished CPU 1 instructions: 100000001 cycles: 172133906 cumulative IPC: 0.580943 (Simulation time: 1 hr 12 min 9 sec) 
Heartbeat CPU 1 instructions: 140000000 cycles: 194024696 heartbeat IPC: 0.577709 cumulative IPC: 0.580925 (Simulation time: 1 hr 12 min 25 sec) 
Heartbeat CPU 7 instructions: 210000001 cycles: 196012020 heartbeat IPC: 0.833544 cumulative IPC: 0.915838 (Simulation time: 1 hr 13 min 2 sec) 
Heartbeat CPU 2 instructions: 250000003 cycles: 196905673 heartbeat IPC: 1.12849 cumulative IPC: 1.13253 (Simulation time: 1 hr 13 min 19 sec) 
Heartbeat CPU 5 instructions: 290000002 cycles: 198778735 heartbeat IPC: 1.32626 cumulative IPC: 1.31946 (Simulation time: 1 hr 13 min 55 sec) 
Finished CPU 0 instructions: 100000000 cycles: 178476035 cumulative IPC: 0.560299 (Simulation time: 1 hr 14 min 10 sec) 
Heartbeat CPU 6 instructions: 90000000 cycles: 200521092 heartbeat IPC: 0.359522 cumulative IPC: 0.361669 (Simulation time: 1 hr 14 min 29 sec) 
Heartbeat CPU 7 instructions: 220000000 cycles: 205268723 heartbeat IPC: 1.0803 cumulative IPC: 0.924103 (Simulation time: 1 hr 15 min 58 sec) 
Heartbeat CPU 2 instructions: 260000000 cycles: 205747243 heartbeat IPC: 1.13102 cumulative IPC: 1.13246 (Simulation time: 1 hr 16 min 8 sec) 
Heartbeat CPU 5 instructions: 300000000 cycles: 205938443 heartbeat IPC: 1.3967 cumulative IPC: 1.32245 (Simulation time: 1 hr 16 min 12 sec) 
Heartbeat CPU 3 instructions: 90000000 cycles: 207794946 heartbeat IPC: 0.300734 cumulative IPC: 0.308074 (Simulation time: 1 hr 16 min 47 sec) 
Heartbeat CPU 0 instructions: 140000000 cycles: 209265535 heartbeat IPC: 0.354539 cumulative IPC: 0.550744 (Simulation time: 1 hr 17 min 17 sec) 
Heartbeat CPU 1 instructions: 150000002 cycles: 211110949 heartbeat IPC: 0.585266 cumulative IPC: 0.581316 (Simulation time: 1 hr 17 min 53 sec) 
Heartbeat CPU 5 instructions: 310000000 cycles: 213255069 heartbeat IPC: 1.36675 cumulative IPC: 1.32414 (Simulation time: 1 hr 18 min 36 sec) 
Heartbeat CPU 2 instructions: 270000001 cycles: 214603578 heartbeat IPC: 1.12914 cumulative IPC: 1.13231 (Simulation time: 1 hr 19 min 1 sec) 
Heartbeat CPU 7 instructions: 230000001 cycles: 215361449 heartbeat IPC: 0.990813 cumulative IPC: 0.927568 (Simulation time: 1 hr 19 min 16 sec) 
Heartbeat CPU 5 instructions: 320000000 cycles: 220587363 heartbeat IPC: 1.36383 cumulative IPC: 1.32559 (Simulation time: 1 hr 20 min 55 sec) 
Heartbeat CPU 2 instructions: 280000000 cycles: 223462750 heartbeat IPC: 1.12877 cumulative IPC: 1.13215 (Simulation time: 1 hr 21 min 50 sec) 
Heartbeat CPU 7 instructions: 240000000 cycles: 227598288 heartbeat IPC: 0.817204 cumulative IPC: 0.921029 (Simulation time: 1 hr 23 min 5 sec) 
Heartbeat CPU 5 instructions: 330000002 cycles: 227958390 heartbeat IPC: 1.35666 cumulative IPC: 1.3267 (Simulation time: 1 hr 23 min 12 sec) 
Heartbeat CPU 1 instructions: 160000000 cycles: 228261823 heartbeat IPC: 0.583061 cumulative IPC: 0.58146 (Simulation time: 1 hr 23 min 18 sec) 
Heartbeat CPU 6 instructions: 100000000 cycles: 228346360 heartbeat IPC: 0.359386 cumulative IPC: 0.361362 (Simulation time: 1 hr 23 min 19 sec) 
Heartbeat CPU 2 instructions: 290000001 cycles: 232296592 heartbeat IPC: 1.13201 cumulative IPC: 1.13215 (Simulation time: 1 hr 24 min 31 sec) 
Heartbeat CPU 5 instructions: 340000000 cycles: 235326198 heartbeat IPC: 1.35726 cumulative IPC: 1.32775 (Simulation time: 1 hr 25 min 25 sec) 
Heartbeat CPU 0 instructions: 150000001 cycles: 235498536 heartbeat IPC: 0.381199 cumulative IPC: 0.530002 (Simulation time: 1 hr 25 min 29 sec) 
Heartbeat CPU 7 instructions: 250000001 cycles: 238731858 heartbeat IPC: 0.898185 cumulative IPC: 0.919861 (Simulation time: 1 hr 26 min 27 sec) 
Heartbeat CPU 3 instructions: 100000000 cycles: 239689721 heartbeat IPC: 0.313531 cumulative IPC: 0.30887 (Simulation time: 1 hr 26 min 43 sec) 
Heartbeat CPU 2 instructions: 300000000 cycles: 241154788 heartbeat IPC: 1.1289 cumulative IPC: 1.13201 (Simulation time: 1 hr 27 min 10 sec) 
Heartbeat CPU 5 instructions: 350000001 cycles: 242626148 heartbeat IPC: 1.36987 cumulative IPC: 1.32914 (Simulation time: 1 hr 27 min 36 sec) 
Heartbeat CPU 1 instructions: 170000000 cycles: 245658868 heartbeat IPC: 0.57481 cumulative IPC: 0.580945 (Simulation time: 1 hr 28 min 31 sec) 
Heartbeat CPU 4 instructions: 60000000 cycles: 249978594 heartbeat IPC: 0.174733 cumulative IPC: 0.174741 (Simulation time: 1 hr 29 min 53 sec) 
Heartbeat CPU 2 instructions: 310000001 cycles: 249989134 heartbeat IPC: 1.13195 cumulative IPC: 1.13201 (Simulation time: 1 hr 29 min 53 sec) 
Heartbeat CPU 5 instructions: 360000000 cycles: 250176579 heartbeat IPC: 1.32443 cumulative IPC: 1.32898 (Simulation time: 1 hr 29 min 57 sec) 
Heartbeat CPU 7 instructions: 260000000 cycles: 250799917 heartbeat IPC: 0.828634 cumulative IPC: 0.915069 (Simulation time: 1 hr 30 min 10 sec) 
Heartbeat CPU 6 instructions: 110000000 cycles: 256044532 heartbeat IPC: 0.361035 cumulative IPC: 0.361324 (Simulation time: 1 hr 31 min 55 sec) 
Heartbeat CPU 0 instructions: 160000000 cycles: 257148179 heartbeat IPC: 0.461901 cumulative IPC: 0.523757 (Simulation time: 1 hr 32 min 17 sec) 
Heartbeat CPU 5 instructions: 370000001 cycles: 257751896 heartbeat IPC: 1.32008 cumulative IPC: 1.3287 (Simulation time: 1 hr 32 min 30 sec) 
Heartbeat CPU 2 instructions: 320000000 cycles: 258851553 heartbeat IPC: 1.12836 cumulative IPC: 1.13188 (Simulation time: 1 hr 32 min 51 sec) 
Heartbeat CPU 7 instructions: 270000001 cycles: 262739974 heartbeat IPC: 0.837517 cumulative IPC: 0.911237 (Simulation time: 1 hr 34 min 10 sec) 
Heartbeat CPU 1 instructions: 180000000 cycles: 263180052 heartbeat IPC: 0.570738 cumulative IPC: 0.580206 (Simulation time: 1 hr 34 min 19 sec) 
Heartbeat CPU 5 instructions: 380000000 cycles: 265229987 heartbeat IPC: 1.33724 cumulative IPC: 1.32896 (Simulation time: 1 hr 35 min 0 sec) 
Heartbeat CPU 2 instructions: 330000003 cycles: 267684334 heartbeat IPC: 1.13215 cumulative IPC: 1.13189 (Simulation time: 1 hr 35 min 48 sec) 
Heartbeat CPU 3 instructions: 110000000 cycles: 271736959 heartbeat IPC: 0.312039 cumulative IPC: 0.309275 (Simulation time: 1 hr 37 min 9 sec) 
Heartbeat CPU 5 instructions: 390000003 cycles: 272727493 heartbeat IPC: 1.33378 cumulative IPC: 1.3291 (Simulation time: 1 hr 37 min 29 sec) 
Heartbeat CPU 0 instructions: 170000003 cycles: 273019681 heartbeat IPC: 0.63006 cumulative IPC: 0.530454 (Simulation time: 1 hr 37 min 35 sec) 
Heartbeat CPU 7 instructions: 280000000 cycles: 274702428 heartbeat IPC: 0.835949 cumulative IPC: 0.907686 (Simulation time: 1 hr 38 min 8 sec) 
Heartbeat CPU 2 instructions: 340000000 cycles: 276498643 heartbeat IPC: 1.13452 cumulative IPC: 1.13198 (Simulation time: 1 hr 38 min 42 sec) 
Heartbeat CPU 5 instructions: 400000000 cycles: 280225320 heartbeat IPC: 1.33372 cumulative IPC: 1.32924 (Simulation time: 1 hr 39 min 52 sec) 
Heartbeat CPU 1 instructions: 190000000 cycles: 280717617 heartbeat IPC: 0.570205 cumulative IPC: 0.579531 (Simulation time: 1 hr 40 min 1 sec) 
Heartbeat CPU 6 instructions: 120000000 cycles: 283725435 heartbeat IPC: 0.36126 cumulative IPC: 0.361317 (Simulation time: 1 hr 40 min 58 sec) 
Heartbeat CPU 2 instructions: 350000003 cycles: 285266282 heartbeat IPC: 1.14056 cumulative IPC: 1.13226 (Simulation time: 1 hr 41 min 25 sec) 
Heartbeat CPU 7 instructions: 290000003 cycles: 287016746 heartbeat IPC: 0.812063 cumulative IPC: 0.903259 (Simulation time: 1 hr 41 min 56 sec) 
Heartbeat CPU 5 instructions: 410000000 cycles: 287742551 heartbeat IPC: 1.33028 cumulative IPC: 1.32927 (Simulation time: 1 hr 42 min 9 sec) 
Heartbeat CPU 0 instructions: 180000000 cycles: 293382200 heartbeat IPC: 0.491098 cumulative IPC: 0.527511 (Simulation time: 1 hr 43 min 55 sec) 
Heartbeat CPU 2 instructions: 360000000 cycles: 294014331 heartbeat IPC: 1.14311 cumulative IPC: 1.13261 (Simulation time: 1 hr 44 min 7 sec) 
Heartbeat CPU 5 instructions: 420000000 cycles: 295228480 heartbeat IPC: 1.33584 cumulative IPC: 1.32945 (Simulation time: 1 hr 44 min 29 sec) 
Finished CPU 6 instructions: 100000003 cycles: 276919547 cumulative IPC: 0.361116 (Simulation time: 1 hr 45 min 21 sec) 
Heartbeat CPU 1 instructions: 200000000 cycles: 298496592 heartbeat IPC: 0.562462 cumulative IPC: 0.578437 (Simulation time: 1 hr 45 min 30 sec) 
Heartbeat CPU 7 instructions: 300000000 cycles: 298808369 heartbeat IPC: 0.848059 cumulative IPC: 0.900915 (Simulation time: 1 hr 45 min 36 sec) 
Heartbeat CPU 2 instructions: 370000001 cycles: 302778001 heartbeat IPC: 1.14107 cumulative IPC: 1.13287 (Simulation time: 1 hr 46 min 52 sec) 
Heartbeat CPU 5 instructions: 430000002 cycles: 302819574 heartbeat IPC: 1.31733 cumulative IPC: 1.32912 (Simulation time: 1 hr 46 min 53 sec) 
Heartbeat CPU 3 instructions: 120000000 cycles: 303514818 heartbeat IPC: 0.314685 cumulative IPC: 0.309884 (Simulation time: 1 hr 47 min 6 sec) 
Heartbeat CPU 4 instructions: 70000000 cycles: 307108451 heartbeat IPC: 0.17504 cumulative IPC: 0.174801 (Simulation time: 1 hr 48 min 16 sec) 
Heartbeat CPU 7 instructions: 310000001 cycles: 308704884 heartbeat IPC: 1.01046 cumulative IPC: 0.904684 (Simulation time: 1 hr 48 min 47 sec) 
Heartbeat CPU 5 instructions: 440000000 cycles: 310604153 heartbeat IPC: 1.28459 cumulative IPC: 1.32792 (Simulation time: 1 hr 49 min 21 sec) 
Heartbeat CPU 2 instructions: 380000000 cycles: 311590900 heartbeat IPC: 1.1347 cumulative IPC: 1.13293 (Simulation time: 1 hr 49 min 40 sec) 
Heartbeat CPU 6 instructions: 130000001 cycles: 311602331 heartbeat IPC: 0.35872 cumulative IPC: 0.361068 (Simulation time: 1 hr 49 min 40 sec) 
Heartbeat CPU 1 instructions: 210000001 cycles: 315788454 heartbeat IPC: 0.578307 cumulative IPC: 0.578429 (Simulation time: 1 hr 50 min 58 sec) 
Heartbeat CPU 5 instructions: 450000002 cycles: 318964168 heartbeat IPC: 1.19617 cumulative IPC: 1.32423 (Simulation time: 1 hr 51 min 55 sec) 
Heartbeat CPU 2 instructions: 390000000 cycles: 320471213 heartbeat IPC: 1.12609 cumulative IPC: 1.13272 (Simulation time: 1 hr 52 min 22 sec) 
Heartbeat CPU 0 instructions: 190000003 cycles: 321744823 heartbeat IPC: 0.352577 cumulative IPC: 0.511009 (Simulation time: 1 hr 52 min 45 sec) 
Heartbeat CPU 7 instructions: 320000000 cycles: 326983157 heartbeat IPC: 0.547098 cumulative IPC: 0.883318 (Simulation time: 1 hr 54 min 24 sec) 
Heartbeat CPU 5 instructions: 460000000 cycles: 327573566 heartbeat IPC: 1.16152 cumulative IPC: 1.31966 (Simulation time: 1 hr 54 min 35 sec) 
Heartbeat CPU 2 instructions: 400000000 cycles: 329281284 heartbeat IPC: 1.13506 cumulative IPC: 1.13279 (Simulation time: 1 hr 55 min 8 sec) 
Heartbeat CPU 1 instructions: 220000000 cycles: 333297510 heartbeat IPC: 0.571133 cumulative IPC: 0.57802 (Simulation time: 1 hr 56 min 24 sec) 
Heartbeat CPU 5 instructions: 470000003 cycles: 334480060 heartbeat IPC: 1.44791 cumulative IPC: 1.32248 (Simulation time: 1 hr 56 min 46 sec) 
Heartbeat CPU 3 instructions: 130000000 cycles: 335638067 heartbeat IPC: 0.311301 cumulative IPC: 0.310028 (Simulation time: 1 hr 57 min 7 sec) 
Heartbeat CPU 2 instructions: 410000000 cycles: 338109095 heartbeat IPC: 1.13278 cumulative IPC: 1.13279 (Simulation time: 1 hr 57 min 54 sec) 
Heartbeat CPU 6 instructions: 140000000 cycles: 339645546 heartbeat IPC: 0.356592 cumulative IPC: 0.360674 (Simulation time: 1 hr 58 min 23 sec) 
Heartbeat CPU 5 instructions: 480000000 cycles: 341763907 heartbeat IPC: 1.3729 cumulative IPC: 1.32363 (Simulation time: 1 hr 59 min 2 sec) 
Finished CPU 3 instructions: 100000003 cycles: 322371024 cumulative IPC: 0.310202 (Simulation time: 1 hr 59 min 33 sec) 
Heartbeat CPU 2 instructions: 420000000 cycles: 346926340 heartbeat IPC: 1.13414 cumulative IPC: 1.13283 (Simulation time: 2 hr 0 min 36 sec) 
Heartbeat CPU 0 instructions: 200000000 cycles: 348950981 heartbeat IPC: 0.367564 cumulative IPC: 0.499107 (Simulation time: 2 hr 1 min 13 sec) 
Heartbeat CPU 5 instructions: 490000002 cycles: 349042246 heartbeat IPC: 1.37394 cumulative IPC: 1.32474 (Simulation time: 2 hr 1 min 15 sec) 
Heartbeat CPU 7 instructions: 330000003 cycles: 349189784 heartbeat IPC: 0.450316 cumulative IPC: 0.854014 (Simulation time: 2 hr 1 min 17 sec) 
Heartbeat CPU 1 instructions: 230000003 cycles: 350916725 heartbeat IPC: 0.567562 cumulative IPC: 0.577461 (Simulation time: 2 hr 1 min 49 sec) 
Heartbeat CPU 2 instructions: 430000002 cycles: 355773609 heartbeat IPC: 1.13029 cumulative IPC: 1.13276 (Simulation time: 2 hr 3 min 18 sec) 
Heartbeat CPU 5 instructions: 500000000 cycles: 355885922 heartbeat IPC: 1.4612 cumulative IPC: 1.32753 (Simulation time: 2 hr 3 min 20 sec) 
Heartbeat CPU 5 instructions: 510000002 cycles: 362558641 heartbeat IPC: 1.49864 cumulative IPC: 1.33088 (Simulation time: 2 hr 5 min 24 sec) 
Heartbeat CPU 2 instructions: 440000000 cycles: 364330848 heartbeat IPC: 1.1686 cumulative IPC: 1.13365 (Simulation time: 2 hr 5 min 58 sec) 
Heartbeat CPU 7 instructions: 340000000 cycles: 364454796 heartbeat IPC: 0.655093 cumulative IPC: 0.845171 (Simulation time: 2 hr 6 min 0 sec) 
Heartbeat CPU 4 instructions: 80000000 cycles: 364747918 heartbeat IPC: 0.173492 cumulative IPC: 0.174581 (Simulation time: 2 hr 6 min 5 sec) 
Heartbeat CPU 6 instructions: 150000001 cycles: 367620307 heartbeat IPC: 0.357465 cumulative IPC: 0.360415 (Simulation time: 2 hr 7 min 3 sec) 
Heartbeat CPU 1 instructions: 240000000 cycles: 368036825 heartbeat IPC: 0.584109 cumulative IPC: 0.577789 (Simulation time: 2 hr 7 min 11 sec) 
Heartbeat CPU 3 instructions: 140000000 cycles: 368489449 heartbeat IPC: 0.304401 cumulative IPC: 0.309496 (Simulation time: 2 hr 7 min 20 sec) 
Heartbeat CPU 0 instructions: 210000002 cycles: 369179531 heartbeat IPC: 0.494351 cumulative IPC: 0.498831 (Simulation time: 2 hr 7 min 34 sec) 
Heartbeat CPU 5 instructions: 520000000 cycles: 369360745 heartbeat IPC: 1.47013 cumulative IPC: 1.3336 (Simulation time: 2 hr 7 min 38 sec) 
Heartbeat CPU 2 instructions: 450000001 cycles: 372862354 heartbeat IPC: 1.17213 cumulative IPC: 1.13459 (Simulation time: 2 hr 8 min 46 sec) 
Heartbeat CPU 5 instructions: 530000002 cycles: 376163656 heartbeat IPC: 1.46996 cumulative IPC: 1.33621 (Simulation time: 2 hr 9 min 48 sec) 
Heartbeat CPU 7 instructions: 350000002 cycles: 377375785 heartbeat IPC: 0.773935 cumulative IPC: 0.842587 (Simulation time: 2 hr 10 min 10 sec) 
Heartbeat CPU 2 instructions: 460000000 cycles: 381401870 heartbeat IPC: 1.17103 cumulative IPC: 1.13545 (Simulation time: 2 hr 11 min 27 sec) 
Heartbeat CPU 5 instructions: 540000000 cycles: 382958150 heartbeat IPC: 1.47178 cumulative IPC: 1.33875 (Simulation time: 2 hr 11 min 56 sec) 
Heartbeat CPU 0 instructions: 220000000 cycles: 383963618 heartbeat IPC: 0.676403 cumulative IPC: 0.506065 (Simulation time: 2 hr 12 min 15 sec) 
Heartbeat CPU 1 instructions: 250000002 cycles: 385212039 heartbeat IPC: 0.582235 cumulative IPC: 0.577999 (Simulation time: 2 hr 12 min 39 sec) 
Heartbeat CPU 5 instructions: 550000003 cycles: 389609934 heartbeat IPC: 1.50336 cumulative IPC: 1.34172 (Simulation time: 2 hr 14 min 6 sec) 
Heartbeat CPU 7 instructions: 360000000 cycles: 390852827 heartbeat IPC: 0.742002 cumulative IPC: 0.838922 (Simulation time: 2 hr 14 min 31 sec) 
Heartbeat CPU 2 instructions: 470000000 cycles: 392336021 heartbeat IPC: 0.914566 cumulative IPC: 1.12895 (Simulation time: 2 hr 15 min 1 sec) 
Heartbeat CPU 6 instructions: 160000000 cycles: 396165618 heartbeat IPC: 0.35032 cumulative IPC: 0.359647 (Simulation time: 2 hr 16 min 14 sec) 
Heartbeat CPU 5 instructions: 560000000 cycles: 396513234 heartbeat IPC: 1.44858 cumulative IPC: 1.34369 (Simulation time: 2 hr 16 min 20 sec) 
Heartbeat CPU 0 instructions: 230000002 cycles: 397434375 heartbeat IPC: 0.742349 cumulative IPC: 0.514522 (Simulation time: 2 hr 16 min 38 sec) 
Heartbeat CPU 3 instructions: 150000000 cycles: 401239193 heartbeat IPC: 0.305346 cumulative IPC: 0.309139 (Simulation time: 2 hr 17 min 51 sec) 
Heartbeat CPU 2 instructions: 480000000 cycles: 401747870 heartbeat IPC: 1.06249 cumulative IPC: 1.1273 (Simulation time: 2 hr 18 min 0 sec) 
Heartbeat CPU 1 instructions: 260000000 cycles: 402437437 heartbeat IPC: 0.580538 cumulative IPC: 0.578114 (Simulation time: 2 hr 18 min 12 sec) 
Heartbeat CPU 5 instructions: 570000001 cycles: 403290300 heartbeat IPC: 1.47556 cumulative IPC: 1.34603 (Simulation time: 2 hr 18 min 28 sec) 
Heartbeat CPU 7 instructions: 370000000 cycles: 404469380 heartbeat IPC: 0.7344 cumulative IPC: 0.835209 (Simulation time: 2 hr 18 min 50 sec) 
Heartbeat CPU 5 instructions: 580000000 cycles: 410041286 heartbeat IPC: 1.48126 cumulative IPC: 1.34837 (Simulation time: 2 hr 20 min 34 sec) 
Heartbeat CPU 2 instructions: 490000000 cycles: 410586911 heartbeat IPC: 1.13134 cumulative IPC: 1.12739 (Simulation time: 2 hr 20 min 45 sec) 
Heartbeat CPU 0 instructions: 240000000 cycles: 411742791 heartbeat IPC: 0.698889 cumulative IPC: 0.521274 (Simulation time: 2 hr 21 min 6 sec) 
Heartbeat CPU 5 instructions: 590000001 cycles: 416893044 heartbeat IPC: 1.45948 cumulative IPC: 1.3503 (Simulation time: 2 hr 22 min 44 sec) 
Heartbeat CPU 7 instructions: 380000000 cycles: 417385851 heartbeat IPC: 0.774205 cumulative IPC: 0.833221 (Simulation time: 2 hr 22 min 53 sec) 
Heartbeat CPU 2 instructions: 500000000 cycles: 419479405 heartbeat IPC: 1.12454 cumulative IPC: 1.12733 (Simulation time: 2 hr 23 min 32 sec) 
Heartbeat CPU 1 instructions: 270000000 cycles: 419571563 heartbeat IPC: 0.583631 cumulative IPC: 0.578351 (Simulation time: 2 hr 23 min 33 sec) 
Heartbeat CPU 4 instructions: 90000003 cycles: 422259649 heartbeat IPC: 0.173878 cumulative IPC: 0.17448 (Simulation time: 2 hr 24 min 24 sec) 
Heartbeat CPU 5 instructions: 600000000 cycles: 423640267 heartbeat IPC: 1.48209 cumulative IPC: 1.35251 (Simulation time: 2 hr 24 min 49 sec) 
Heartbeat CPU 6 instructions: 170000000 cycles: 424169955 heartbeat IPC: 0.357088 cumulative IPC: 0.359469 (Simulation time: 2 hr 24 min 59 sec) 
Heartbeat CPU 0 instructions: 250000002 cycles: 427090705 heartbeat IPC: 0.651554 cumulative IPC: 0.526199 (Simulation time: 2 hr 25 min 53 sec) 
Heartbeat CPU 2 instructions: 510000003 cycles: 428441869 heartbeat IPC: 1.11576 cumulative IPC: 1.12708 (Simulation time: 2 hr 26 min 17 sec) 
Heartbeat CPU 5 instructions: 610000002 cycles: 430369453 heartbeat IPC: 1.48606 cumulative IPC: 1.3547 (Simulation time: 2 hr 26 min 53 sec) 
Heartbeat CPU 7 instructions: 390000000 cycles: 432330222 heartbeat IPC: 0.669148 cumulative IPC: 0.827259 (Simulation time: 2 hr 27 min 30 sec) 
Heartbeat CPU 3 instructions: 160000000 cycles: 433351241 heartbeat IPC: 0.31141 cumulative IPC: 0.309316 (Simulation time: 2 hr 27 min 49 sec) 
Heartbeat CPU 1 instructions: 280000000 cycles: 436891160 heartbeat IPC: 0.577381 cumulative IPC: 0.578311 (Simulation time: 2 hr 28 min 56 sec) 
Heartbeat CPU 5 instructions: 620000000 cycles: 437211242 heartbeat IPC: 1.46161 cumulative IPC: 1.35646 (Simulation time: 2 hr 29 min 2 sec) 
Heartbeat CPU 2 instructions: 520000000 cycles: 437402981 heartbeat IPC: 1.11593 cumulative IPC: 1.12684 (Simulation time: 2 hr 29 min 6 sec) 
Heartbeat CPU 0 instructions: 260000000 cycles: 442076554 heartbeat IPC: 0.667296 cumulative IPC: 0.531221 (Simulation time: 2 hr 30 min 32 sec) 
Heartbeat CPU 5 instructions: 630000003 cycles: 443887039 heartbeat IPC: 1.49795 cumulative IPC: 1.35869 (Simulation time: 2 hr 31 min 5 sec) 
Heartbeat CPU 7 instructions: 400000000 cycles: 446591787 heartbeat IPC: 0.701185 cumulative IPC: 0.823034 (Simulation time: 2 hr 31 min 55 sec) 
Heartbeat CPU 2 instructions: 530000001 cycles: 446961160 heartbeat IPC: 1.04622 cumulative IPC: 1.12503 (Simulation time: 2 hr 32 min 2 sec) 
Heartbeat CPU 5 instructions: 640000000 cycles: 450714835 heartbeat IPC: 1.4646 cumulative IPC: 1.36038 (Simulation time: 2 hr 33 min 13 sec) 
Heartbeat CPU 6 instructions: 180000000 cycles: 452320483 heartbeat IPC: 0.355233 cumulative IPC: 0.359192 (Simulation time: 2 hr 33 min 43 sec) 
Heartbeat CPU 1 instructions: 290000001 cycles: 454353990 heartbeat IPC: 0.572645 cumulative IPC: 0.578082 (Simulation time: 2 hr 34 min 21 sec) 
Heartbeat CPU 2 instructions: 540000000 cycles: 456617122 heartbeat IPC: 1.03563 cumulative IPC: 1.12305 (Simulation time: 2 hr 35 min 2 sec) 
Heartbeat CPU 0 instructions: 270000001 cycles: 457302387 heartbeat IPC: 0.656779 cumulative IPC: 0.535604 (Simulation time: 2 hr 35 min 15 sec) 
Heartbeat CPU 5 instructions: 650000003 cycles: 457471374 heartbeat IPC: 1.48005 cumulative IPC: 1.36223 (Simulation time: 2 hr 35 min 18 sec) 
Heartbeat CPU 7 instructions: 410000000 cycles: 461837892 heartbeat IPC: 0.655905 cumulative IPC: 0.817253 (Simulation time: 2 hr 36 min 40 sec) 
Heartbeat CPU 5 instructions: 660000000 cycles: 464121982 heartbeat IPC: 1.50362 cumulative IPC: 1.36435 (Simulation time: 2 hr 37 min 22 sec) 
Heartbeat CPU 3 instructions: 170000003 cycles: 466223116 heartbeat IPC: 0.304212 cumulative IPC: 0.308939 (Simulation time: 2 hr 38 min 0 sec) 
Heartbeat CPU 2 instructions: 550000000 cycles: 466254457 heartbeat IPC: 1.03763 cumulative IPC: 1.1212 (Simulation time: 2 hr 38 min 1 sec) 
Heartbeat CPU 1 instructions: 300000000 cycles: 471442580 heartbeat IPC: 0.585186 cumulative IPC: 0.578352 (Simulation time: 2 hr 39 min 33 sec) 
Heartbeat CPU 0 instructions: 280000000 cycles: 472560538 heartbeat IPC: 0.655387 cumulative IPC: 0.539652 (Simulation time: 2 hr 39 min 50 sec) 
Heartbeat CPU 5 instructions: 670000002 cycles: 474129508 heartbeat IPC: 0.999248 cumulative IPC: 1.35629 (Simulation time: 2 hr 40 min 16 sec) 
Heartbeat CPU 2 instructions: 560000000 cycles: 475876550 heartbeat IPC: 1.03927 cumulative IPC: 1.11946 (Simulation time: 2 hr 40 min 48 sec) 
Heartbeat CPU 7 instructions: 420000000 cycles: 477320173 heartbeat IPC: 0.6459 cumulative IPC: 0.811438 (Simulation time: 2 hr 41 min 18 sec) 
Heartbeat CPU 5 instructions: 680000000 cycles: 479079832 heartbeat IPC: 2.02007 cumulative IPC: 1.36346 (Simulation time: 2 hr 41 min 54 sec) 
Heartbeat CPU 4 instructions: 100000000 cycles: 480167291 heartbeat IPC: 0.172689 cumulative IPC: 0.174254 (Simulation time: 2 hr 42 min 16 sec) 
Heartbeat CPU 6 instructions: 190000000 cycles: 481019305 heartbeat IPC: 0.348446 cumulative IPC: 0.358522 (Simulation time: 2 hr 42 min 34 sec) 
Heartbeat CPU 5 instructions: 690000000 cycles: 484780329 heartbeat IPC: 1.75423 cumulative IPC: 1.36827 (Simulation time: 2 hr 43 min 39 sec) 
Heartbeat CPU 2 instructions: 570000002 cycles: 485521190 heartbeat IPC: 1.03685 cumulative IPC: 1.11775 (Simulation time: 2 hr 43 min 51 sec) 
Heartbeat CPU 1 instructions: 310000000 cycles: 488737684 heartbeat IPC: 0.578198 cumulative IPC: 0.578346 (Simulation time: 2 hr 44 min 47 sec) 
Heartbeat CPU 0 instructions: 290000001 cycles: 491870519 heartbeat IPC: 0.517867 cumulative IPC: 0.538758 (Simulation time: 2 hr 45 min 43 sec) 
Heartbeat CPU 5 instructions: 700000000 cycles: 491994713 heartbeat IPC: 1.38612 cumulative IPC: 1.36854 (Simulation time: 2 hr 45 min 46 sec) 
Heartbeat CPU 7 instructions: 430000002 cycles: 492350735 heartbeat IPC: 0.665311 cumulative IPC: 0.806778 (Simulation time: 2 hr 45 min 53 sec) 
Heartbeat CPU 2 instructions: 580000000 cycles: 495137425 heartbeat IPC: 1.03991 cumulative IPC: 1.11617 (Simulation time: 2 hr 46 min 41 sec) 
Heartbeat CPU 5 instructions: 710000000 cycles: 498619831 heartbeat IPC: 1.50941 cumulative IPC: 1.37049 (Simulation time: 2 hr 47 min 43 sec) 
Heartbeat CPU 3 instructions: 180000000 cycles: 498818391 heartbeat IPC: 0.306793 cumulative IPC: 0.308792 (Simulation time: 2 hr 47 min 46 sec) 
Heartbeat CPU 2 instructions: 590000000 cycles: 504822750 heartbeat IPC: 1.03249 cumulative IPC: 1.11449 (Simulation time: 2 hr 49 min 33 sec) 
Heartbeat CPU 5 instructions: 720000000 cycles: 505056617 heartbeat IPC: 1.55357 cumulative IPC: 1.37293 (Simulation time: 2 hr 49 min 37 sec) 
Heartbeat CPU 7 instructions: 440000000 cycles: 505562477 heartbeat IPC: 0.756902 cumulative IPC: 0.805418 (Simulation time: 2 hr 49 min 46 sec) 
Heartbeat CPU 1 instructions: 320000000 cycles: 506312371 heartbeat IPC: 0.569 cumulative IPC: 0.578008 (Simulation time: 2 hr 50 min 0 sec) 
Heartbeat CPU 6 instructions: 200000000 cycles: 509585498 heartbeat IPC: 0.350064 cumulative IPC: 0.358027 (Simulation time: 2 hr 50 min 59 sec) 
Heartbeat CPU 5 instructions: 730000000 cycles: 511682050 heartbeat IPC: 1.50934 cumulative IPC: 1.37477 (Simulation time: 2 hr 51 min 36 sec) 
Heartbeat CPU 2 instructions: 600000000 cycles: 514514970 heartbeat IPC: 1.03176 cumulative IPC: 1.11287 (Simulation time: 2 hr 52 min 25 sec) 
Heartbeat CPU 7 instructions: 450000001 cycles: 518052908 heartbeat IPC: 0.800613 cumulative IPC: 0.805297 (Simulation time: 2 hr 53 min 28 sec) 
Heartbeat CPU 5 instructions: 740000000 cycles: 518179651 heartbeat IPC: 1.53903 cumulative IPC: 1.37692 (Simulation time: 2 hr 53 min 30 sec) 
Heartbeat CPU 0 instructions: 300000000 cycles: 519342330 heartbeat IPC: 0.364009 cumulative IPC: 0.529124 (Simulation time: 2 hr 53 min 52 sec) 
Heartbeat CPU 1 instructions: 330000002 cycles: 523936418 heartbeat IPC: 0.567407 cumulative IPC: 0.577636 (Simulation time: 2 hr 55 min 14 sec) 
Heartbeat CPU 2 instructions: 610000003 cycles: 524204267 heartbeat IPC: 1.03207 cumulative IPC: 1.11131 (Simulation time: 2 hr 55 min 19 sec) 
Heartbeat CPU 5 instructions: 750000000 cycles: 524635186 heartbeat IPC: 1.54906 cumulative IPC: 1.37912 (Simulation time: 2 hr 55 min 27 sec) 
Heartbeat CPU 7 instructions: 460000000 cycles: 529405308 heartbeat IPC: 0.880871 cumulative IPC: 0.806985 (Simulation time: 2 hr 56 min 52 sec) 
Heartbeat CPU 3 instructions: 190000001 cycles: 531237465 heartbeat IPC: 0.30846 cumulative IPC: 0.308771 (Simulation time: 2 hr 57 min 25 sec) 
Heartbeat CPU 5 instructions: 760000000 cycles: 531280636 heartbeat IPC: 1.50479 cumulative IPC: 1.38076 (Simulation time: 2 hr 57 min 26 sec) 
Heartbeat CPU 2 instructions: 620000000 cycles: 533892329 heartbeat IPC: 1.0322 cumulative IPC: 1.10982 (Simulation time: 2 hr 58 min 12 sec) 
Heartbeat CPU 6 instructions: 210000002 cycles: 537686012 heartbeat IPC: 0.355865 cumulative IPC: 0.35791 (Simulation time: 2 hr 59 min 19 sec) 
Heartbeat CPU 5 instructions: 770000003 cycles: 537816603 heartbeat IPC: 1.53 cumulative IPC: 1.38265 (Simulation time: 2 hr 59 min 22 sec) 
Heartbeat CPU 4 instructions: 110000003 cycles: 538415118 heartbeat IPC: 0.17168 cumulative IPC: 0.173965 (Simulation time: 2 hr 59 min 32 sec) 
Heartbeat CPU 7 instructions: 470000000 cycles: 539679985 heartbeat IPC: 0.973267 cumulative IPC: 0.810279 (Simulation time: 2 hr 59 min 55 sec) 
Heartbeat CPU 1 instructions: 340000000 cycles: 541225206 heartbeat IPC: 0.578409 cumulative IPC: 0.577662 (Simulation time: 3 hr 0 min 22 sec) 
Heartbeat CPU 2 instructions: 630000002 cycles: 543588366 heartbeat IPC: 1.03135 cumulative IPC: 1.10836 (Simulation time: 3 hr 1 min 4 sec) 
Heartbeat CPU 5 instructions: 780000000 cycles: 544263087 heartbeat IPC: 1.55123 cumulative IPC: 1.38473 (Simulation time: 3 hr 1 min 16 sec) 
Heartbeat CPU 0 instructions: 310000001 cycles: 545976190 heartbeat IPC: 0.375462 cumulative IPC: 0.521327 (Simulation time: 3 hr 1 min 46 sec) 
Heartbeat CPU 7 instructions: 480000000 cycles: 549815851 heartbeat IPC: 0.986596 cumulative IPC: 0.813659 (Simulation time: 3 hr 2 min 54 sec) 
Heartbeat CPU 5 instructions: 790000000 cycles: 550891605 heartbeat IPC: 1.50863 cumulative IPC: 1.38628 (Simulation time: 3 hr 3 min 13 sec) 
Heartbeat CPU 2 instructions: 640000000 cycles: 553178770 heartbeat IPC: 1.04271 cumulative IPC: 1.10718 (Simulation time: 3 hr 3 min 54 sec) 
Heartbeat CPU 5 instructions: 800000000 cycles: 557526285 heartbeat IPC: 1.50723 cumulative IPC: 1.38777 (Simulation time: 3 hr 5 min 10 sec) 
Heartbeat CPU 1 instructions: 350000003 cycles: 558597056 heartbeat IPC: 0.575644 cumulative IPC: 0.577597 (Simulation time: 3 hr 5 min 29 sec) 
Heartbeat CPU 7 instructions: 490000002 cycles: 560161385 heartbeat IPC: 0.966601 cumulative IPC: 0.816594 (Simulation time: 3 hr 5 min 56 sec) 
Heartbeat CPU 2 instructions: 650000000 cycles: 562135692 heartbeat IPC: 1.11645 cumulative IPC: 1.10733 (Simulation time: 3 hr 6 min 33 sec) 
Heartbeat CPU 3 instructions: 200000000 cycles: 563755696 heartbeat IPC: 0.30752 cumulative IPC: 0.308696 (Simulation time: 3 hr 7 min 3 sec) 
Heartbeat CPU 5 instructions: 810000000 cycles: 564175790 heartbeat IPC: 1.50387 cumulative IPC: 1.38919 (Simulation time: 3 hr 7 min 11 sec) 
Heartbeat CPU 6 instructions: 220000000 cycles: 565528424 heartbeat IPC: 0.359164 cumulative IPC: 0.357974 (Simulation time: 3 hr 7 min 37 sec) 
Heartbeat CPU 0 instructions: 320000000 cycles: 567434829 heartbeat IPC: 0.466013 cumulative IPC: 0.519154 (Simulation time: 3 hr 8 min 12 sec) 
Heartbeat CPU 7 instructions: 500000000 cycles: 570579885 heartbeat IPC: 0.959831 cumulative IPC: 0.81931 (Simulation time: 3 hr 9 min 9 sec) 
Heartbeat CPU 5 instructions: 820000000 cycles: 570756307 heartbeat IPC: 1.51964 cumulative IPC: 1.39075 (Simulation time: 3 hr 9 min 12 sec) 
Heartbeat CPU 2 instructions: 660000000 cycles: 571011115 heartbeat IPC: 1.12671 cumulative IPC: 1.10764 (Simulation time: 3 hr 9 min 17 sec) 
Heartbeat CPU 1 instructions: 360000000 cycles: 575911134 heartbeat IPC: 0.577565 cumulative IPC: 0.577596 (Simulation time: 3 hr 10 min 49 sec) 
Heartbeat CPU 2 instructions: 670000000 cycles: 580227492 heartbeat IPC: 1.08503 cumulative IPC: 1.10727 (Simulation time: 3 hr 11 min 59 sec) 
Heartbeat CPU 5 instructions: 830000000 cycles: 580558925 heartbeat IPC: 1.02014 cumulative IPC: 1.38426 (Simulation time: 3 hr 12 min 5 sec) 
Heartbeat CPU 7 instructions: 510000003 cycles: 580852968 heartbeat IPC: 0.973418 cumulative IPC: 0.822138 (Simulation time: 3 hr 12 min 10 sec) 
Heartbeat CPU 0 instructions: 330000002 cycles: 581271843 heartbeat IPC: 0.722699 cumulative IPC: 0.524182 (Simulation time: 3 hr 12 min 19 sec) 
Heartbeat CPU 5 instructions: 840000000 cycles: 585478013 heartbeat IPC: 2.0329 cumulative IPC: 1.38991 (Simulation time: 3 hr 13 min 41 sec) 
Heartbeat CPU 2 instructions: 680000000 cycles: 589073855 heartbeat IPC: 1.13041 cumulative IPC: 1.10763 (Simulation time: 3 hr 14 min 51 sec) 
Heartbeat CPU 5 instructions: 850000003 cycles: 591133541 heartbeat IPC: 1.76818 cumulative IPC: 1.39367 (Simulation time: 3 hr 15 min 30 sec) 
Heartbeat CPU 7 instructions: 520000000 cycles: 591156113 heartbeat IPC: 0.970577 cumulative IPC: 0.824821 (Simulation time: 3 hr 15 min 30 sec) 
Heartbeat CPU 1 instructions: 370000001 cycles: 593419371 heartbeat IPC: 0.57116 cumulative IPC: 0.577399 (Simulation time: 3 hr 16 min 11 sec) 
Heartbeat CPU 6 instructions: 230000002 cycles: 593959497 heartbeat IPC: 0.351728 cumulative IPC: 0.357664 (Simulation time: 3 hr 16 min 20 sec) 
Heartbeat CPU 0 instructions: 340000000 cycles: 596183198 heartbeat IPC: 0.67063 cumulative IPC: 0.527979 (Simulation time: 3 hr 17 min 0 sec) 
Heartbeat CPU 3 instructions: 210000002 cycles: 596353022 heartbeat IPC: 0.306774 cumulative IPC: 0.308587 (Simulation time: 3 hr 17 min 4 sec) 
Heartbeat CPU 4 instructions: 120000000 cycles: 596776466 heartbeat IPC: 0.171346 cumulative IPC: 0.173699 (Simulation time: 3 hr 17 min 11 sec) 
Finished CPU 4 instructions: 100000000 cycles: 575708317 cumulative IPC: 0.173699 (Simulation time: 3 hr 17 min 11 sec) 

CPU 0 Branch Prediction Accuracy: 96.7449% MPKI: 4.44453

CPU 1 Branch Prediction Accuracy: 91.9613% MPKI: 8.14271

CPU 2 Branch Prediction Accuracy: 92.2514% MPKI: 10.5395

CPU 3 Branch Prediction Accuracy: 89.754% MPKI: 18.4193

CPU 4 Branch Prediction Accuracy: 92.4261% MPKI: 6.09924

CPU 5 Branch Prediction Accuracy: 97.9382% MPKI: 0.736368

CPU 6 Branch Prediction Accuracy: 99.9931% MPKI: 0.000810422

CPU 7 Branch Prediction Accuracy: 87.9279% MPKI: 12.0338

ChampSim completed all CPUs

Total Simulation Statistics (not including warmup)

CPU 0 cumulative IPC: 0.528044 instructions: 303999104 cycles: 575708317
L1D TOTAL     ACCESS:  114007201  HIT:  113021299  MISS:     985902
L1D LOAD      ACCESS:   53757345  HIT:   52858074  MISS:     899271
L1D RFO       ACCESS:   60249856  HIT:   60163225  MISS:      86631
L1D PREFETCH  ACCESS:          0  HIT:          0  MISS:          0
L1D WRITEBACK ACCESS:          0  HIT:          0  MISS:          0
L1I TOTAL     ACCESS:   83140723  HIT:   81951579  MISS:    1189144
L1I LOAD      ACCESS:   83140723  HIT:   81951579  MISS:    1189144
L1I RFO       ACCESS:          0  HIT:          0  MISS:          0
L1I PREFETCH  ACCESS:          0  HIT:          0  MISS:          0
L1I WRITEBACK ACCESS:          0  HIT:          0  MISS:          0
L2C TOTAL     ACCESS:    2984235  HIT:    2050546  MISS:     933689
L2C LOAD      ACCESS:    2088396  HIT:    1582140  MISS:     506256
L2C RFO       ACCESS:      86629  HIT:      50763  MISS:      35866
L2C PREFETCH  ACCESS:     534960  HIT:     149422  MISS:     385538
L2C WRITEBACK ACCESS:     274250  HIT:     268221  MISS:       6029

L2C DA-AMPM prefetcher final stats
LLC TOTAL     ACCESS:    1053770  HIT:     574874  MISS:     478896
LLC LOAD      ACCESS:     498965  HIT:     246829  MISS:     252136
LLC RFO       ACCESS:      35859  HIT:      18002  MISS:      17857
LLC PREFETCH  ACCESS:     392832  HIT:     191292  MISS:     201540
LLC WRITEBACK ACCESS:     126114  HIT:     118751  MISS:       7363

CPU 1 cumulative IPC: 0.577352 instructions: 332386040 cycles: 575708317
L1D TOTAL     ACCESS:  100722361  HIT:  100264790  MISS:     457571
L1D LOAD      ACCESS:   61877128  HIT:   61557057  MISS:     320071
L1D RFO       ACCESS:   38845233  HIT:   38707733  MISS:     137500
L1D PREFETCH  ACCESS:          0  HIT:          0  MISS:          0
L1D WRITEBACK ACCESS:          0  HIT:          0  MISS:          0
L1I TOTAL     ACCESS:   81153569  HIT:   80837202  MISS:     316367
L1I LOAD      ACCESS:   81153569  HIT:   80837202  MISS:     316367
L1I RFO       ACCESS:          0  HIT:          0  MISS:          0
L1I PREFETCH  ACCESS:          0  HIT:          0  MISS:          0
L1I WRITEBACK ACCESS:          0  HIT:          0  MISS:          0
L2C TOTAL     ACCESS:    1004672  HIT:     895534  MISS:     109138
L2C LOAD      ACCESS:     636432  HIT:     536331  MISS:     100101
L2C RFO       ACCESS:     137496  HIT:     132151  MISS:       5345
L2C PREFETCH  ACCESS:       5555  HIT:       2131  MISS:       3424
L2C WRITEBACK ACCESS:     225189  HIT:     224921  MISS:        268

L2C DA-AMPM prefetcher final stats
LLC TOTAL     ACCESS:     180139  HIT:      16857  MISS:     163282
LLC LOAD      ACCESS:     100082  HIT:       1251  MISS:      98831
LLC RFO       ACCESS:       5345  HIT:       1895  MISS:       3450
LLC PREFETCH  ACCESS:       3443  HIT:         74  MISS:       3369
LLC WRITEBACK ACCESS:      71269  HIT:      13637  MISS:      57632

CPU 2 cumulative IPC: 1.10802 instructions: 637898666 cycles: 575708317
L1D TOTAL     ACCESS:  113303854  HIT:  113169502  MISS:     134352
L1D LOAD      ACCESS:   88593105  HIT:   88577955  MISS:      15150
L1D RFO       ACCESS:   24710749  HIT:   24591547  MISS:     119202
L1D PREFETCH  ACCESS:          0  HIT:          0  MISS:          0
L1D WRITEBACK ACCESS:          0  HIT:          0  MISS:          0
L1I TOTAL     ACCESS:  156907710  HIT:  156907710  MISS:          0
L1I LOAD      ACCESS:  156907710  HIT:  156907710  MISS:          0
L1I RFO       ACCESS:          0  HIT:          0  MISS:          0
L1I PREFETCH  ACCESS:          0  HIT:          0  MISS:          0
L1I WRITEBACK ACCESS:          0  HIT:          0  MISS:          0
L2C TOTAL     ACCESS:     264183  HIT:     139999  MISS:     124184
L2C LOAD      ACCESS:      15150  HIT:      14235  MISS:        915
L2C RFO       ACCESS:     119202  HIT:       6338  MISS:     112864
L2C PREFETCH  ACCESS:      10581  HIT:        176  MISS:      10405
L2C WRITEBACK ACCESS:     119250  HIT:     119250  MISS:          0

L2C DA-AMPM prefetcher final stats
LLC TOTAL     ACCESS:     236992  HIT:      59369  MISS:     177623
LLC LOAD      ACCESS:        915  HIT:          0  MISS:        915
LLC RFO       ACCESS:     112864  HIT:         14  MISS:     112850
LLC PREFETCH  ACCESS:      10405  HIT:          0  MISS:      10405
LLC WRITEBACK ACCESS:     112808  HIT:      59355  MISS:      53453

CPU 3 cumulative IPC: 0.308666 instructions: 177701430 cycles: 575708317
L1D TOTAL     ACCESS:   69746150  HIT:   62917366  MISS:    6828784
L1D LOAD      ACCESS:   49984525  HIT:   43857950  MISS:    6126575
L1D RFO       ACCESS:   19761625  HIT:   19059416  MISS:     702209
L1D PREFETCH  ACCESS:          0  HIT:          0  MISS:          0
L1D WRITEBACK ACCESS:          0  HIT:          0  MISS:          0
L1I TOTAL     ACCESS:   42555059  HIT:   42555057  MISS:          2
L1I LOAD      ACCESS:   42555059  HIT:   42555057  MISS:          2
L1I RFO       ACCESS:          0  HIT:          0  MISS:          0
L1I PREFETCH  ACCESS:          0  HIT:          0  MISS:          0
L1I WRITEBACK ACCESS:          0  HIT:          0  MISS:          0
L2C TOTAL     ACCESS:    9599150  HIT:    4348209  MISS:    5250941
L2C LOAD      ACCESS:    6126551  HIT:    3090830  MISS:    3035721
L2C RFO       ACCESS:     702187  HIT:     187919  MISS:     514268
L2C PREFETCH  ACCESS:    1776911  HIT:      77391  MISS:    1699520
L2C WRITEBACK ACCESS:     993501  HIT:     992069  MISS:       1432

L2C DA-AMPM prefetcher final stats
LLC TOTAL     ACCESS:    5937614  HIT:    4153458  MISS:    1784156
LLC LOAD      ACCESS:    2985220  HIT:    2354185  MISS:     631035
LLC RFO       ACCESS:     514259  HIT:     513371  MISS:        888
LLC PREFETCH  ACCESS:    1749999  HIT:     597768  MISS:    1152231
LLC WRITEBACK ACCESS:     688136  HIT:     688134  MISS:          2

CPU 4 cumulative IPC: 0.173699 instructions: 100000000 cycles: 575708317
L1D TOTAL     ACCESS:   53692894  HIT:   44670024  MISS:    9022870
L1D LOAD      ACCESS:   33875456  HIT:   29226017  MISS:    4649439
L1D RFO       ACCESS:   19817438  HIT:   15444007  MISS:    4373431
L1D PREFETCH  ACCESS:          0  HIT:          0  MISS:          0
L1D WRITEBACK ACCESS:          0  HIT:          0  MISS:          0
L1I TOTAL     ACCESS:   23967434  HIT:   23967434  MISS:          0
L1I LOAD      ACCESS:   23967434  HIT:   23967434  MISS:          0
L1I RFO       ACCESS:          0  HIT:          0  MISS:          0
L1I PREFETCH  ACCESS:          0  HIT:          0  MISS:          0
L1I WRITEBACK ACCESS:          0  HIT:          0  MISS:          0
L2C TOTAL     ACCESS:   20740814  HIT:   11501290  MISS:    9239524
L2C LOAD      ACCESS:    4649380  HIT:    2479020  MISS:    2170360
L2C RFO       ACCESS:    4373431  HIT:          8  MISS:    4373423
L2C PREFETCH  ACCESS:    2695133  HIT:       4134  MISS:    2690999
L2C WRITEBACK ACCESS:    9022870  HIT:    9018128  MISS:       4742

L2C DA-AMPM prefetcher final stats
LLC TOTAL     ACCESS:   18000070  HIT:   11150659  MISS:    6849411
LLC LOAD      ACCESS:    2106587  HIT:    1848330  MISS:     258257
LLC RFO       ACCESS:    4373423  HIT:     128404  MISS:    4245019
LLC PREFETCH  ACCESS:    2754718  HIT:     408583  MISS:    2346135
LLC WRITEBACK ACCESS:    8765342  HIT:    8765342  MISS:          0

CPU 5 cumulative IPC: 1.39309 instructions: 802011550 cycles: 575708318
L1D TOTAL     ACCESS:  125085860  HIT:  123378468  MISS:    1707392
L1D LOAD      ACCESS:   73381389  HIT:   72162543  MISS:    1218846
L1D RFO       ACCESS:   51704471  HIT:   51215925  MISS:     488546
L1D PREFETCH  ACCESS:          0  HIT:          0  MISS:          0
L1D WRITEBACK ACCESS:          0  HIT:          0  MISS:          0
L1I TOTAL     ACCESS:  192600896  HIT:  191509479  MISS:    1091417
L1I LOAD      ACCESS:  192600896  HIT:  191509479  MISS:    1091417
L1I RFO       ACCESS:          0  HIT:          0  MISS:          0
L1I PREFETCH  ACCESS:          0  HIT:          0  MISS:          0
L1I WRITEBACK ACCESS:          0  HIT:          0  MISS:          0
L2C TOTAL     ACCESS:    3846926  HIT:    2786257  MISS:    1060669
L2C LOAD      ACCESS:    2310217  HIT:    1971563  MISS:     338654
L2C RFO       ACCESS:     487311  HIT:     210132  MISS:     277179
L2C PREFETCH  ACCESS:     472339  HIT:      31108  MISS:     441231
L2C WRITEBACK ACCESS:     577059  HIT:     573454  MISS:       3605

L2C DA-AMPM prefetcher final stats
LLC TOTAL     ACCESS:    1389697  HIT:     658383  MISS:     731314
LLC LOAD      ACCESS:     314056  HIT:     192497  MISS:     121559
LLC RFO       ACCESS:     277096  HIT:      14514  MISS:     262582
LLC PREFETCH  ACCESS:     465908  HIT:     121854  MISS:     344054
LLC WRITEBACK ACCESS:     332637  HIT:     329518  MISS:       3119

CPU 6 cumulative IPC: 0.357653 instructions: 205903650 cycles: 575708318
L1D TOTAL     ACCESS:  115258730  HIT:  111297085  MISS:    3961645
L1D LOAD      ACCESS:  102057609  HIT:   98095964  MISS:    3961645
L1D RFO       ACCESS:   13201121  HIT:   13201121  MISS:          0
L1D PREFETCH  ACCESS:          0  HIT:          0  MISS:          0
L1D WRITEBACK ACCESS:          0  HIT:          0  MISS:          0
L1I TOTAL     ACCESS:   62303529  HIT:   62303529  MISS:          0
L1I LOAD      ACCESS:   62303529  HIT:   62303529  MISS:          0
L1I RFO       ACCESS:          0  HIT:          0  MISS:          0
L1I PREFETCH  ACCESS:          0  HIT:          0  MISS:          0
L1I WRITEBACK ACCESS:          0  HIT:          0  MISS:          0
L2C TOTAL     ACCESS:    7220811  HIT:    2833177  MISS:    4387634
L2C LOAD      ACCESS:    3961645  HIT:     832844  MISS:    3128801
L2C RFO       ACCESS:          0  HIT:          0  MISS:          0
L2C PREFETCH  ACCESS:    1258833  HIT:          0  MISS:    1258833
L2C WRITEBACK ACCESS:    2000333  HIT:    2000333  MISS:          0

L2C DA-AMPM prefetcher final stats
LLC TOTAL     ACCESS:    6387942  HIT:    2876812  MISS:    3511130
LLC LOAD      ACCESS:    3127963  HIT:     737243  MISS:    2390720
LLC RFO       ACCESS:          0  HIT:          0  MISS:          0
LLC PREFETCH  ACCESS:    1259671  HIT:     139261  MISS:    1120410
LLC WRITEBACK ACCESS:    2000308  HIT:    2000308  MISS:          0

CPU 7 cumulative IPC: 0.826235 instructions: 475670293 cycles: 575708318
L1D TOTAL     ACCESS:   74604759  HIT:   73684371  MISS:     920388
L1D LOAD      ACCESS:   43734660  HIT:   43214194  MISS:     520466
L1D RFO       ACCESS:   30870099  HIT:   30470177  MISS:     399922
L1D PREFETCH  ACCESS:          0  HIT:          0  MISS:          0
L1D WRITEBACK ACCESS:          0  HIT:          0  MISS:          0
L1I TOTAL     ACCESS:  109471101  HIT:  109470616  MISS:        485
L1I LOAD      ACCESS:  109471101  HIT:  109470616  MISS:        485
L1I RFO       ACCESS:          0  HIT:          0  MISS:          0
L1I PREFETCH  ACCESS:          0  HIT:          0  MISS:          0
L1I WRITEBACK ACCESS:          0  HIT:          0  MISS:          0
L2C TOTAL     ACCESS:    1540347  HIT:    1089609  MISS:     450738
L2C LOAD      ACCESS:     520946  HIT:     428059  MISS:      92887
L2C RFO       ACCESS:     399918  HIT:     119219  MISS:     280699
L2C PREFETCH  ACCESS:     117490  HIT:      41319  MISS:      76171
L2C WRITEBACK ACCESS:     501993  HIT:     501012  MISS:        981

L2C DA-AMPM prefetcher final stats
LLC TOTAL     ACCESS:     741654  HIT:     292561  MISS:     449093
LLC LOAD      ACCESS:      89215  HIT:      24604  MISS:      64611
LLC RFO       ACCESS:     280690  HIT:       2725  MISS:     277965
LLC PREFETCH  ACCESS:      79851  HIT:      10246  MISS:      69605
LLC WRITEBACK ACCESS:     291898  HIT:     254986  MISS:      36912

Region of Interest Statistics

CPU 0 cumulative IPC: 0.560299 instructions: 100000000 cycles: 178476035
L1D TOTAL     ACCESS:   37347920  HIT:   37062777  MISS:     285143
L1D LOAD      ACCESS:   17192083  HIT:   16935552  MISS:     256531
L1D RFO       ACCESS:   20155837  HIT:   20127225  MISS:      28612
L1D PREFETCH  ACCESS:          0  HIT:          0  MISS:          0
L1D WRITEBACK ACCESS:          0  HIT:          0  MISS:          0
L1D PREFETCH  REQUESTED:          0  ISSUED:          0  USEFUL:          0  USELESS:          0
L1I TOTAL     ACCESS:   27424563  HIT:   27078351  MISS:     346212
L1I LOAD      ACCESS:   27424563  HIT:   27078351  MISS:     346212
L1I RFO       ACCESS:          0  HIT:          0  MISS:          0
L1I PREFETCH  ACCESS:          0  HIT:          0  MISS:          0
L1I WRITEBACK ACCESS:          0  HIT:          0  MISS:          0
L1I PREFETCH  REQUESTED:          0  ISSUED:          0  USEFUL:          0  USELESS:          0
L2C TOTAL     ACCESS:     849297  HIT:     593645  MISS:     255652
L2C LOAD      ACCESS:     602742  HIT:     462803  MISS:     139939
L2C RFO       ACCESS:      28612  HIT:      18084  MISS:      10528
L2C PREFETCH  ACCESS:     137755  HIT:      34199  MISS:     103556
L2C WRITEBACK ACCESS:      80188  HIT:      78559  MISS:       1629
L2C PREFETCH  REQUESTED:     564372  ISSUED:     564372  USEFUL:     137850  USELESS:     249585
LLC TOTAL     ACCESS:     289092  HIT:     139329  MISS:     149763
LLC LOAD      ACCESS:     138063  HIT:      58596  MISS:      79467
LLC RFO       ACCESS:      10527  HIT:       4886  MISS:       5641
LLC PREFETCH  ACCESS:     105432  HIT:      42888  MISS:      62544
LLC WRITEBACK ACCESS:      35070  HIT:      32959  MISS:       2111
LLC PREFETCH  REQUESTED:          0  ISSUED:          0  USEFUL:     390623  USELESS:    5687269
Major fault: 0 Minor fault: 5869

CPU 1 cumulative IPC: 0.580943 instructions: 100000001 cycles: 172133906
L1D TOTAL     ACCESS:   30057047  HIT:   29920568  MISS:     136479
L1D LOAD      ACCESS:   18558053  HIT:   18462340  MISS:      95713
L1D RFO       ACCESS:   11498994  HIT:   11458228  MISS:      40766
L1D PREFETCH  ACCESS:          0  HIT:          0  MISS:          0
L1D WRITEBACK ACCESS:          0  HIT:          0  MISS:          0
L1D PREFETCH  REQUESTED:          0  ISSUED:          0  USEFUL:          0  USELESS:          0
L1I TOTAL     ACCESS:   24415448  HIT:   24325614  MISS:      89834
L1I LOAD      ACCESS:   24415448  HIT:   24325614  MISS:      89834
L1I RFO       ACCESS:          0  HIT:          0  MISS:          0
L1I PREFETCH  ACCESS:          0  HIT:          0  MISS:          0
L1I WRITEBACK ACCESS:          0  HIT:          0  MISS:          0
L1I PREFETCH  REQUESTED:          0  ISSUED:          0  USEFUL:          0  USELESS:          0
L2C TOTAL     ACCESS:     293611  HIT:     262376  MISS:      31235
L2C LOAD      ACCESS:     185545  HIT:     156708  MISS:      28837
L2C RFO       ACCESS:      40764  HIT:      39261  MISS:       1503
L2C PREFETCH  ACCESS:       1483  HIT:        658  MISS:        825
L2C WRITEBACK ACCESS:      65819  HIT:      65749  MISS:         70
L2C PREFETCH  REQUESTED:       7410  ISSUED:       7410  USEFUL:        708  USELESS:       4051
LLC TOTAL     ACCESS:      51273  HIT:       4561  MISS:      46712
LLC LOAD      ACCESS:      28833  HIT:        281  MISS:      28552
LLC RFO       ACCESS:       1503  HIT:        576  MISS:        927
LLC PREFETCH  ACCESS:        829  HIT:         20  MISS:        809
LLC WRITEBACK ACCESS:      20108  HIT:       3684  MISS:      16424
LLC PREFETCH  REQUESTED:          0  ISSUED:          0  USEFUL:     390623  USELESS:    5687269
Major fault: 0 Minor fault: 60080

CPU 2 cumulative IPC: 1.13503 instructions: 100000001 cycles: 88103386
L1D TOTAL     ACCESS:   17263366  HIT:   17259878  MISS:       3488
L1D LOAD      ACCESS:   13893895  HIT:   13893458  MISS:        437
L1D RFO       ACCESS:    3369471  HIT:    3366420  MISS:       3051
L1D PREFETCH  ACCESS:          0  HIT:          0  MISS:          0
L1D WRITEBACK ACCESS:          0  HIT:          0  MISS:          0
L1D PREFETCH  REQUESTED:          0  ISSUED:          0  USEFUL:          0  USELESS:          0
L1I TOTAL     ACCESS:   24485947  HIT:   24485947  MISS:          0
L1I LOAD      ACCESS:   24485947  HIT:   24485947  MISS:          0
L1I RFO       ACCESS:          0  HIT:          0  MISS:          0
L1I PREFETCH  ACCESS:          0  HIT:          0  MISS:          0
L1I WRITEBACK ACCESS:          0  HIT:          0  MISS:          0
L1I PREFETCH  REQUESTED:          0  ISSUED:          0  USEFUL:          0  USELESS:          0
L2C TOTAL     ACCESS:       6799  HIT:       3816  MISS:       2983
L2C LOAD      ACCESS:        437  HIT:        417  MISS:         20
L2C RFO       ACCESS:       3051  HIT:        345  MISS:       2706
L2C PREFETCH  ACCESS:        261  HIT:          4  MISS:        257
L2C WRITEBACK ACCESS:       3050  HIT:       3050  MISS:          0
L2C PREFETCH  REQUESTED:      17376  ISSUED:      17376  USEFUL:      16653  USELESS:        121
LLC TOTAL     ACCESS:       5662  HIT:          0  MISS:       5662
LLC LOAD      ACCESS:         20  HIT:          0  MISS:         20
LLC RFO       ACCESS:       2706  HIT:          0  MISS:       2706
LLC PREFETCH  ACCESS:        257  HIT:          0  MISS:        257
LLC WRITEBACK ACCESS:       2679  HIT:          0  MISS:       2679
LLC PREFETCH  REQUESTED:          0  ISSUED:          0  USEFUL:     390623  USELESS:    5687269
Major fault: 0 Minor fault: 3117

CPU 3 cumulative IPC: 0.310202 instructions: 100000003 cycles: 322371024
L1D TOTAL     ACCESS:   39017638  HIT:   35052981  MISS:    3964657
L1D LOAD      ACCESS:   27996691  HIT:   24424856  MISS:    3571835
L1D RFO       ACCESS:   11020947  HIT:   10628125  MISS:     392822
L1D PREFETCH  ACCESS:          0  HIT:          0  MISS:          0
L1D WRITEBACK ACCESS:          0  HIT:          0  MISS:          0
L1D PREFETCH  REQUESTED:          0  ISSUED:          0  USEFUL:          0  USELESS:          0
L1I TOTAL     ACCESS:   23896335  HIT:   23896335  MISS:          0
L1I LOAD      ACCESS:   23896335  HIT:   23896335  MISS:          0
L1I RFO       ACCESS:          0  HIT:          0  MISS:          0
L1I PREFETCH  ACCESS:          0  HIT:          0  MISS:          0
L1I WRITEBACK ACCESS:          0  HIT:          0  MISS:          0
L1I PREFETCH  REQUESTED:          0  ISSUED:          0  USEFUL:          0  USELESS:          0
L2C TOTAL     ACCESS:    5575236  HIT:    2454489  MISS:    3120747
L2C LOAD      ACCESS:    3571820  HIT:    1752314  MISS:    1819506
L2C RFO       ACCESS:     392810  HIT:     100304  MISS:     292506
L2C PREFETCH  ACCESS:    1051748  HIT:      43802  MISS:    1007946
L2C WRITEBACK ACCESS:     558858  HIT:     558069  MISS:        789
L2C PREFETCH  REQUESTED:    2317409  ISSUED:    2317409  USEFUL:    1635028  USELESS:     451170
LLC TOTAL     ACCESS:    3514617  HIT:    2454784  MISS:    1059833
LLC LOAD      ACCESS:    1785558  HIT:    1421313  MISS:     364245
LLC RFO       ACCESS:     292500  HIT:     291984  MISS:        516
LLC PREFETCH  ACCESS:    1041881  HIT:     346809  MISS:     695072
LLC WRITEBACK ACCESS:     394678  HIT:     394678  MISS:          0
LLC PREFETCH  REQUESTED:          0  ISSUED:          0  USEFUL:     390623  USELESS:    5687269
Major fault: 0 Minor fault: 26615

CPU 4 cumulative IPC: 0.173699 instructions: 100000000 cycles: 575708317
L1D TOTAL     ACCESS:   53692894  HIT:   44670024  MISS:    9022870
L1D LOAD      ACCESS:   33875456  HIT:   29226017  MISS:    4649439
L1D RFO       ACCESS:   19817438  HIT:   15444007  MISS:    4373431
L1D PREFETCH  ACCESS:          0  HIT:          0  MISS:          0
L1D WRITEBACK ACCESS:          0  HIT:          0  MISS:          0
L1D PREFETCH  REQUESTED:          0  ISSUED:          0  USEFUL:          0  USELESS:          0
L1I TOTAL     ACCESS:   23967434  HIT:   23967434  MISS:          0
L1I LOAD      ACCESS:   23967434  HIT:   23967434  MISS:          0
L1I RFO       ACCESS:          0  HIT:          0  MISS:          0
L1I PREFETCH  ACCESS:          0  HIT:          0  MISS:          0
L1I WRITEBACK ACCESS:          0  HIT:          0  MISS:          0
L1I PREFETCH  REQUESTED:          0  ISSUED:          0  USEFUL:          0  USELESS:          0
L2C TOTAL     ACCESS:   20740814  HIT:   11501290  MISS:    9239524
L2C LOAD      ACCESS:    4649380  HIT:    2479020  MISS:    2170360
L2C RFO       ACCESS:    4373431  HIT:          8  MISS:    4373423
L2C PREFETCH  ACCESS:    2695133  HIT:       4134  MISS:    2690999
L2C WRITEBACK ACCESS:    9022870  HIT:    9018128  MISS:       4742
L2C PREFETCH  REQUESTED:    3353482  ISSUED:    3353482  USEFUL:    2679474  USELESS:     526840
LLC TOTAL     ACCESS:   18000070  HIT:   11150659  MISS:    6849411
LLC LOAD      ACCESS:    2106587  HIT:    1848330  MISS:     258257
LLC RFO       ACCESS:    4373423  HIT:     128404  MISS:    4245019
LLC PREFETCH  ACCESS:    2754718  HIT:     408583  MISS:    2346135
LLC WRITEBACK ACCESS:    8765342  HIT:    8765342  MISS:          0
LLC PREFETCH  REQUESTED:          0  ISSUED:          0  USEFUL:     390623  USELESS:    5687269
Major fault: 0 Minor fault: 257383

CPU 5 cumulative IPC: 1.34089 instructions: 100000000 cycles: 74577466
L1D TOTAL     ACCESS:   14463633  HIT:   14426319  MISS:      37314
L1D LOAD      ACCESS:    8048193  HIT:    8012041  MISS:      36152
L1D RFO       ACCESS:    6415440  HIT:    6414278  MISS:       1162
L1D PREFETCH  ACCESS:          0  HIT:          0  MISS:          0
L1D WRITEBACK ACCESS:          0  HIT:          0  MISS:          0
L1D PREFETCH  REQUESTED:          0  ISSUED:          0  USEFUL:          0  USELESS:          0
L1I TOTAL     ACCESS:   24592051  HIT:   24592021  MISS:         30
L1I LOAD      ACCESS:   24592051  HIT:   24592021  MISS:         30
L1I RFO       ACCESS:          0  HIT:          0  MISS:          0
L1I PREFETCH  ACCESS:          0  HIT:          0  MISS:          0
L1I WRITEBACK ACCESS:          0  HIT:          0  MISS:          0
L1I PREFETCH  REQUESTED:          0  ISSUED:          0  USEFUL:          0  USELESS:          0
L2C TOTAL     ACCESS:      58746  HIT:      28776  MISS:      29970
L2C LOAD      ACCESS:      36182  HIT:      26685  MISS:       9497
L2C RFO       ACCESS:       1162  HIT:        561  MISS:        601
L2C PREFETCH  ACCESS:      20231  HIT:        384  MISS:      19847
L2C WRITEBACK ACCESS:       1171  HIT:       1146  MISS:         25
L2C PREFETCH  REQUESTED:     528898  ISSUED:     528289  USEFUL:     393539  USELESS:      60199
LLC TOTAL     ACCESS:      30809  HIT:        383  MISS:      30426
LLC LOAD      ACCESS:       8923  HIT:         17  MISS:       8906
LLC RFO       ACCESS:        601  HIT:          1  MISS:        600
LLC PREFETCH  ACCESS:      20421  HIT:          0  MISS:      20421
LLC WRITEBACK ACCESS:        864  HIT:        365  MISS:        499
LLC PREFETCH  REQUESTED:          0  ISSUED:          0  USEFUL:     390623  USELESS:    5687269
Major fault: 0 Minor fault: 8815

CPU 6 cumulative IPC: 0.361116 instructions: 100000003 cycles: 276919547
L1D TOTAL     ACCESS:   55972639  HIT:   54048610  MISS:    1924029
L1D LOAD      ACCESS:   49561330  HIT:   47637301  MISS:    1924029
L1D RFO       ACCESS:    6411309  HIT:    6411309  MISS:          0
L1D PREFETCH  ACCESS:          0  HIT:          0  MISS:          0
L1D WRITEBACK ACCESS:          0  HIT:          0  MISS:          0
L1D PREFETCH  REQUESTED:          0  ISSUED:          0  USEFUL:          0  USELESS:          0
L1I TOTAL     ACCESS:   30242750  HIT:   30242750  MISS:          0
L1I LOAD      ACCESS:   30242750  HIT:   30242750  MISS:          0
L1I RFO       ACCESS:          0  HIT:          0  MISS:          0
L1I PREFETCH  ACCESS:          0  HIT:          0  MISS:          0
L1I WRITEBACK ACCESS:          0  HIT:          0  MISS:          0
L1I PREFETCH  REQUESTED:          0  ISSUED:          0  USEFUL:          0  USELESS:          0
L2C TOTAL     ACCESS:    3506879  HIT:    1376144  MISS:    2130735
L2C LOAD      ACCESS:    1924029  HIT:     404637  MISS:    1519392
L2C RFO       ACCESS:          0  HIT:          0  MISS:          0
L2C PREFETCH  ACCESS:     611343  HIT:          0  MISS:     611343
L2C WRITEBACK ACCESS:     971507  HIT:     971507  MISS:          0
L2C PREFETCH  REQUESTED:    1413697  ISSUED:    1413697  USEFUL:     934512  USELESS:     477593
LLC TOTAL     ACCESS:    3102242  HIT:    1397402  MISS:    1704840
LLC LOAD      ACCESS:    1519011  HIT:     358181  MISS:    1160830
LLC RFO       ACCESS:          0  HIT:          0  MISS:          0
LLC PREFETCH  ACCESS:     611724  HIT:      67714  MISS:     544010
LLC WRITEBACK ACCESS:     971507  HIT:     971507  MISS:          0
LLC PREFETCH  REQUESTED:          0  ISSUED:          0  USEFUL:     390623  USELESS:    5687269
Major fault: 0 Minor fault: 591372

CPU 7 cumulative IPC: 0.951257 instructions: 100000002 cycles: 105124086
L1D TOTAL     ACCESS:   14753550  HIT:   14684091  MISS:      69459
L1D LOAD      ACCESS:    8541751  HIT:    8499596  MISS:      42155
L1D RFO       ACCESS:    6211799  HIT:    6184495  MISS:      27304
L1D PREFETCH  ACCESS:          0  HIT:          0  MISS:          0
L1D WRITEBACK ACCESS:          0  HIT:          0  MISS:          0
L1D PREFETCH  REQUESTED:          0  ISSUED:          0  USEFUL:          0  USELESS:          0
L1I TOTAL     ACCESS:   21079263  HIT:   21079152  MISS:        111
L1I LOAD      ACCESS:   21079263  HIT:   21079152  MISS:        111
L1I RFO       ACCESS:          0  HIT:          0  MISS:          0
L1I PREFETCH  ACCESS:          0  HIT:          0  MISS:          0
L1I WRITEBACK ACCESS:          0  HIT:          0  MISS:          0
L1I PREFETCH  REQUESTED:          0  ISSUED:          0  USEFUL:          0  USELESS:          0
L2C TOTAL     ACCESS:     116910  HIT:      91300  MISS:      25610
L2C LOAD      ACCESS:      42266  HIT:      38512  MISS:       3754
L2C RFO       ACCESS:      27304  HIT:      12197  MISS:      15107
L2C PREFETCH  ACCESS:       8246  HIT:       1508  MISS:       6738
L2C WRITEBACK ACCESS:      39094  HIT:      39083  MISS:         11
L2C PREFETCH  REQUESTED:     128753  ISSUED:     128753  USEFUL:      57760  USELESS:      21246
LLC TOTAL     ACCESS:      41155  HIT:       4845  MISS:      36310
LLC LOAD      ACCESS:       3484  HIT:        423  MISS:       3061
LLC RFO       ACCESS:      15107  HIT:        118  MISS:      14989
LLC PREFETCH  ACCESS:       7008  HIT:        213  MISS:       6795
LLC WRITEBACK ACCESS:      15556  HIT:       4091  MISS:      11465
LLC PREFETCH  REQUESTED:          0  ISSUED:          0  USEFUL:     390623  USELESS:    5687269
Major fault: 0 Minor fault: 3708

L2C DA-AMPM prefetcher final stats

L2C DA-AMPM prefetcher final stats

L2C DA-AMPM prefetcher final stats

L2C DA-AMPM prefetcher final stats

L2C DA-AMPM prefetcher final stats

L2C DA-AMPM prefetcher final stats

L2C DA-AMPM prefetcher final stats

L2C DA-AMPM prefetcher final stats

DRAM Statistics
 CHANNEL 0
 RQ ROW_BUFFER_HIT:    1711683  ROW_BUFFER_MISS:    5277144
 DBUS_CONGESTED:   14505791
 WQ ROW_BUFFER_HIT:     439160  ROW_BUFFER_MISS:    4381070  FULL:          0

 CHANNEL 1
 RQ ROW_BUFFER_HIT:    1701486  ROW_BUFFER_MISS:    5295968
 DBUS_CONGESTED:   14505791
 WQ ROW_BUFFER_HIT:     439841  ROW_BUFFER_MISS:    4382546  FULL:          0

 AVG_CONGESTED_CYCLE: 14
