
*** ChampSim Multicore Out-of-Order Simulator ***

Warmup Instructions: 20000000
Simulation Instructions: 100000000
Number of CPUs: 8
LLC sets: 16384
LLC ways: 16
Off-chip DRAM Size: 8192 MB Channels: 2 Width: 64-bit Data Rate: 1600 MT/s

CPU 0 runs /scratch/user/djimenez/champsim-traces/speccpu2017/xz/641.leela_s/641.leela_s-800B.champsimtrace.xz
CPU 1 runs /scratch/user/djimenez/champsim-traces/speccpu2017/xz/644.nab_s/644.nab_s-5853B.champsimtrace.xz
CPU 2 runs /scratch/user/djimenez/champsim-traces/speccpu2017/xz/654.roms_s/654.roms_s-842B.champsimtrace.xz
CPU 3 runs /scratch/user/djimenez/champsim-traces/speccpu2017/xz/641.leela_s/641.leela_s-602B.champsimtrace.xz
CPU 4 runs /scratch/user/djimenez/champsim-traces/speccpu2017/xz/628.pop2_s/628.pop2_s-17B.champsimtrace.xz
CPU 5 runs /scratch/user/djimenez/champsim-traces/speccpu2017/xz/641.leela_s/641.leela_s-862B.champsimtrace.xz
CPU 6 runs /scratch/user/djimenez/champsim-traces/speccpu2017/xz/623.xalancbmk_s/623.xalancbmk_s-700B.champsimtrace.xz
CPU 7 runs /scratch/user/djimenez/champsim-traces/speccpu2017/xz/623.xalancbmk_s/623.xalancbmk_s-325B.champsimtrace.xz
L2C DA-AMPM prefetcher
L2C DA-AMPM prefetcher
L2C DA-AMPM prefetcher
L2C DA-AMPM prefetcher
L2C DA-AMPM prefetcher
L2C DA-AMPM prefetcher
L2C DA-AMPM prefetcher
L2C DA-AMPM prefetcher
Heartbeat CPU 2 instructions: 10000003 cycles: 3780919 heartbeat IPC: 2.64486 cumulative IPC: 2.64486 (Simulation time: 0 hr 2 min 51 sec) 
Heartbeat CPU 4 instructions: 10000002 cycles: 4120773 heartbeat IPC: 2.42673 cumulative IPC: 2.42673 (Simulation time: 0 hr 3 min 6 sec) 
Heartbeat CPU 1 instructions: 10000002 cycles: 5536152 heartbeat IPC: 1.80631 cumulative IPC: 1.80631 (Simulation time: 0 hr 4 min 10 sec) 
Heartbeat CPU 6 instructions: 10000001 cycles: 5961154 heartbeat IPC: 1.67753 cumulative IPC: 1.67753 (Simulation time: 0 hr 4 min 30 sec) 
Heartbeat CPU 7 instructions: 10000000 cycles: 6127248 heartbeat IPC: 1.63205 cumulative IPC: 1.63205 (Simulation time: 0 hr 4 min 38 sec) 
Heartbeat CPU 0 instructions: 10000001 cycles: 6351209 heartbeat IPC: 1.5745 cumulative IPC: 1.5745 (Simulation time: 0 hr 4 min 49 sec) 
Heartbeat CPU 3 instructions: 10000000 cycles: 6397213 heartbeat IPC: 1.56318 cumulative IPC: 1.56318 (Simulation time: 0 hr 4 min 51 sec) 
Heartbeat CPU 5 instructions: 10000000 cycles: 6412137 heartbeat IPC: 1.55954 cumulative IPC: 1.55954 (Simulation time: 0 hr 4 min 52 sec) 
Heartbeat CPU 2 instructions: 20000000 cycles: 7608972 heartbeat IPC: 2.61229 cumulative IPC: 2.62848 (Simulation time: 0 hr 5 min 48 sec) 
Heartbeat CPU 4 instructions: 20000000 cycles: 8232900 heartbeat IPC: 2.43183 cumulative IPC: 2.42928 (Simulation time: 0 hr 6 min 16 sec) 
Heartbeat CPU 6 instructions: 20000000 cycles: 10839547 heartbeat IPC: 2.04986 cumulative IPC: 1.8451 (Simulation time: 0 hr 8 min 17 sec) 
Heartbeat CPU 1 instructions: 20000000 cycles: 11070526 heartbeat IPC: 1.80689 cumulative IPC: 1.8066 (Simulation time: 0 hr 8 min 27 sec) 
Heartbeat CPU 2 instructions: 30000003 cycles: 11356944 heartbeat IPC: 2.66811 cumulative IPC: 0.880519 (Simulation time: 0 hr 8 min 41 sec) 
Heartbeat CPU 7 instructions: 20000000 cycles: 12341066 heartbeat IPC: 1.60932 cumulative IPC: 1.62061 (Simulation time: 0 hr 9 min 26 sec) 
Heartbeat CPU 4 instructions: 30000002 cycles: 12343833 heartbeat IPC: 2.43254 cumulative IPC: 0.810121 (Simulation time: 0 hr 9 min 27 sec) 
Heartbeat CPU 0 instructions: 20000000 cycles: 12675171 heartbeat IPC: 1.58129 cumulative IPC: 1.57789 (Simulation time: 0 hr 9 min 41 sec) 
Heartbeat CPU 3 instructions: 20000000 cycles: 12730450 heartbeat IPC: 1.57897 cumulative IPC: 1.57104 (Simulation time: 0 hr 9 min 44 sec) 
Heartbeat CPU 5 instructions: 20000000 cycles: 12822055 heartbeat IPC: 1.56008 cumulative IPC: 1.55981 (Simulation time: 0 hr 9 min 48 sec) 

Warmup complete CPU 0 instructions: 20231059 cycles: 12822056 (Simulation time: 0 hr 9 min 48 sec) 
Warmup complete CPU 1 instructions: 23164694 cycles: 12822056 (Simulation time: 0 hr 9 min 48 sec) 
Warmup complete CPU 2 instructions: 33964010 cycles: 12822056 (Simulation time: 0 hr 9 min 48 sec) 
Warmup complete CPU 3 instructions: 20146136 cycles: 12822056 (Simulation time: 0 hr 9 min 48 sec) 
Warmup complete CPU 4 instructions: 31163278 cycles: 12822056 (Simulation time: 0 hr 9 min 48 sec) 
Warmup complete CPU 5 instructions: 20000003 cycles: 12822056 (Simulation time: 0 hr 9 min 48 sec) 
Warmup complete CPU 6 instructions: 23751270 cycles: 12822055 (Simulation time: 0 hr 9 min 48 sec) 
Warmup complete CPU 7 instructions: 20743598 cycles: 12822055 (Simulation time: 0 hr 9 min 48 sec) 

Heartbeat CPU 2 instructions: 40000000 cycles: 19468328 heartbeat IPC: 1.23283 cumulative IPC: 0.908177 (Simulation time: 0 hr 12 min 13 sec) 
Heartbeat CPU 4 instructions: 40000000 cycles: 20181248 heartbeat IPC: 1.27593 cumulative IPC: 1.20077 (Simulation time: 0 hr 12 min 29 sec) 
Heartbeat CPU 1 instructions: 30000000 cycles: 22696205 heartbeat IPC: 0.860165 cumulative IPC: 0.692243 (Simulation time: 0 hr 13 min 27 sec) 
Heartbeat CPU 4 instructions: 50000001 cycles: 28501898 heartbeat IPC: 1.20183 cumulative IPC: 1.20133 (Simulation time: 0 hr 15 min 33 sec) 
Heartbeat CPU 2 instructions: 50000001 cycles: 30971639 heartbeat IPC: 0.869315 cumulative IPC: 0.883546 (Simulation time: 0 hr 16 min 26 sec) 
Heartbeat CPU 6 instructions: 30000001 cycles: 32641814 heartbeat IPC: 0.458668 cumulative IPC: 0.315278 (Simulation time: 0 hr 17 min 3 sec) 
Heartbeat CPU 3 instructions: 30000000 cycles: 35203531 heartbeat IPC: 0.444977 cumulative IPC: 0.440269 (Simulation time: 0 hr 17 min 59 sec) 
Heartbeat CPU 0 instructions: 30000001 cycles: 35643514 heartbeat IPC: 0.435382 cumulative IPC: 0.42806 (Simulation time: 0 hr 18 min 9 sec) 
Heartbeat CPU 7 instructions: 30000001 cycles: 36257576 heartbeat IPC: 0.418121 cumulative IPC: 0.394973 (Simulation time: 0 hr 18 min 22 sec) 
Heartbeat CPU 5 instructions: 30000000 cycles: 36337100 heartbeat IPC: 0.42526 cumulative IPC: 0.42526 (Simulation time: 0 hr 18 min 24 sec) 
Heartbeat CPU 4 instructions: 60000000 cycles: 36824953 heartbeat IPC: 1.20148 cumulative IPC: 1.20139 (Simulation time: 0 hr 18 min 35 sec) 
Heartbeat CPU 1 instructions: 40000000 cycles: 37160813 heartbeat IPC: 0.691343 cumulative IPC: 0.691708 (Simulation time: 0 hr 18 min 42 sec) 
Heartbeat CPU 2 instructions: 60000000 cycles: 41411640 heartbeat IPC: 0.957854 cumulative IPC: 0.910681 (Simulation time: 0 hr 20 min 16 sec) 
Heartbeat CPU 4 instructions: 70000002 cycles: 45081366 heartbeat IPC: 1.21118 cumulative IPC: 1.20389 (Simulation time: 0 hr 21 min 36 sec) 
Heartbeat CPU 1 instructions: 50000002 cycles: 51644991 heartbeat IPC: 0.690409 cumulative IPC: 0.691223 (Simulation time: 0 hr 24 min 4 sec) 
Heartbeat CPU 2 instructions: 70000001 cycles: 51738841 heartbeat IPC: 0.968317 cumulative IPC: 0.925976 (Simulation time: 0 hr 24 min 6 sec) 
Heartbeat CPU 4 instructions: 80000000 cycles: 52271899 heartbeat IPC: 1.39072 cumulative IPC: 1.23794 (Simulation time: 0 hr 24 min 17 sec) 
Heartbeat CPU 3 instructions: 40000000 cycles: 57951056 heartbeat IPC: 0.439608 cumulative IPC: 0.439936 (Simulation time: 0 hr 26 min 20 sec) 
Heartbeat CPU 0 instructions: 40000000 cycles: 58899393 heartbeat IPC: 0.429999 cumulative IPC: 0.429038 (Simulation time: 0 hr 26 min 40 sec) 
Heartbeat CPU 5 instructions: 40000000 cycles: 59665388 heartbeat IPC: 0.428664 cumulative IPC: 0.426955 (Simulation time: 0 hr 26 min 56 sec) 
Heartbeat CPU 7 instructions: 40000000 cycles: 59908012 heartbeat IPC: 0.422825 cumulative IPC: 0.408963 (Simulation time: 0 hr 27 min 2 sec) 
Heartbeat CPU 4 instructions: 90000002 cycles: 61141968 heartbeat IPC: 1.12739 cumulative IPC: 1.21765 (Simulation time: 0 hr 27 min 28 sec) 
Heartbeat CPU 6 instructions: 40000000 cycles: 61556207 heartbeat IPC: 0.345848 cumulative IPC: 0.333416 (Simulation time: 0 hr 27 min 37 sec) 
Heartbeat CPU 2 instructions: 80000000 cycles: 62167877 heartbeat IPC: 0.958861 cumulative IPC: 0.932926 (Simulation time: 0 hr 27 min 50 sec) 
Heartbeat CPU 1 instructions: 60000000 cycles: 66145657 heartbeat IPC: 0.689623 cumulative IPC: 0.690788 (Simulation time: 0 hr 29 min 20 sec) 
Heartbeat CPU 4 instructions: 100000000 cycles: 69262105 heartbeat IPC: 1.23151 cumulative IPC: 1.21964 (Simulation time: 0 hr 30 min 34 sec) 
Heartbeat CPU 2 instructions: 90000003 cycles: 72727495 heartbeat IPC: 0.947004 cumulative IPC: 0.935407 (Simulation time: 0 hr 31 min 53 sec) 
Heartbeat CPU 7 instructions: 50000001 cycles: 74988024 heartbeat IPC: 0.66313 cumulative IPC: 0.470618 (Simulation time: 0 hr 32 min 46 sec) 
Heartbeat CPU 4 instructions: 110000001 cycles: 76752432 heartbeat IPC: 1.33506 cumulative IPC: 1.23317 (Simulation time: 0 hr 33 min 27 sec) 
Heartbeat CPU 3 instructions: 50000003 cycles: 80659133 heartbeat IPC: 0.440372 cumulative IPC: 0.440082 (Simulation time: 0 hr 34 min 57 sec) 
Heartbeat CPU 1 instructions: 70000000 cycles: 80663076 heartbeat IPC: 0.688828 cumulative IPC: 0.690369 (Simulation time: 0 hr 34 min 57 sec) 
Heartbeat CPU 0 instructions: 50000000 cycles: 82197435 heartbeat IPC: 0.429221 cumulative IPC: 0.4291 (Simulation time: 0 hr 35 min 30 sec) 
Heartbeat CPU 2 instructions: 100000000 cycles: 82842748 heartbeat IPC: 0.988606 cumulative IPC: 0.943093 (Simulation time: 0 hr 35 min 44 sec) 
Heartbeat CPU 5 instructions: 50000001 cycles: 83068250 heartbeat IPC: 0.427298 cumulative IPC: 0.427069 (Simulation time: 0 hr 35 min 49 sec) 
Heartbeat CPU 4 instructions: 120000000 cycles: 85080182 heartbeat IPC: 1.2008 cumulative IPC: 1.22944 (Simulation time: 0 hr 36 min 32 sec) 
Heartbeat CPU 6 instructions: 50000001 cycles: 88413954 heartbeat IPC: 0.372332 cumulative IPC: 0.347243 (Simulation time: 0 hr 37 min 45 sec) 
Heartbeat CPU 7 instructions: 60000000 cycles: 91602549 heartbeat IPC: 0.601883 cumulative IPC: 0.498301 (Simulation time: 0 hr 38 min 54 sec) 
Heartbeat CPU 2 instructions: 110000001 cycles: 93598300 heartbeat IPC: 0.929752 cumulative IPC: 0.941316 (Simulation time: 0 hr 39 min 37 sec) 
Heartbeat CPU 4 instructions: 130000001 cycles: 94005455 heartbeat IPC: 1.12041 cumulative IPC: 1.21745 (Simulation time: 0 hr 39 min 46 sec) 
Heartbeat CPU 1 instructions: 80000000 cycles: 95131578 heartbeat IPC: 0.691157 cumulative IPC: 0.690507 (Simulation time: 0 hr 40 min 9 sec) 
Finished CPU 4 instructions: 100000000 cycles: 82337486 cumulative IPC: 1.21451 (Simulation time: 0 hr 40 min 9 sec) 
Heartbeat CPU 4 instructions: 140000000 cycles: 101995972 heartbeat IPC: 1.25148 cumulative IPC: 1.2205 (Simulation time: 0 hr 42 min 37 sec) 
Heartbeat CPU 3 instructions: 60000000 cycles: 103284052 heartbeat IPC: 0.44199 cumulative IPC: 0.440559 (Simulation time: 0 hr 43 min 5 sec) 
Heartbeat CPU 2 instructions: 120000000 cycles: 103802352 heartbeat IPC: 0.980003 cumulative IPC: 0.945655 (Simulation time: 0 hr 43 min 16 sec) 
Heartbeat CPU 0 instructions: 60000000 cycles: 105604682 heartbeat IPC: 0.427218 cumulative IPC: 0.428625 (Simulation time: 0 hr 43 min 56 sec) 
Heartbeat CPU 5 instructions: 60000000 cycles: 106621441 heartbeat IPC: 0.424571 cumulative IPC: 0.426442 (Simulation time: 0 hr 44 min 18 sec) 
Heartbeat CPU 6 instructions: 60000000 cycles: 107817603 heartbeat IPC: 0.515367 cumulative IPC: 0.381583 (Simulation time: 0 hr 44 min 44 sec) 
Heartbeat CPU 4 instructions: 150000001 cycles: 108802118 heartbeat IPC: 1.46926 cumulative IPC: 1.23814 (Simulation time: 0 hr 45 min 6 sec) 
Heartbeat CPU 1 instructions: 90000000 cycles: 109602904 heartbeat IPC: 0.691022 cumulative IPC: 0.690584 (Simulation time: 0 hr 45 min 23 sec) 
Heartbeat CPU 2 instructions: 130000002 cycles: 113822462 heartbeat IPC: 0.997993 cumulative IPC: 0.950848 (Simulation time: 0 hr 46 min 53 sec) 
Heartbeat CPU 4 instructions: 160000000 cycles: 117473235 heartbeat IPC: 1.15325 cumulative IPC: 1.23111 (Simulation time: 0 hr 48 min 9 sec) 
Finished CPU 2 instructions: 100000000 cycles: 104949254 cumulative IPC: 0.952841 (Simulation time: 0 hr 48 min 15 sec) 
Heartbeat CPU 7 instructions: 70000000 cycles: 117889279 heartbeat IPC: 0.38042 cumulative IPC: 0.468808 (Simulation time: 0 hr 48 min 18 sec) 
Heartbeat CPU 1 instructions: 100000000 cycles: 124084910 heartbeat IPC: 0.690512 cumulative IPC: 0.690575 (Simulation time: 0 hr 50 min 27 sec) 
Heartbeat CPU 2 instructions: 140000000 cycles: 124415438 heartbeat IPC: 0.944022 cumulative IPC: 0.9502 (Simulation time: 0 hr 50 min 34 sec) 
Heartbeat CPU 3 instructions: 70000001 cycles: 125841473 heartbeat IPC: 0.443313 cumulative IPC: 0.441109 (Simulation time: 0 hr 51 min 4 sec) 
Heartbeat CPU 4 instructions: 170000001 cycles: 126765302 heartbeat IPC: 1.07619 cumulative IPC: 1.21847 (Simulation time: 0 hr 51 min 24 sec) 
Heartbeat CPU 0 instructions: 70000000 cycles: 128983332 heartbeat IPC: 0.427741 cumulative IPC: 0.428447 (Simulation time: 0 hr 52 min 10 sec) 
Heartbeat CPU 5 instructions: 70000000 cycles: 130199619 heartbeat IPC: 0.424121 cumulative IPC: 0.425976 (Simulation time: 0 hr 52 min 36 sec) 
Heartbeat CPU 6 instructions: 70000001 cycles: 131020780 heartbeat IPC: 0.430975 cumulative IPC: 0.391279 (Simulation time: 0 hr 52 min 53 sec) 
Heartbeat CPU 2 instructions: 150000001 cycles: 135015396 heartbeat IPC: 0.9434 cumulative IPC: 0.94961 (Simulation time: 0 hr 54 min 33 sec) 
Heartbeat CPU 4 instructions: 180000000 cycles: 135956932 heartbeat IPC: 1.08795 cumulative IPC: 1.20873 (Simulation time: 0 hr 54 min 53 sec) 
Heartbeat CPU 1 instructions: 110000000 cycles: 138544770 heartbeat IPC: 0.69157 cumulative IPC: 0.690689 (Simulation time: 0 hr 55 min 51 sec) 
Heartbeat CPU 4 instructions: 190000002 cycles: 144259086 heartbeat IPC: 1.20451 cumulative IPC: 1.20846 (Simulation time: 0 hr 58 min 3 sec) 
Heartbeat CPU 2 instructions: 160000000 cycles: 145207564 heartbeat IPC: 0.981145 cumulative IPC: 0.952038 (Simulation time: 0 hr 58 min 24 sec) 
Heartbeat CPU 7 instructions: 80000000 cycles: 146072950 heartbeat IPC: 0.354815 cumulative IPC: 0.444698 (Simulation time: 0 hr 58 min 42 sec) 
Heartbeat CPU 3 instructions: 80000000 cycles: 148270100 heartbeat IPC: 0.445859 cumulative IPC: 0.441895 (Simulation time: 0 hr 59 min 29 sec) 
Heartbeat CPU 0 instructions: 80000000 cycles: 152365210 heartbeat IPC: 0.427682 cumulative IPC: 0.428319 (Simulation time: 1 hr 0 min 57 sec) 
Heartbeat CPU 4 instructions: 200000000 cycles: 152614417 heartbeat IPC: 1.19684 cumulative IPC: 1.20777 (Simulation time: 1 hr 1 min 2 sec) 
Heartbeat CPU 1 instructions: 120000000 cycles: 153013028 heartbeat IPC: 0.691168 cumulative IPC: 0.690739 (Simulation time: 1 hr 1 min 11 sec) 
Heartbeat CPU 5 instructions: 80000000 cycles: 153540653 heartbeat IPC: 0.42843 cumulative IPC: 0.426383 (Simulation time: 1 hr 1 min 22 sec) 
Heartbeat CPU 2 instructions: 170000003 cycles: 155630840 heartbeat IPC: 0.959392 cumulative IPC: 0.952574 (Simulation time: 1 hr 2 min 6 sec) 
Finished CPU 1 instructions: 100000001 cycles: 144759764 cumulative IPC: 0.6908 (Simulation time: 1 hr 2 min 48 sec) 
Heartbeat CPU 4 instructions: 210000001 cycles: 160979393 heartbeat IPC: 1.19546 cumulative IPC: 1.20707 (Simulation time: 1 hr 4 min 1 sec) 
Heartbeat CPU 6 instructions: 80000000 cycles: 163856545 heartbeat IPC: 0.304546 cumulative IPC: 0.372423 (Simulation time: 1 hr 5 min 3 sec) 
Heartbeat CPU 2 instructions: 180000000 cycles: 166461194 heartbeat IPC: 0.923331 cumulative IPC: 0.950513 (Simulation time: 1 hr 5 min 59 sec) 
Heartbeat CPU 1 instructions: 130000001 cycles: 167460161 heartbeat IPC: 0.692179 cumulative IPC: 0.690873 (Simulation time: 1 hr 6 min 20 sec) 
Heartbeat CPU 4 instructions: 220000000 cycles: 169397678 heartbeat IPC: 1.18789 cumulative IPC: 1.20604 (Simulation time: 1 hr 7 min 2 sec) 
Heartbeat CPU 3 instructions: 90000000 cycles: 170880528 heartbeat IPC: 0.442274 cumulative IPC: 0.44195 (Simulation time: 1 hr 7 min 34 sec) 
Heartbeat CPU 7 instructions: 90000002 cycles: 173823945 heartbeat IPC: 0.360348 cumulative IPC: 0.430159 (Simulation time: 1 hr 8 min 38 sec) 
Heartbeat CPU 0 instructions: 90000002 cycles: 175679160 heartbeat IPC: 0.428928 cumulative IPC: 0.428406 (Simulation time: 1 hr 9 min 18 sec) 
Heartbeat CPU 5 instructions: 90000000 cycles: 177013852 heartbeat IPC: 0.426018 cumulative IPC: 0.426331 (Simulation time: 1 hr 9 min 47 sec) 
Heartbeat CPU 2 instructions: 190000000 cycles: 177083420 heartbeat IPC: 0.941422 cumulative IPC: 0.949925 (Simulation time: 1 hr 9 min 48 sec) 
Heartbeat CPU 4 instructions: 230000003 cycles: 177872883 heartbeat IPC: 1.17991 cumulative IPC: 1.2047 (Simulation time: 1 hr 10 min 5 sec) 
Heartbeat CPU 1 instructions: 140000000 cycles: 181902744 heartbeat IPC: 0.692397 cumulative IPC: 0.691003 (Simulation time: 1 hr 11 min 33 sec) 
Heartbeat CPU 4 instructions: 240000000 cycles: 186313445 heartbeat IPC: 1.18475 cumulative IPC: 1.20373 (Simulation time: 1 hr 13 min 9 sec) 
Heartbeat CPU 2 instructions: 200000000 cycles: 187495833 heartbeat IPC: 0.960392 cumulative IPC: 0.950549 (Simulation time: 1 hr 13 min 35 sec) 
Heartbeat CPU 6 instructions: 90000001 cycles: 192787080 heartbeat IPC: 0.345656 cumulative IPC: 0.36812 (Simulation time: 1 hr 15 min 30 sec) 
Heartbeat CPU 3 instructions: 100000000 cycles: 193897202 heartbeat IPC: 0.434468 cumulative IPC: 0.440998 (Simulation time: 1 hr 15 min 54 sec) 
Heartbeat CPU 4 instructions: 250000003 cycles: 194642688 heartbeat IPC: 1.20059 cumulative IPC: 1.20359 (Simulation time: 1 hr 16 min 10 sec) 
Heartbeat CPU 1 instructions: 150000001 cycles: 196352126 heartbeat IPC: 0.692071 cumulative IPC: 0.691087 (Simulation time: 1 hr 16 min 47 sec) 
Heartbeat CPU 2 instructions: 210000001 cycles: 197574214 heartbeat IPC: 0.992223 cumulative IPC: 0.952822 (Simulation time: 1 hr 17 min 14 sec) 
Heartbeat CPU 7 instructions: 100000000 cycles: 198711433 heartbeat IPC: 0.401808 cumulative IPC: 0.426363 (Simulation time: 1 hr 17 min 39 sec) 
Heartbeat CPU 0 instructions: 100000000 cycles: 198958120 heartbeat IPC: 0.429572 cumulative IPC: 0.428552 (Simulation time: 1 hr 17 min 44 sec) 
Heartbeat CPU 5 instructions: 100000000 cycles: 200338179 heartbeat IPC: 0.428737 cumulative IPC: 0.42663 (Simulation time: 1 hr 18 min 14 sec) 
Heartbeat CPU 4 instructions: 260000000 cycles: 202148449 heartbeat IPC: 1.33231 cumulative IPC: 1.20869 (Simulation time: 1 hr 18 min 52 sec) 
Heartbeat CPU 2 instructions: 220000000 cycles: 208177005 heartbeat IPC: 0.943148 cumulative IPC: 0.952297 (Simulation time: 1 hr 20 min 59 sec) 
Heartbeat CPU 1 instructions: 160000000 cycles: 210809016 heartbeat IPC: 0.691712 cumulative IPC: 0.691133 (Simulation time: 1 hr 21 min 54 sec) 
Heartbeat CPU 4 instructions: 270000001 cycles: 211549068 heartbeat IPC: 1.06376 cumulative IPC: 1.20183 (Simulation time: 1 hr 22 min 9 sec) 
Heartbeat CPU 3 instructions: 110000003 cycles: 217048695 heartbeat IPC: 0.431938 cumulative IPC: 0.439971 (Simulation time: 1 hr 24 min 1 sec) 
Heartbeat CPU 2 instructions: 230000003 cycles: 218194958 heartbeat IPC: 0.998208 cumulative IPC: 0.954537 (Simulation time: 1 hr 24 min 25 sec) 
Heartbeat CPU 4 instructions: 280000000 cycles: 219781155 heartbeat IPC: 1.21476 cumulative IPC: 1.20235 (Simulation time: 1 hr 24 min 59 sec) 
Heartbeat CPU 7 instructions: 110000000 cycles: 220874027 heartbeat IPC: 0.451211 cumulative IPC: 0.42901 (Simulation time: 1 hr 25 min 22 sec) 
Heartbeat CPU 0 instructions: 110000000 cycles: 222016182 heartbeat IPC: 0.433688 cumulative IPC: 0.429118 (Simulation time: 1 hr 25 min 46 sec) 
Heartbeat CPU 5 instructions: 110000001 cycles: 223556166 heartbeat IPC: 0.430701 cumulative IPC: 0.427078 (Simulation time: 1 hr 26 min 20 sec) 
Heartbeat CPU 1 instructions: 170000002 cycles: 225285146 heartbeat IPC: 0.690793 cumulative IPC: 0.69111 (Simulation time: 1 hr 26 min 58 sec) 
Heartbeat CPU 6 instructions: 100000000 cycles: 225592704 heartbeat IPC: 0.304826 cumulative IPC: 0.358361 (Simulation time: 1 hr 27 min 4 sec) 
Heartbeat CPU 4 instructions: 290000000 cycles: 227346539 heartbeat IPC: 1.32181 cumulative IPC: 1.20656 (Simulation time: 1 hr 27 min 43 sec) 
Heartbeat CPU 2 instructions: 240000000 cycles: 228740567 heartbeat IPC: 0.948262 cumulative IPC: 0.95423 (Simulation time: 1 hr 28 min 13 sec) 
Heartbeat CPU 7 instructions: 120000000 cycles: 234683947 heartbeat IPC: 0.724117 cumulative IPC: 0.447379 (Simulation time: 1 hr 30 min 17 sec) 
Finished CPU 7 instructions: 100000002 cycles: 223029974 cumulative IPC: 0.44837 (Simulation time: 1 hr 30 min 40 sec) 
Heartbeat CPU 4 instructions: 300000000 cycles: 235862514 heartbeat IPC: 1.17426 cumulative IPC: 1.20533 (Simulation time: 1 hr 30 min 41 sec) 
Heartbeat CPU 2 instructions: 250000000 cycles: 239231610 heartbeat IPC: 0.953194 cumulative IPC: 0.954182 (Simulation time: 1 hr 31 min 50 sec) 
Heartbeat CPU 1 instructions: 180000000 cycles: 239737028 heartbeat IPC: 0.691951 cumulative IPC: 0.691163 (Simulation time: 1 hr 32 min 0 sec) 
Heartbeat CPU 3 instructions: 120000000 cycles: 240194969 heartbeat IPC: 0.432035 cumulative IPC: 0.439163 (Simulation time: 1 hr 32 min 10 sec) 
Finished CPU 3 instructions: 100000000 cycles: 227712096 cumulative IPC: 0.439151 (Simulation time: 1 hr 32 min 17 sec) 
Heartbeat CPU 4 instructions: 310000000 cycles: 245160438 heartbeat IPC: 1.07551 cumulative IPC: 1.20013 (Simulation time: 1 hr 33 min 50 sec) 
Heartbeat CPU 5 instructions: 120000000 cycles: 246715022 heartbeat IPC: 0.4318 cumulative IPC: 0.427546 (Simulation time: 1 hr 34 min 21 sec) 
Finished CPU 5 instructions: 100000001 cycles: 233892975 cumulative IPC: 0.427546 (Simulation time: 1 hr 34 min 21 sec) 
Heartbeat CPU 0 instructions: 120000000 cycles: 248274793 heartbeat IPC: 0.380827 cumulative IPC: 0.423732 (Simulation time: 1 hr 34 min 51 sec) 
Finished CPU 0 instructions: 100000000 cycles: 236009275 cumulative IPC: 0.423712 (Simulation time: 1 hr 35 min 2 sec) 
Heartbeat CPU 2 instructions: 260000000 cycles: 249429691 heartbeat IPC: 0.980577 cumulative IPC: 0.95532 (Simulation time: 1 hr 35 min 14 sec) 
Heartbeat CPU 4 instructions: 320000000 cycles: 253446474 heartbeat IPC: 1.20685 cumulative IPC: 1.20036 (Simulation time: 1 hr 36 min 33 sec) 
Heartbeat CPU 1 instructions: 190000000 cycles: 254215952 heartbeat IPC: 0.690659 cumulative IPC: 0.691133 (Simulation time: 1 hr 36 min 48 sec) 
Heartbeat CPU 7 instructions: 130000000 cycles: 254694016 heartbeat IPC: 0.499748 cumulative IPC: 0.451712 (Simulation time: 1 hr 36 min 58 sec) 
Heartbeat CPU 6 instructions: 110000002 cycles: 255350687 heartbeat IPC: 0.336044 cumulative IPC: 0.355623 (Simulation time: 1 hr 37 min 11 sec) 
Heartbeat CPU 2 instructions: 270000002 cycles: 259920361 heartbeat IPC: 0.953228 cumulative IPC: 0.955231 (Simulation time: 1 hr 38 min 42 sec) 
Heartbeat CPU 4 instructions: 330000002 cycles: 260412145 heartbeat IPC: 1.43561 cumulative IPC: 1.20698 (Simulation time: 1 hr 38 min 52 sec) 
Heartbeat CPU 3 instructions: 130000002 cycles: 262897497 heartbeat IPC: 0.44048 cumulative IPC: 0.439283 (Simulation time: 1 hr 39 min 44 sec) 
Heartbeat CPU 1 instructions: 200000000 cycles: 268704642 heartbeat IPC: 0.690194 cumulative IPC: 0.69108 (Simulation time: 1 hr 41 min 43 sec) 
Heartbeat CPU 4 instructions: 340000000 cycles: 269213378 heartbeat IPC: 1.1362 cumulative IPC: 1.20455 (Simulation time: 1 hr 41 min 54 sec) 
Heartbeat CPU 5 instructions: 130000002 cycles: 270194361 heartbeat IPC: 0.425906 cumulative IPC: 0.427396 (Simulation time: 1 hr 42 min 14 sec) 
Heartbeat CPU 2 instructions: 280000000 cycles: 270234336 heartbeat IPC: 0.969558 cumulative IPC: 0.955805 (Simulation time: 1 hr 42 min 15 sec) 
Heartbeat CPU 0 instructions: 130000001 cycles: 271549242 heartbeat IPC: 0.429656 cumulative IPC: 0.424265 (Simulation time: 1 hr 42 min 43 sec) 
Heartbeat CPU 4 instructions: 350000000 cycles: 278541647 heartbeat IPC: 1.07201 cumulative IPC: 1.1999 (Simulation time: 1 hr 45 min 10 sec) 
Heartbeat CPU 2 instructions: 290000003 cycles: 280256884 heartbeat IPC: 0.997751 cumulative IPC: 0.957377 (Simulation time: 1 hr 45 min 46 sec) 
Heartbeat CPU 7 instructions: 140000000 cycles: 282406783 heartbeat IPC: 0.360845 cumulative IPC: 0.442371 (Simulation time: 1 hr 46 min 31 sec) 
Heartbeat CPU 6 instructions: 120000000 cycles: 282674616 heartbeat IPC: 0.365979 cumulative IPC: 0.356672 (Simulation time: 1 hr 46 min 37 sec) 
Heartbeat CPU 1 instructions: 210000002 cycles: 283172980 heartbeat IPC: 0.691165 cumulative IPC: 0.691084 (Simulation time: 1 hr 46 min 47 sec) 
Heartbeat CPU 3 instructions: 140000000 cycles: 285460019 heartbeat IPC: 0.443213 cumulative IPC: 0.439608 (Simulation time: 1 hr 47 min 35 sec) 
Heartbeat CPU 4 instructions: 360000000 cycles: 287999486 heartbeat IPC: 1.05732 cumulative IPC: 1.195 (Simulation time: 1 hr 48 min 27 sec) 
Heartbeat CPU 2 instructions: 300000000 cycles: 290452629 heartbeat IPC: 0.980801 cumulative IPC: 0.958237 (Simulation time: 1 hr 49 min 18 sec) 
Finished CPU 6 instructions: 100000000 cycles: 278868992 cumulative IPC: 0.358591 (Simulation time: 1 hr 49 min 45 sec) 

CPU 0 Branch Prediction Accuracy: 84.7039% MPKI: 16.0241

CPU 1 Branch Prediction Accuracy: 99.9549% MPKI: 0.0331161

CPU 2 Branch Prediction Accuracy: 99.5545% MPKI: 0.635996

CPU 3 Branch Prediction Accuracy: 85.3247% MPKI: 16.6241

CPU 4 Branch Prediction Accuracy: 97.8187% MPKI: 3.23491

CPU 5 Branch Prediction Accuracy: 84.444% MPKI: 16.4203

CPU 6 Branch Prediction Accuracy: 99.2184% MPKI: 1.75832

CPU 7 Branch Prediction Accuracy: 99.1927% MPKI: 1.98679

ChampSim completed all CPUs

Total Simulation Statistics (not including warmup)

CPU 0 cumulative IPC: 0.424863 instructions: 118481113 cycles: 278868991
L1D TOTAL     ACCESS:   39677287  HIT:   39286013  MISS:     391274
L1D LOAD      ACCESS:   25969757  HIT:   25645014  MISS:     324743
L1D RFO       ACCESS:   13707530  HIT:   13640999  MISS:      66531
L1D PREFETCH  ACCESS:          0  HIT:          0  MISS:          0
L1D WRITEBACK ACCESS:          0  HIT:          0  MISS:          0
L1I TOTAL     ACCESS:   27169664  HIT:   27162426  MISS:       7238
L1I LOAD      ACCESS:   27169664  HIT:   27162426  MISS:       7238
L1I RFO       ACCESS:          0  HIT:          0  MISS:          0
L1I PREFETCH  ACCESS:          0  HIT:          0  MISS:          0
L1I WRITEBACK ACCESS:          0  HIT:          0  MISS:          0
L2C TOTAL     ACCESS:     526081  HIT:     443240  MISS:      82841
L2C LOAD      ACCESS:     331981  HIT:     312823  MISS:      19158
L2C RFO       ACCESS:      66531  HIT:      33468  MISS:      33063
L2C PREFETCH  ACCESS:      32932  HIT:       2347  MISS:      30585
L2C WRITEBACK ACCESS:      94637  HIT:      94602  MISS:         35

L2C DA-AMPM prefetcher final stats
LLC TOTAL     ACCESS:     118534  HIT:      59891  MISS:      58643
LLC LOAD      ACCESS:      18307  HIT:      11050  MISS:       7257
LLC RFO       ACCESS:      33063  HIT:        945  MISS:      32118
LLC PREFETCH  ACCESS:      31436  HIT:      13696  MISS:      17740
LLC WRITEBACK ACCESS:      35728  HIT:      34200  MISS:       1528

CPU 1 cumulative IPC: 0.691084 instructions: 192721987 cycles: 278868991
L1D TOTAL     ACCESS:   63287544  HIT:   62288638  MISS:     998906
L1D LOAD      ACCESS:   41965991  HIT:   40968612  MISS:     997379
L1D RFO       ACCESS:   21321553  HIT:   21320026  MISS:       1527
L1D PREFETCH  ACCESS:          0  HIT:          0  MISS:          0
L1D WRITEBACK ACCESS:          0  HIT:          0  MISS:          0
L1I TOTAL     ACCESS:   74373262  HIT:   74373262  MISS:          0
L1I LOAD      ACCESS:   74373262  HIT:   74373262  MISS:          0
L1I RFO       ACCESS:          0  HIT:          0  MISS:          0
L1I PREFETCH  ACCESS:          0  HIT:          0  MISS:          0
L1I WRITEBACK ACCESS:          0  HIT:          0  MISS:          0
L2C TOTAL     ACCESS:    1334369  HIT:    1273064  MISS:      61305
L2C LOAD      ACCESS:     997378  HIT:     975580  MISS:      21798
L2C RFO       ACCESS:       1527  HIT:       1227  MISS:        300
L2C PREFETCH  ACCESS:      39399  HIT:        192  MISS:      39207
L2C WRITEBACK ACCESS:     296065  HIT:     296065  MISS:          0

L2C DA-AMPM prefetcher final stats
LLC TOTAL     ACCESS:      67750  HIT:      19330  MISS:      48420
LLC LOAD      ACCESS:      21796  HIT:      13448  MISS:       8348
LLC RFO       ACCESS:        300  HIT:        236  MISS:         64
LLC PREFETCH  ACCESS:      39207  HIT:          6  MISS:      39201
LLC WRITEBACK ACCESS:       6447  HIT:       5640  MISS:        807

CPU 2 cumulative IPC: 0.958442 instructions: 267279894 cycles: 278868991
L1D TOTAL     ACCESS:   48664228  HIT:   48623427  MISS:      40801
L1D LOAD      ACCESS:   28868513  HIT:   28844340  MISS:      24173
L1D RFO       ACCESS:   19795715  HIT:   19779087  MISS:      16628
L1D PREFETCH  ACCESS:          0  HIT:          0  MISS:          0
L1D WRITEBACK ACCESS:          0  HIT:          0  MISS:          0
L1I TOTAL     ACCESS:   77694985  HIT:   77694985  MISS:          0
L1I LOAD      ACCESS:   77694985  HIT:   77694985  MISS:          0
L1I RFO       ACCESS:          0  HIT:          0  MISS:          0
L1I PREFETCH  ACCESS:          0  HIT:          0  MISS:          0
L1I WRITEBACK ACCESS:          0  HIT:          0  MISS:          0
L2C TOTAL     ACCESS:      80740  HIT:      38745  MISS:      41995
L2C LOAD      ACCESS:      24173  HIT:      21105  MISS:       3068
L2C RFO       ACCESS:      16628  HIT:        792  MISS:      15836
L2C PREFETCH  ACCESS:      23282  HIT:        198  MISS:      23084
L2C WRITEBACK ACCESS:      16657  HIT:      16650  MISS:          7

L2C DA-AMPM prefetcher final stats
LLC TOTAL     ACCESS:      57580  HIT:      13922  MISS:      43658
LLC LOAD      ACCESS:       2765  HIT:         11  MISS:       2754
LLC RFO       ACCESS:      15836  HIT:         53  MISS:      15783
LLC PREFETCH  ACCESS:      23387  HIT:          1  MISS:      23386
LLC WRITEBACK ACCESS:      15592  HIT:      13857  MISS:       1735

CPU 3 cumulative IPC: 0.439683 instructions: 122613838 cycles: 278868991
L1D TOTAL     ACCESS:   38916065  HIT:   38342734  MISS:     573331
L1D LOAD      ACCESS:   24840447  HIT:   24391154  MISS:     449293
L1D RFO       ACCESS:   14075618  HIT:   13951580  MISS:     124038
L1D PREFETCH  ACCESS:          0  HIT:          0  MISS:          0
L1D WRITEBACK ACCESS:          0  HIT:          0  MISS:          0
L1I TOTAL     ACCESS:   28925721  HIT:   28894057  MISS:      31664
L1I LOAD      ACCESS:   28925721  HIT:   28894057  MISS:      31664
L1I RFO       ACCESS:          0  HIT:          0  MISS:          0
L1I PREFETCH  ACCESS:          0  HIT:          0  MISS:          0
L1I WRITEBACK ACCESS:          0  HIT:          0  MISS:          0
L2C TOTAL     ACCESS:     841167  HIT:     833738  MISS:       7429
L2C LOAD      ACCESS:     480956  HIT:     475931  MISS:       5025
L2C RFO       ACCESS:     124038  HIT:     123263  MISS:        775
L2C PREFETCH  ACCESS:       3732  HIT:       2146  MISS:       1586
L2C WRITEBACK ACCESS:     232441  HIT:     232398  MISS:         43

L2C DA-AMPM prefetcher final stats
LLC TOTAL     ACCESS:       8829  HIT:       3157  MISS:       5672
LLC LOAD      ACCESS:       4883  HIT:       2197  MISS:       2686
LLC RFO       ACCESS:        775  HIT:         50  MISS:        725
LLC PREFETCH  ACCESS:       1728  HIT:        241  MISS:       1487
LLC WRITEBACK ACCESS:       1443  HIT:        669  MISS:        774

CPU 4 cumulative IPC: 1.19487 instructions: 333210939 cycles: 278868991
L1D TOTAL     ACCESS:   59959025  HIT:   54554212  MISS:    5404813
L1D LOAD      ACCESS:   42665618  HIT:   39153619  MISS:    3511999
L1D RFO       ACCESS:   17293407  HIT:   15400593  MISS:    1892814
L1D PREFETCH  ACCESS:          0  HIT:          0  MISS:          0
L1D WRITEBACK ACCESS:          0  HIT:          0  MISS:          0
L1I TOTAL     ACCESS:   80814789  HIT:   80665263  MISS:     149526
L1I LOAD      ACCESS:   80814789  HIT:   80665263  MISS:     149526
L1I RFO       ACCESS:          0  HIT:          0  MISS:          0
L1I PREFETCH  ACCESS:          0  HIT:          0  MISS:          0
L1I WRITEBACK ACCESS:          0  HIT:          0  MISS:          0
L2C TOTAL     ACCESS:    9424907  HIT:    6587962  MISS:    2836945
L2C LOAD      ACCESS:    3661290  HIT:    3020733  MISS:     640557
L2C RFO       ACCESS:    1892716  HIT:     976001  MISS:     916715
L2C PREFETCH  ACCESS:    1490927  HIT:     213088  MISS:    1277839
L2C WRITEBACK ACCESS:    2379974  HIT:    2378140  MISS:       1834

L2C DA-AMPM prefetcher final stats
LLC TOTAL     ACCESS:    4098124  HIT:    3268294  MISS:     829830
LLC LOAD      ACCESS:     594328  HIT:     549448  MISS:      44880
LLC RFO       ACCESS:     916698  HIT:     505983  MISS:     410715
LLC PREFETCH  ACCESS:    1324072  HIT:     949837  MISS:     374235
LLC WRITEBACK ACCESS:    1263026  HIT:    1263026  MISS:          0

CPU 5 cumulative IPC: 0.427381 instructions: 119183199 cycles: 278868991
L1D TOTAL     ACCESS:   40031654  HIT:   39740866  MISS:     290788
L1D LOAD      ACCESS:   26166606  HIT:   25907417  MISS:     259189
L1D RFO       ACCESS:   13865048  HIT:   13833449  MISS:      31599
L1D PREFETCH  ACCESS:          0  HIT:          0  MISS:          0
L1D WRITEBACK ACCESS:          0  HIT:          0  MISS:          0
L1I TOTAL     ACCESS:   27168678  HIT:   27161810  MISS:       6868
L1I LOAD      ACCESS:   27168678  HIT:   27161810  MISS:       6868
L1I RFO       ACCESS:          0  HIT:          0  MISS:          0
L1I PREFETCH  ACCESS:          0  HIT:          0  MISS:          0
L1I WRITEBACK ACCESS:          0  HIT:          0  MISS:          0
L2C TOTAL     ACCESS:     357547  HIT:     345694  MISS:      11853
L2C LOAD      ACCESS:     266057  HIT:     257530  MISS:       8527
L2C RFO       ACCESS:      31598  HIT:      30704  MISS:        894
L2C PREFETCH  ACCESS:       3525  HIT:       1150  MISS:       2375
L2C WRITEBACK ACCESS:      56367  HIT:      56310  MISS:         57

L2C DA-AMPM prefetcher final stats
LLC TOTAL     ACCESS:      13167  HIT:       5703  MISS:       7464
LLC LOAD      ACCESS:       8347  HIT:       4812  MISS:       3535
LLC RFO       ACCESS:        894  HIT:        158  MISS:        736
LLC PREFETCH  ACCESS:       2555  HIT:         24  MISS:       2531
LLC WRITEBACK ACCESS:       1371  HIT:        709  MISS:        662

CPU 6 cumulative IPC: 0.358591 instructions: 100000000 cycles: 278868992
L1D TOTAL     ACCESS:   27506244  HIT:   22304309  MISS:    5201935
L1D LOAD      ACCESS:   19129125  HIT:   14098973  MISS:    5030152
L1D RFO       ACCESS:    8377119  HIT:    8205336  MISS:     171783
L1D PREFETCH  ACCESS:          0  HIT:          0  MISS:          0
L1D WRITEBACK ACCESS:          0  HIT:          0  MISS:          0
L1I TOTAL     ACCESS:   42873541  HIT:   42565585  MISS:     307956
L1I LOAD      ACCESS:   42873541  HIT:   42565585  MISS:     307956
L1I RFO       ACCESS:          0  HIT:          0  MISS:          0
L1I PREFETCH  ACCESS:          0  HIT:          0  MISS:          0
L1I WRITEBACK ACCESS:          0  HIT:          0  MISS:          0
L2C TOTAL     ACCESS:    6680962  HIT:    3672953  MISS:    3008009
L2C LOAD      ACCESS:    5338090  HIT:    2917657  MISS:    2420433
L2C RFO       ACCESS:     171777  HIT:      32821  MISS:     138956
L2C PREFETCH  ACCESS:     895258  HIT:     446804  MISS:     448454
L2C WRITEBACK ACCESS:     275837  HIT:     275671  MISS:        166

L2C DA-AMPM prefetcher final stats
LLC TOTAL     ACCESS:    3204677  HIT:    3066861  MISS:     137816
LLC LOAD      ACCESS:    2407811  HIT:    2391628  MISS:      16183
LLC RFO       ACCESS:     138744  HIT:      30644  MISS:     108100
LLC PREFETCH  ACCESS:     461287  HIT:     448006  MISS:      13281
LLC WRITEBACK ACCESS:     196835  HIT:     196583  MISS:        252

CPU 7 cumulative IPC: 0.440725 instructions: 122904557 cycles: 278868992
L1D TOTAL     ACCESS:   32309663  HIT:   27373712  MISS:    4935951
L1D LOAD      ACCESS:   22248245  HIT:   17533922  MISS:    4714323
L1D RFO       ACCESS:   10061418  HIT:    9839790  MISS:     221628
L1D PREFETCH  ACCESS:          0  HIT:          0  MISS:          0
L1D WRITEBACK ACCESS:          0  HIT:          0  MISS:          0
L1I TOTAL     ACCESS:   52964875  HIT:   52606557  MISS:     358318
L1I LOAD      ACCESS:   52964875  HIT:   52606557  MISS:     358318
L1I RFO       ACCESS:          0  HIT:          0  MISS:          0
L1I PREFETCH  ACCESS:          0  HIT:          0  MISS:          0
L1I WRITEBACK ACCESS:          0  HIT:          0  MISS:          0
L2C TOTAL     ACCESS:    6604163  HIT:    5627623  MISS:     976540
L2C LOAD      ACCESS:    5072618  HIT:    4419998  MISS:     652620
L2C RFO       ACCESS:     221625  HIT:      59842  MISS:     161783
L2C PREFETCH  ACCESS:     937766  HIT:     775818  MISS:     161948
L2C WRITEBACK ACCESS:     372154  HIT:     371965  MISS:        189

L2C DA-AMPM prefetcher final stats
LLC TOTAL     ACCESS:    1194530  HIT:    1011496  MISS:     183034
LLC LOAD      ACCESS:     649395  HIT:     628820  MISS:      20575
LLC RFO       ACCESS:     161318  HIT:      23299  MISS:     138019
LLC PREFETCH  ACCESS:     165629  HIT:     142715  MISS:      22914
LLC WRITEBACK ACCESS:     218188  HIT:     216662  MISS:       1526

Region of Interest Statistics

CPU 0 cumulative IPC: 0.423712 instructions: 100000000 cycles: 236009275
L1D TOTAL     ACCESS:   33524848  HIT:   33184716  MISS:     340132
L1D LOAD      ACCESS:   21932835  HIT:   21653727  MISS:     279108
L1D RFO       ACCESS:   11592013  HIT:   11530989  MISS:      61024
L1D PREFETCH  ACCESS:          0  HIT:          0  MISS:          0
L1D WRITEBACK ACCESS:          0  HIT:          0  MISS:          0
L1D PREFETCH  REQUESTED:          0  ISSUED:          0  USEFUL:          0  USELESS:          0
L1I TOTAL     ACCESS:   22947060  HIT:   22940897  MISS:       6163
L1I LOAD      ACCESS:   22947060  HIT:   22940897  MISS:       6163
L1I RFO       ACCESS:          0  HIT:          0  MISS:          0
L1I PREFETCH  ACCESS:          0  HIT:          0  MISS:          0
L1I WRITEBACK ACCESS:          0  HIT:          0  MISS:          0
L1I PREFETCH  REQUESTED:          0  ISSUED:          0  USEFUL:          0  USELESS:          0
L2C TOTAL     ACCESS:     463581  HIT:     382955  MISS:      80626
L2C LOAD      ACCESS:     285271  HIT:     267681  MISS:      17590
L2C RFO       ACCESS:      61024  HIT:      27974  MISS:      33050
L2C PREFETCH  ACCESS:      32298  HIT:       2345  MISS:      29953
L2C WRITEBACK ACCESS:      84988  HIT:      84955  MISS:         33
L2C PREFETCH  REQUESTED:      39378  ISSUED:      39378  USEFUL:      28002  USELESS:       5051
LLC TOTAL     ACCESS:     115941  HIT:      58578  MISS:      57363
LLC LOAD      ACCESS:      16739  HIT:      10153  MISS:       6586
LLC RFO       ACCESS:      33050  HIT:        932  MISS:      32118
LLC PREFETCH  ACCESS:      30804  HIT:      13663  MISS:      17141
LLC WRITEBACK ACCESS:      35348  HIT:      33830  MISS:       1518
LLC PREFETCH  REQUESTED:          0  ISSUED:          0  USEFUL:     117387  USELESS:     441294
Major fault: 0 Minor fault: 1359

CPU 1 cumulative IPC: 0.6908 instructions: 100000001 cycles: 144759764
L1D TOTAL     ACCESS:   32835634  HIT:   32317857  MISS:     517777
L1D LOAD      ACCESS:   21769846  HIT:   21253132  MISS:     516714
L1D RFO       ACCESS:   11065788  HIT:   11064725  MISS:       1063
L1D PREFETCH  ACCESS:          0  HIT:          0  MISS:          0
L1D WRITEBACK ACCESS:          0  HIT:          0  MISS:          0
L1D PREFETCH  REQUESTED:          0  ISSUED:          0  USEFUL:          0  USELESS:          0
L1I TOTAL     ACCESS:   38536756  HIT:   38536756  MISS:          0
L1I LOAD      ACCESS:   38536756  HIT:   38536756  MISS:          0
L1I RFO       ACCESS:          0  HIT:          0  MISS:          0
L1I PREFETCH  ACCESS:          0  HIT:          0  MISS:          0
L1I WRITEBACK ACCESS:          0  HIT:          0  MISS:          0
L1I PREFETCH  REQUESTED:          0  ISSUED:          0  USEFUL:          0  USELESS:          0
L2C TOTAL     ACCESS:     691240  HIT:     659242  MISS:      31998
L2C LOAD      ACCESS:     516713  HIT:     505415  MISS:      11298
L2C RFO       ACCESS:       1063  HIT:        822  MISS:        241
L2C PREFETCH  ACCESS:      20563  HIT:        104  MISS:      20459
L2C WRITEBACK ACCESS:     152901  HIT:     152901  MISS:          0
L2C PREFETCH  REQUESTED:      47350  ISSUED:      47350  USEFUL:      34772  USELESS:      10539
LLC TOTAL     ACCESS:      35532  HIT:       9879  MISS:      25653
LLC LOAD      ACCESS:      11296  HIT:       6530  MISS:       4766
LLC RFO       ACCESS:        241  HIT:        215  MISS:         26
LLC PREFETCH  ACCESS:      20459  HIT:          6  MISS:      20453
LLC WRITEBACK ACCESS:       3536  HIT:       3128  MISS:        408
LLC PREFETCH  REQUESTED:          0  ISSUED:          0  USEFUL:     117387  USELESS:     441294
Major fault: 0 Minor fault: 1679

CPU 2 cumulative IPC: 0.952841 instructions: 100000000 cycles: 104949254
L1D TOTAL     ACCESS:   18311397  HIT:   18294366  MISS:      17031
L1D LOAD      ACCESS:   10874775  HIT:   10864679  MISS:      10096
L1D RFO       ACCESS:    7436622  HIT:    7429687  MISS:       6935
L1D PREFETCH  ACCESS:          0  HIT:          0  MISS:          0
L1D WRITEBACK ACCESS:          0  HIT:          0  MISS:          0
L1D PREFETCH  REQUESTED:          0  ISSUED:          0  USEFUL:          0  USELESS:          0
L1I TOTAL     ACCESS:   29269393  HIT:   29269393  MISS:          0
L1I LOAD      ACCESS:   29269393  HIT:   29269393  MISS:          0
L1I RFO       ACCESS:          0  HIT:          0  MISS:          0
L1I PREFETCH  ACCESS:          0  HIT:          0  MISS:          0
L1I WRITEBACK ACCESS:          0  HIT:          0  MISS:          0
L1I PREFETCH  REQUESTED:          0  ISSUED:          0  USEFUL:          0  USELESS:          0
L2C TOTAL     ACCESS:      33848  HIT:      16147  MISS:      17701
L2C LOAD      ACCESS:      10096  HIT:       8809  MISS:       1287
L2C RFO       ACCESS:       6935  HIT:        303  MISS:       6632
L2C PREFETCH  ACCESS:       9867  HIT:         86  MISS:       9781
L2C WRITEBACK ACCESS:       6950  HIT:       6949  MISS:          1
L2C PREFETCH  REQUESTED:      26496  ISSUED:      26496  USEFUL:      22926  USELESS:       2119
LLC TOTAL     ACCESS:      24265  HIT:       6131  MISS:      18134
LLC LOAD      ACCESS:       1189  HIT:          4  MISS:       1185
LLC RFO       ACCESS:       6632  HIT:         40  MISS:       6592
LLC PREFETCH  ACCESS:       9879  HIT:          1  MISS:       9878
LLC WRITEBACK ACCESS:       6565  HIT:       6086  MISS:        479
LLC PREFETCH  REQUESTED:          0  ISSUED:          0  USEFUL:     117387  USELESS:     441294
Major fault: 0 Minor fault: 1019

CPU 3 cumulative IPC: 0.439151 instructions: 100000000 cycles: 227712096
L1D TOTAL     ACCESS:   31789395  HIT:   31328843  MISS:     460552
L1D LOAD      ACCESS:   20293098  HIT:   19932613  MISS:     360485
L1D RFO       ACCESS:   11496297  HIT:   11396230  MISS:     100067
L1D PREFETCH  ACCESS:          0  HIT:          0  MISS:          0
L1D WRITEBACK ACCESS:          0  HIT:          0  MISS:          0
L1D PREFETCH  REQUESTED:          0  ISSUED:          0  USEFUL:          0  USELESS:          0
L1I TOTAL     ACCESS:   23580956  HIT:   23555032  MISS:      25924
L1I LOAD      ACCESS:   23580956  HIT:   23555032  MISS:      25924
L1I RFO       ACCESS:          0  HIT:          0  MISS:          0
L1I PREFETCH  ACCESS:          0  HIT:          0  MISS:          0
L1I WRITEBACK ACCESS:          0  HIT:          0  MISS:          0
L1I PREFETCH  REQUESTED:          0  ISSUED:          0  USEFUL:          0  USELESS:          0
L2C TOTAL     ACCESS:     675011  HIT:     669359  MISS:       5652
L2C LOAD      ACCESS:     386408  HIT:     382583  MISS:       3825
L2C RFO       ACCESS:     100067  HIT:      99471  MISS:        596
L2C PREFETCH  ACCESS:       2315  HIT:       1120  MISS:       1195
L2C WRITEBACK ACCESS:     186221  HIT:     186185  MISS:         36
L2C PREFETCH  REQUESTED:       6033  ISSUED:       6033  USEFUL:       1420  USELESS:       1519
LLC TOTAL     ACCESS:       6579  HIT:       2190  MISS:       4389
LLC LOAD      ACCESS:       3733  HIT:       1658  MISS:       2075
LLC RFO       ACCESS:        596  HIT:         40  MISS:        556
LLC PREFETCH  ACCESS:       1287  HIT:         74  MISS:       1213
LLC WRITEBACK ACCESS:        963  HIT:        418  MISS:        545
LLC PREFETCH  REQUESTED:          0  ISSUED:          0  USEFUL:     117387  USELESS:     441294
Major fault: 0 Minor fault: 691

CPU 4 cumulative IPC: 1.21451 instructions: 100000000 cycles: 82337486
L1D TOTAL     ACCESS:   18963100  HIT:   17082633  MISS:    1880467
L1D LOAD      ACCESS:   13681143  HIT:   12482822  MISS:    1198321
L1D RFO       ACCESS:    5281957  HIT:    4599811  MISS:     682146
L1D PREFETCH  ACCESS:          0  HIT:          0  MISS:          0
L1D WRITEBACK ACCESS:          0  HIT:          0  MISS:          0
L1D PREFETCH  REQUESTED:          0  ISSUED:          0  USEFUL:          0  USELESS:          0
L1I TOTAL     ACCESS:   23305594  HIT:   23257516  MISS:      48078
L1I LOAD      ACCESS:   23305594  HIT:   23257516  MISS:      48078
L1I RFO       ACCESS:          0  HIT:          0  MISS:          0
L1I PREFETCH  ACCESS:          0  HIT:          0  MISS:          0
L1I WRITEBACK ACCESS:          0  HIT:          0  MISS:          0
L1I PREFETCH  REQUESTED:          0  ISSUED:          0  USEFUL:          0  USELESS:          0
L2C TOTAL     ACCESS:    3270028  HIT:    2334223  MISS:     935805
L2C LOAD      ACCESS:    1246291  HIT:    1032820  MISS:     213471
L2C RFO       ACCESS:     682093  HIT:     379019  MISS:     303074
L2C PREFETCH  ACCESS:     494909  HIT:      76080  MISS:     418829
L2C WRITEBACK ACCESS:     846735  HIT:     846304  MISS:        431
L2C PREFETCH  REQUESTED:    1882665  ISSUED:    1879201  USEFUL:    1230569  USELESS:     281541
LLC TOTAL     ACCESS:    1354054  HIT:    1042891  MISS:     311163
LLC LOAD      ACCESS:     197457  HIT:     180476  MISS:      16981
LLC RFO       ACCESS:     303068  HIT:     160149  MISS:     142919
LLC PREFETCH  ACCESS:     434844  HIT:     283581  MISS:     151263
LLC WRITEBACK ACCESS:     418685  HIT:     418685  MISS:          0
LLC PREFETCH  REQUESTED:          0  ISSUED:          0  USEFUL:     117387  USELESS:     441294
Major fault: 0 Minor fault: 12983

CPU 5 cumulative IPC: 0.427546 instructions: 100000001 cycles: 233892975
L1D TOTAL     ACCESS:   33584604  HIT:   33339686  MISS:     244918
L1D LOAD      ACCESS:   21949786  HIT:   21731622  MISS:     218164
L1D RFO       ACCESS:   11634818  HIT:   11608064  MISS:      26754
L1D PREFETCH  ACCESS:          0  HIT:          0  MISS:          0
L1D WRITEBACK ACCESS:          0  HIT:          0  MISS:          0
L1D PREFETCH  REQUESTED:          0  ISSUED:          0  USEFUL:          0  USELESS:          0
L1I TOTAL     ACCESS:   22805924  HIT:   22800149  MISS:       5775
L1I LOAD      ACCESS:   22805924  HIT:   22800149  MISS:       5775
L1I RFO       ACCESS:          0  HIT:          0  MISS:          0
L1I PREFETCH  ACCESS:          0  HIT:          0  MISS:          0
L1I WRITEBACK ACCESS:          0  HIT:          0  MISS:          0
L1I PREFETCH  REQUESTED:          0  ISSUED:          0  USEFUL:          0  USELESS:          0
L2C TOTAL     ACCESS:     301206  HIT:     290889  MISS:      10317
L2C LOAD      ACCESS:     223939  HIT:     216586  MISS:       7353
L2C RFO       ACCESS:      26753  HIT:      25877  MISS:        876
L2C PREFETCH  ACCESS:       2949  HIT:        909  MISS:       2040
L2C WRITEBACK ACCESS:      47565  HIT:      47517  MISS:         48
L2C PREFETCH  REQUESTED:       7267  ISSUED:       7267  USEFUL:       2407  USELESS:       2486
LLC TOTAL     ACCESS:      11447  HIT:       5079  MISS:       6368
LLC LOAD      ACCESS:       7217  HIT:       4262  MISS:       2955
LLC RFO       ACCESS:        876  HIT:        142  MISS:        734
LLC PREFETCH  ACCESS:       2176  HIT:         20  MISS:       2156
LLC WRITEBACK ACCESS:       1178  HIT:        655  MISS:        523
LLC PREFETCH  REQUESTED:          0  ISSUED:          0  USEFUL:     117387  USELESS:     441294
Major fault: 0 Minor fault: 479

CPU 6 cumulative IPC: 0.358591 instructions: 100000000 cycles: 278868992
L1D TOTAL     ACCESS:   27506244  HIT:   22304309  MISS:    5201935
L1D LOAD      ACCESS:   19129125  HIT:   14098973  MISS:    5030152
L1D RFO       ACCESS:    8377119  HIT:    8205336  MISS:     171783
L1D PREFETCH  ACCESS:          0  HIT:          0  MISS:          0
L1D WRITEBACK ACCESS:          0  HIT:          0  MISS:          0
L1D PREFETCH  REQUESTED:          0  ISSUED:          0  USEFUL:          0  USELESS:          0
L1I TOTAL     ACCESS:   42873541  HIT:   42565585  MISS:     307956
L1I LOAD      ACCESS:   42873541  HIT:   42565585  MISS:     307956
L1I RFO       ACCESS:          0  HIT:          0  MISS:          0
L1I PREFETCH  ACCESS:          0  HIT:          0  MISS:          0
L1I WRITEBACK ACCESS:          0  HIT:          0  MISS:          0
L1I PREFETCH  REQUESTED:          0  ISSUED:          0  USEFUL:          0  USELESS:          0
L2C TOTAL     ACCESS:    6680962  HIT:    3672953  MISS:    3008009
L2C LOAD      ACCESS:    5338090  HIT:    2917657  MISS:    2420433
L2C RFO       ACCESS:     171777  HIT:      32821  MISS:     138956
L2C PREFETCH  ACCESS:     895258  HIT:     446804  MISS:     448454
L2C WRITEBACK ACCESS:     275837  HIT:     275671  MISS:        166
L2C PREFETCH  REQUESTED:    1187501  ISSUED:    1187501  USEFUL:     180027  USELESS:     383103
LLC TOTAL     ACCESS:    3204676  HIT:    3066860  MISS:     137816
LLC LOAD      ACCESS:    2407810  HIT:    2391627  MISS:      16183
LLC RFO       ACCESS:     138744  HIT:      30644  MISS:     108100
LLC PREFETCH  ACCESS:     461287  HIT:     448006  MISS:      13281
LLC WRITEBACK ACCESS:     196835  HIT:     196583  MISS:        252
LLC PREFETCH  REQUESTED:          0  ISSUED:          0  USEFUL:     117387  USELESS:     441294
Major fault: 0 Minor fault: 3609

CPU 7 cumulative IPC: 0.44837 instructions: 100000002 cycles: 223029974
L1D TOTAL     ACCESS:   25810559  HIT:   21832534  MISS:    3978025
L1D LOAD      ACCESS:   17784352  HIT:   13985576  MISS:    3798776
L1D RFO       ACCESS:    8026207  HIT:    7846958  MISS:     179249
L1D PREFETCH  ACCESS:          0  HIT:          0  MISS:          0
L1D WRITEBACK ACCESS:          0  HIT:          0  MISS:          0
L1D PREFETCH  REQUESTED:          0  ISSUED:          0  USEFUL:          0  USELESS:          0
L1I TOTAL     ACCESS:   43521714  HIT:   43237278  MISS:     284436
L1I LOAD      ACCESS:   43521714  HIT:   43237278  MISS:     284436
L1I RFO       ACCESS:          0  HIT:          0  MISS:          0
L1I PREFETCH  ACCESS:          0  HIT:          0  MISS:          0
L1I WRITEBACK ACCESS:          0  HIT:          0  MISS:          0
L1I PREFETCH  REQUESTED:          0  ISSUED:          0  USEFUL:          0  USELESS:          0
L2C TOTAL     ACCESS:    5325805  HIT:    4542428  MISS:     783377
L2C LOAD      ACCESS:    4083195  HIT:    3561371  MISS:     521824
L2C RFO       ACCESS:     179248  HIT:      49841  MISS:     129407
L2C PREFETCH  ACCESS:     762375  HIT:     630374  MISS:     132001
L2C WRITEBACK ACCESS:     300987  HIT:     300842  MISS:        145
L2C PREFETCH  REQUESTED:    1108963  ISSUED:    1108963  USEFUL:      60969  USELESS:     128086
LLC TOTAL     ACCESS:     957293  HIT:     815931  MISS:     141362
LLC LOAD      ACCESS:     519445  HIT:     506097  MISS:      13348
LLC RFO       ACCESS:     128998  HIT:      18098  MISS:     110900
LLC PREFETCH  ACCESS:     134784  HIT:     118525  MISS:      16259
LLC WRITEBACK ACCESS:     174066  HIT:     173211  MISS:        855
LLC PREFETCH  REQUESTED:          0  ISSUED:          0  USEFUL:     117387  USELESS:     441294
Major fault: 0 Minor fault: 2197

L2C DA-AMPM prefetcher final stats

L2C DA-AMPM prefetcher final stats

L2C DA-AMPM prefetcher final stats

L2C DA-AMPM prefetcher final stats

L2C DA-AMPM prefetcher final stats

L2C DA-AMPM prefetcher final stats

L2C DA-AMPM prefetcher final stats

L2C DA-AMPM prefetcher final stats

DRAM Statistics
 CHANNEL 0
 RQ ROW_BUFFER_HIT:     352918  ROW_BUFFER_MISS:     300604
 DBUS_CONGESTED:    1021888
 WQ ROW_BUFFER_HIT:      61076  ROW_BUFFER_MISS:     319375  FULL:          0

 CHANNEL 1
 RQ ROW_BUFFER_HIT:     351747  ROW_BUFFER_MISS:     301951
 DBUS_CONGESTED:    1021888
 WQ ROW_BUFFER_HIT:      60413  ROW_BUFFER_MISS:     320179  FULL:          0

 AVG_CONGESTED_CYCLE: 13
