
*** ChampSim Multicore Out-of-Order Simulator ***

Warmup Instructions: 20000000
Simulation Instructions: 100000000
Number of CPUs: 8
LLC sets: 16384
LLC ways: 16
Off-chip DRAM Size: 8192 MB Channels: 2 Width: 64-bit Data Rate: 1600 MT/s

CPU 0 runs /scratch/user/djimenez/champsim-traces/speccpu2017/xz/605.mcf_s/605.mcf_s-1644B.champsimtrace.xz
CPU 1 runs /scratch/user/djimenez/champsim-traces/speccpu2017/xz/638.imagick_s/638.imagick_s-4128B.champsimtrace.xz
CPU 2 runs /scratch/user/djimenez/champsim-traces/speccpu2017/xz/654.roms_s/654.roms_s-1613B.champsimtrace.xz
CPU 3 runs /scratch/user/djimenez/champsim-traces/speccpu2017/xz/625.x264_s/625.x264_s-18B.champsimtrace.xz
CPU 4 runs /scratch/user/djimenez/champsim-traces/speccpu2017/xz/603.bwaves_s/603.bwaves_s-2931B.champsimtrace.xz
CPU 5 runs /scratch/user/djimenez/champsim-traces/speccpu2017/xz/638.imagick_s/638.imagick_s-10316B.champsimtrace.xz
CPU 6 runs /scratch/user/djimenez/champsim-traces/speccpu2017/xz/623.xalancbmk_s/623.xalancbmk_s-592B.champsimtrace.xz
CPU 7 runs /scratch/user/djimenez/champsim-traces/speccpu2017/xz/654.roms_s/654.roms_s-1390B.champsimtrace.xz
L2C DA-AMPM prefetcher
L2C DA-AMPM prefetcher
L2C DA-AMPM prefetcher
L2C DA-AMPM prefetcher
L2C DA-AMPM prefetcher
L2C DA-AMPM prefetcher
L2C DA-AMPM prefetcher
L2C DA-AMPM prefetcher
Heartbeat CPU 5 instructions: 10000000 cycles: 3501454 heartbeat IPC: 2.85596 cumulative IPC: 2.85596 (Simulation time: 0 hr 3 min 13 sec) 
Heartbeat CPU 1 instructions: 10000002 cycles: 3808843 heartbeat IPC: 2.62547 cumulative IPC: 2.62547 (Simulation time: 0 hr 3 min 29 sec) 
Heartbeat CPU 3 instructions: 10000003 cycles: 3848995 heartbeat IPC: 2.59808 cumulative IPC: 2.59808 (Simulation time: 0 hr 3 min 31 sec) 
Heartbeat CPU 2 instructions: 10000003 cycles: 4454075 heartbeat IPC: 2.24514 cumulative IPC: 2.24514 (Simulation time: 0 hr 4 min 2 sec) 
Heartbeat CPU 6 instructions: 10000002 cycles: 5038018 heartbeat IPC: 1.98491 cumulative IPC: 1.98491 (Simulation time: 0 hr 4 min 33 sec) 
Heartbeat CPU 4 instructions: 10000000 cycles: 5227864 heartbeat IPC: 1.91283 cumulative IPC: 1.91283 (Simulation time: 0 hr 4 min 42 sec) 
Heartbeat CPU 7 instructions: 10000001 cycles: 6744685 heartbeat IPC: 1.48265 cumulative IPC: 1.48265 (Simulation time: 0 hr 6 min 1 sec) 
Heartbeat CPU 5 instructions: 20000000 cycles: 7002194 heartbeat IPC: 2.85654 cumulative IPC: 2.85625 (Simulation time: 0 hr 6 min 14 sec) 
Heartbeat CPU 1 instructions: 20000000 cycles: 7617284 heartbeat IPC: 2.62575 cumulative IPC: 2.62561 (Simulation time: 0 hr 6 min 46 sec) 
Heartbeat CPU 3 instructions: 20000000 cycles: 7704627 heartbeat IPC: 2.59361 cumulative IPC: 2.59584 (Simulation time: 0 hr 6 min 51 sec) 
Heartbeat CPU 2 instructions: 20000000 cycles: 8907964 heartbeat IPC: 2.24523 cumulative IPC: 2.24518 (Simulation time: 0 hr 8 min 0 sec) 
Heartbeat CPU 6 instructions: 20000000 cycles: 10158309 heartbeat IPC: 1.95301 cumulative IPC: 1.96883 (Simulation time: 0 hr 9 min 41 sec) 
Heartbeat CPU 4 instructions: 20000000 cycles: 10455151 heartbeat IPC: 1.91304 cumulative IPC: 1.91293 (Simulation time: 0 hr 9 min 57 sec) 
Heartbeat CPU 5 instructions: 30000001 cycles: 10502592 heartbeat IPC: 2.85682 cumulative IPC: 0.952146 (Simulation time: 0 hr 9 min 59 sec) 
Heartbeat CPU 0 instructions: 10000002 cycles: 10563655 heartbeat IPC: 0.946642 cumulative IPC: 0.946642 (Simulation time: 0 hr 10 min 2 sec) 
Heartbeat CPU 1 instructions: 30000000 cycles: 11425344 heartbeat IPC: 2.62601 cumulative IPC: 0.875247 (Simulation time: 0 hr 10 min 47 sec) 
Heartbeat CPU 3 instructions: 30000001 cycles: 11527562 heartbeat IPC: 2.61579 cumulative IPC: 0.867486 (Simulation time: 0 hr 10 min 52 sec) 
Heartbeat CPU 7 instructions: 20000000 cycles: 11881159 heartbeat IPC: 1.94686 cumulative IPC: 1.68334 (Simulation time: 0 hr 11 min 10 sec) 
Heartbeat CPU 2 instructions: 30000001 cycles: 13361791 heartbeat IPC: 2.24526 cumulative IPC: 0.748403 (Simulation time: 0 hr 12 min 26 sec) 
Heartbeat CPU 5 instructions: 40000000 cycles: 14003754 heartbeat IPC: 2.85619 cumulative IPC: 1.42819 (Simulation time: 0 hr 12 min 58 sec) 
Heartbeat CPU 1 instructions: 40000000 cycles: 15233220 heartbeat IPC: 2.62614 cumulative IPC: 1.31292 (Simulation time: 0 hr 14 min 4 sec) 
Heartbeat CPU 3 instructions: 40000000 cycles: 15343989 heartbeat IPC: 2.62025 cumulative IPC: 1.30344 (Simulation time: 0 hr 14 min 11 sec) 
Heartbeat CPU 4 instructions: 30000002 cycles: 15682734 heartbeat IPC: 1.91293 cumulative IPC: 0.637644 (Simulation time: 0 hr 14 min 30 sec) 
Heartbeat CPU 6 instructions: 30000003 cycles: 16151225 heartbeat IPC: 1.66864 cumulative IPC: 0.619148 (Simulation time: 0 hr 14 min 55 sec) 
Heartbeat CPU 7 instructions: 30000003 cycles: 16404018 heartbeat IPC: 2.21099 cumulative IPC: 0.609607 (Simulation time: 0 hr 15 min 9 sec) 
Heartbeat CPU 5 instructions: 50000000 cycles: 17504918 heartbeat IPC: 2.85619 cumulative IPC: 1.7138 (Simulation time: 0 hr 16 min 9 sec) 
Heartbeat CPU 2 instructions: 40000000 cycles: 17815906 heartbeat IPC: 2.24511 cumulative IPC: 1.12259 (Simulation time: 0 hr 16 min 26 sec) 
Heartbeat CPU 1 instructions: 50000001 cycles: 19041967 heartbeat IPC: 2.62554 cumulative IPC: 1.57547 (Simulation time: 0 hr 17 min 29 sec) 
Heartbeat CPU 3 instructions: 50000000 cycles: 19164035 heartbeat IPC: 2.61777 cumulative IPC: 1.56543 (Simulation time: 0 hr 17 min 35 sec) 
Heartbeat CPU 4 instructions: 40000000 cycles: 20909923 heartbeat IPC: 1.91307 cumulative IPC: 0.956484 (Simulation time: 0 hr 19 min 6 sec) 
Heartbeat CPU 5 instructions: 60000000 cycles: 21004577 heartbeat IPC: 2.85742 cumulative IPC: 1.90435 (Simulation time: 0 hr 19 min 11 sec) 
Heartbeat CPU 0 instructions: 20000000 cycles: 21062271 heartbeat IPC: 0.952506 cumulative IPC: 0.949565 (Simulation time: 0 hr 19 min 14 sec) 

Warmup complete CPU 0 instructions: 20000001 cycles: 21062274 (Simulation time: 0 hr 19 min 14 sec) 
Warmup complete CPU 1 instructions: 55304624 cycles: 21062273 (Simulation time: 0 hr 19 min 14 sec) 
Warmup complete CPU 2 instructions: 45938740 cycles: 21062273 (Simulation time: 0 hr 19 min 14 sec) 
Warmup complete CPU 3 instructions: 54967961 cycles: 21062273 (Simulation time: 0 hr 19 min 14 sec) 
Warmup complete CPU 4 instructions: 40291607 cycles: 21062273 (Simulation time: 0 hr 19 min 14 sec) 
Warmup complete CPU 5 instructions: 60164826 cycles: 21062273 (Simulation time: 0 hr 19 min 14 sec) 
Warmup complete CPU 6 instructions: 37508083 cycles: 21062273 (Simulation time: 0 hr 19 min 14 sec) 
Warmup complete CPU 7 instructions: 38037770 cycles: 21062273 (Simulation time: 0 hr 19 min 14 sec) 

Heartbeat CPU 1 instructions: 60000000 cycles: 23868081 heartbeat IPC: 2.07206 cumulative IPC: 1.67345 (Simulation time: 0 hr 20 min 42 sec) 
Heartbeat CPU 7 instructions: 40000000 cycles: 24456247 heartbeat IPC: 1.24189 cumulative IPC: 0.578151 (Simulation time: 0 hr 21 min 0 sec) 
Heartbeat CPU 3 instructions: 60000000 cycles: 24851678 heartbeat IPC: 1.7582 cumulative IPC: 1.32792 (Simulation time: 0 hr 21 min 12 sec) 
Heartbeat CPU 5 instructions: 70000003 cycles: 26285456 heartbeat IPC: 1.89362 cumulative IPC: 1.88299 (Simulation time: 0 hr 21 min 57 sec) 
Heartbeat CPU 2 instructions: 50000000 cycles: 26715110 heartbeat IPC: 1.1237 cumulative IPC: 0.718446 (Simulation time: 0 hr 22 min 10 sec) 
Heartbeat CPU 6 instructions: 40000000 cycles: 28778573 heartbeat IPC: 0.791932 cumulative IPC: 0.322942 (Simulation time: 0 hr 23 min 15 sec) 
Heartbeat CPU 1 instructions: 70000002 cycles: 29831101 heartbeat IPC: 1.677 cumulative IPC: 1.67587 (Simulation time: 0 hr 23 min 48 sec) 
Heartbeat CPU 4 instructions: 50000002 cycles: 31051373 heartbeat IPC: 0.986053 cumulative IPC: 0.971899 (Simulation time: 0 hr 24 min 24 sec) 
Heartbeat CPU 5 instructions: 80000000 cycles: 31568828 heartbeat IPC: 1.89273 cumulative IPC: 1.88789 (Simulation time: 0 hr 24 min 39 sec) 
Heartbeat CPU 3 instructions: 70000003 cycles: 32413814 heartbeat IPC: 1.32238 cumulative IPC: 1.32423 (Simulation time: 0 hr 25 min 4 sec) 
Heartbeat CPU 1 instructions: 80000000 cycles: 35793733 heartbeat IPC: 1.67711 cumulative IPC: 1.67637 (Simulation time: 0 hr 26 min 45 sec) 
Heartbeat CPU 5 instructions: 90000001 cycles: 36827778 heartbeat IPC: 1.90152 cumulative IPC: 1.89243 (Simulation time: 0 hr 27 min 15 sec) 
Heartbeat CPU 3 instructions: 80000000 cycles: 39973381 heartbeat IPC: 1.32283 cumulative IPC: 1.32367 (Simulation time: 0 hr 28 min 46 sec) 
Heartbeat CPU 2 instructions: 60000000 cycles: 40688725 heartbeat IPC: 0.715634 cumulative IPC: 0.716444 (Simulation time: 0 hr 29 min 6 sec) 
Heartbeat CPU 4 instructions: 60000000 cycles: 41241083 heartbeat IPC: 0.981382 cumulative IPC: 0.976688 (Simulation time: 0 hr 29 min 22 sec) 
Heartbeat CPU 7 instructions: 50000003 cycles: 41478008 heartbeat IPC: 0.587483 cumulative IPC: 0.585932 (Simulation time: 0 hr 29 min 29 sec) 
Heartbeat CPU 1 instructions: 90000002 cycles: 41752970 heartbeat IPC: 1.67807 cumulative IPC: 1.67686 (Simulation time: 0 hr 29 min 37 sec) 
Heartbeat CPU 5 instructions: 100000000 cycles: 42075473 heartbeat IPC: 1.9056 cumulative IPC: 1.89572 (Simulation time: 0 hr 29 min 46 sec) 
Heartbeat CPU 5 instructions: 110000003 cycles: 47268112 heartbeat IPC: 1.9258 cumulative IPC: 1.90168 (Simulation time: 0 hr 32 min 19 sec) 
Heartbeat CPU 3 instructions: 90000001 cycles: 47540155 heartbeat IPC: 1.32157 cumulative IPC: 1.32307 (Simulation time: 0 hr 32 min 27 sec) 
Heartbeat CPU 1 instructions: 100000000 cycles: 47712960 heartbeat IPC: 1.67785 cumulative IPC: 1.67708 (Simulation time: 0 hr 32 min 32 sec) 
Heartbeat CPU 4 instructions: 70000001 cycles: 51273648 heartbeat IPC: 0.996754 cumulative IPC: 0.983351 (Simulation time: 0 hr 34 min 19 sec) 
Heartbeat CPU 7 instructions: 60000000 cycles: 51712105 heartbeat IPC: 0.977125 cumulative IPC: 0.716553 (Simulation time: 0 hr 34 min 32 sec) 
Heartbeat CPU 5 instructions: 120000000 cycles: 52438530 heartbeat IPC: 1.93408 cumulative IPC: 1.90702 (Simulation time: 0 hr 34 min 54 sec) 
Heartbeat CPU 1 instructions: 110000001 cycles: 53677505 heartbeat IPC: 1.67657 cumulative IPC: 1.67699 (Simulation time: 0 hr 35 min 31 sec) 
Heartbeat CPU 2 instructions: 70000001 cycles: 54646961 heartbeat IPC: 0.716423 cumulative IPC: 0.716435 (Simulation time: 0 hr 36 min 1 sec) 
Heartbeat CPU 3 instructions: 100000000 cycles: 55075716 heartbeat IPC: 1.32704 cumulative IPC: 1.32395 (Simulation time: 0 hr 36 min 14 sec) 
Heartbeat CPU 5 instructions: 130000000 cycles: 57599126 heartbeat IPC: 1.93776 cumulative IPC: 1.91136 (Simulation time: 0 hr 37 min 30 sec) 
Heartbeat CPU 6 instructions: 50000002 cycles: 57765166 heartbeat IPC: 0.344987 cumulative IPC: 0.340352 (Simulation time: 0 hr 37 min 35 sec) 
Heartbeat CPU 1 instructions: 120000000 cycles: 59638462 heartbeat IPC: 1.67758 cumulative IPC: 1.67708 (Simulation time: 0 hr 38 min 32 sec) 
Heartbeat CPU 7 instructions: 70000002 cycles: 60800963 heartbeat IPC: 1.10025 cumulative IPC: 0.80431 (Simulation time: 0 hr 39 min 7 sec) 
Heartbeat CPU 4 instructions: 80000000 cycles: 61060574 heartbeat IPC: 1.02177 cumulative IPC: 0.992752 (Simulation time: 0 hr 39 min 15 sec) 
Heartbeat CPU 3 instructions: 110000000 cycles: 62589707 heartbeat IPC: 1.33085 cumulative IPC: 1.3252 (Simulation time: 0 hr 40 min 1 sec) 
Heartbeat CPU 5 instructions: 140000000 cycles: 62800164 heartbeat IPC: 1.92269 cumulative IPC: 1.91277 (Simulation time: 0 hr 40 min 7 sec) 
Heartbeat CPU 1 instructions: 130000003 cycles: 65602324 heartbeat IPC: 1.67677 cumulative IPC: 1.67704 (Simulation time: 0 hr 41 min 32 sec) 
Heartbeat CPU 5 instructions: 150000002 cycles: 68022141 heartbeat IPC: 1.91498 cumulative IPC: 1.91302 (Simulation time: 0 hr 42 min 45 sec) 
Heartbeat CPU 2 instructions: 80000000 cycles: 68500216 heartbeat IPC: 0.721852 cumulative IPC: 0.718017 (Simulation time: 0 hr 43 min 0 sec) 
Heartbeat CPU 7 instructions: 80000000 cycles: 69873705 heartbeat IPC: 1.1022 cumulative IPC: 0.85968 (Simulation time: 0 hr 43 min 41 sec) 
Heartbeat CPU 3 instructions: 120000000 cycles: 70100900 heartbeat IPC: 1.33135 cumulative IPC: 1.32614 (Simulation time: 0 hr 43 min 48 sec) 
Heartbeat CPU 4 instructions: 90000002 cycles: 70794148 heartbeat IPC: 1.02737 cumulative IPC: 0.999528 (Simulation time: 0 hr 44 min 9 sec) 
Heartbeat CPU 1 instructions: 140000000 cycles: 71565002 heartbeat IPC: 1.6771 cumulative IPC: 1.67705 (Simulation time: 0 hr 44 min 32 sec) 
Heartbeat CPU 5 instructions: 160000000 cycles: 73244117 heartbeat IPC: 1.91498 cumulative IPC: 1.91322 (Simulation time: 0 hr 45 min 21 sec) 
Finished CPU 5 instructions: 100000003 cycles: 52271581 cumulative IPC: 1.91309 (Simulation time: 0 hr 45 min 24 sec) 
Heartbeat CPU 1 instructions: 150000002 cycles: 77527943 heartbeat IPC: 1.67703 cumulative IPC: 1.67704 (Simulation time: 0 hr 47 min 26 sec) 
Heartbeat CPU 3 instructions: 130000001 cycles: 77651763 heartbeat IPC: 1.32435 cumulative IPC: 1.3259 (Simulation time: 0 hr 47 min 30 sec) 
Heartbeat CPU 5 instructions: 170000000 cycles: 78479834 heartbeat IPC: 1.90996 cumulative IPC: 1.91292 (Simulation time: 0 hr 47 min 54 sec) 
Finished CPU 1 instructions: 100000001 cycles: 59625604 cumulative IPC: 1.67713 (Simulation time: 0 hr 48 min 59 sec) 
Heartbeat CPU 4 instructions: 100000000 cycles: 80826903 heartbeat IPC: 0.996735 cumulative IPC: 0.999059 (Simulation time: 0 hr 49 min 4 sec) 
Heartbeat CPU 0 instructions: 30000003 cycles: 81375405 heartbeat IPC: 0.165801 cumulative IPC: 0.165801 (Simulation time: 0 hr 49 min 20 sec) 
Heartbeat CPU 2 instructions: 90000001 cycles: 82545162 heartbeat IPC: 0.712 cumulative IPC: 0.716643 (Simulation time: 0 hr 49 min 55 sec) 
Heartbeat CPU 1 instructions: 160000000 cycles: 83493702 heartbeat IPC: 1.67623 cumulative IPC: 1.67697 (Simulation time: 0 hr 50 min 23 sec) 
Heartbeat CPU 5 instructions: 180000000 cycles: 83741957 heartbeat IPC: 1.90037 cumulative IPC: 1.91187 (Simulation time: 0 hr 50 min 30 sec) 
Heartbeat CPU 6 instructions: 60000000 cycles: 84811204 heartbeat IPC: 0.36974 cumulative IPC: 0.35282 (Simulation time: 0 hr 51 min 2 sec) 
Heartbeat CPU 7 instructions: 90000003 cycles: 85150652 heartbeat IPC: 0.654581 cumulative IPC: 0.81079 (Simulation time: 0 hr 51 min 11 sec) 
Heartbeat CPU 3 instructions: 140000000 cycles: 86339387 heartbeat IPC: 1.15106 cumulative IPC: 1.30263 (Simulation time: 0 hr 51 min 47 sec) 
Heartbeat CPU 5 instructions: 190000000 cycles: 88955154 heartbeat IPC: 1.91821 cumulative IPC: 1.91235 (Simulation time: 0 hr 53 min 3 sec) 
Heartbeat CPU 1 instructions: 170000002 cycles: 89455615 heartbeat IPC: 1.67731 cumulative IPC: 1.677 (Simulation time: 0 hr 53 min 17 sec) 
Heartbeat CPU 4 instructions: 110000000 cycles: 90807253 heartbeat IPC: 1.00197 cumulative IPC: 0.999475 (Simulation time: 0 hr 53 min 57 sec) 
Heartbeat CPU 5 instructions: 200000000 cycles: 94144228 heartbeat IPC: 1.92713 cumulative IPC: 1.9134 (Simulation time: 0 hr 55 min 35 sec) 
Heartbeat CPU 3 instructions: 150000003 cycles: 94149889 heartbeat IPC: 1.28033 cumulative IPC: 1.30025 (Simulation time: 0 hr 55 min 35 sec) 
Heartbeat CPU 1 instructions: 180000000 cycles: 95415778 heartbeat IPC: 1.67781 cumulative IPC: 1.67706 (Simulation time: 0 hr 56 min 12 sec) 
Heartbeat CPU 2 instructions: 100000000 cycles: 96444672 heartbeat IPC: 0.71945 cumulative IPC: 0.71716 (Simulation time: 0 hr 56 min 41 sec) 
Finished CPU 3 instructions: 100000000 cycles: 76597419 cumulative IPC: 1.30553 (Simulation time: 0 hr 57 min 17 sec) 
Heartbeat CPU 7 instructions: 100000000 cycles: 99326310 heartbeat IPC: 0.705434 cumulative IPC: 0.791708 (Simulation time: 0 hr 58 min 7 sec) 
Heartbeat CPU 5 instructions: 210000003 cycles: 99349210 heartbeat IPC: 1.92124 cumulative IPC: 1.91392 (Simulation time: 0 hr 58 min 7 sec) 
Heartbeat CPU 4 instructions: 120000000 cycles: 100802248 heartbeat IPC: 1.0005 cumulative IPC: 0.999604 (Simulation time: 0 hr 58 min 50 sec) 
Heartbeat CPU 3 instructions: 160000000 cycles: 101184840 heartbeat IPC: 1.42147 cumulative IPC: 1.31089 (Simulation time: 0 hr 59 min 2 sec) 
Heartbeat CPU 1 instructions: 190000002 cycles: 101377505 heartbeat IPC: 1.67737 cumulative IPC: 1.67708 (Simulation time: 0 hr 59 min 7 sec) 
Heartbeat CPU 5 instructions: 220000000 cycles: 104575091 heartbeat IPC: 1.91355 cumulative IPC: 1.9139 (Simulation time: 1 hr 0 min 41 sec) 
Heartbeat CPU 1 instructions: 200000000 cycles: 107341351 heartbeat IPC: 1.67677 cumulative IPC: 1.67706 (Simulation time: 1 hr 2 min 2 sec) 
Heartbeat CPU 3 instructions: 170000001 cycles: 108401805 heartbeat IPC: 1.38562 cumulative IPC: 1.31707 (Simulation time: 1 hr 2 min 32 sec) 
Heartbeat CPU 5 instructions: 230000001 cycles: 109800035 heartbeat IPC: 1.9139 cumulative IPC: 1.9139 (Simulation time: 1 hr 3 min 13 sec) 
Heartbeat CPU 2 instructions: 110000001 cycles: 110439359 heartbeat IPC: 0.714557 cumulative IPC: 0.716753 (Simulation time: 1 hr 3 min 31 sec) 
Heartbeat CPU 6 instructions: 70000001 cycles: 110633745 heartbeat IPC: 0.387259 cumulative IPC: 0.362749 (Simulation time: 1 hr 3 min 36 sec) 
Heartbeat CPU 4 instructions: 130000001 cycles: 110812303 heartbeat IPC: 0.998996 cumulative IPC: 0.999536 (Simulation time: 1 hr 3 min 42 sec) 
Heartbeat CPU 1 instructions: 210000003 cycles: 113302844 heartbeat IPC: 1.67743 cumulative IPC: 1.67709 (Simulation time: 1 hr 4 min 57 sec) 
Heartbeat CPU 7 instructions: 110000000 cycles: 113487964 heartbeat IPC: 0.706132 cumulative IPC: 0.778596 (Simulation time: 1 hr 5 min 3 sec) 
Heartbeat CPU 5 instructions: 240000000 cycles: 115023719 heartbeat IPC: 1.91436 cumulative IPC: 1.91393 (Simulation time: 1 hr 5 min 51 sec) 
Heartbeat CPU 3 instructions: 180000000 cycles: 115425415 heartbeat IPC: 1.42377 cumulative IPC: 1.32501 (Simulation time: 1 hr 6 min 4 sec) 
Heartbeat CPU 1 instructions: 220000000 cycles: 119266867 heartbeat IPC: 1.67672 cumulative IPC: 1.67706 (Simulation time: 1 hr 8 min 3 sec) 
Heartbeat CPU 5 instructions: 250000001 cycles: 120255621 heartbeat IPC: 1.91135 cumulative IPC: 1.91379 (Simulation time: 1 hr 8 min 32 sec) 
Heartbeat CPU 4 instructions: 140000000 cycles: 120837598 heartbeat IPC: 0.997477 cumulative IPC: 0.999329 (Simulation time: 1 hr 8 min 48 sec) 
Finished CPU 4 instructions: 100000002 cycles: 100081554 cumulative IPC: 0.999185 (Simulation time: 1 hr 8 min 57 sec) 
Heartbeat CPU 3 instructions: 190000000 cycles: 122576682 heartbeat IPC: 1.39835 cumulative IPC: 1.33018 (Simulation time: 1 hr 9 min 38 sec) 
Heartbeat CPU 7 instructions: 120000000 cycles: 124899999 heartbeat IPC: 0.876268 cumulative IPC: 0.78933 (Simulation time: 1 hr 10 min 46 sec) 
Heartbeat CPU 1 instructions: 230000001 cycles: 125230161 heartbeat IPC: 1.67693 cumulative IPC: 1.67706 (Simulation time: 1 hr 10 min 56 sec) 
Heartbeat CPU 5 instructions: 260000000 cycles: 125603566 heartbeat IPC: 1.86988 cumulative IPC: 1.91154 (Simulation time: 1 hr 11 min 6 sec) 
Heartbeat CPU 3 instructions: 200000000 cycles: 130059360 heartbeat IPC: 1.33642 cumulative IPC: 1.3306 (Simulation time: 1 hr 13 min 15 sec) 
Heartbeat CPU 6 instructions: 80000000 cycles: 130568066 heartbeat IPC: 0.501647 cumulative IPC: 0.388034 (Simulation time: 1 hr 13 min 30 sec) 
Heartbeat CPU 5 instructions: 270000003 cycles: 131051897 heartbeat IPC: 1.83543 cumulative IPC: 1.90777 (Simulation time: 1 hr 13 min 45 sec) 
Heartbeat CPU 1 instructions: 240000000 cycles: 131196421 heartbeat IPC: 1.67609 cumulative IPC: 1.677 (Simulation time: 1 hr 13 min 49 sec) 
Heartbeat CPU 4 instructions: 150000002 cycles: 131557568 heartbeat IPC: 0.932839 cumulative IPC: 0.992878 (Simulation time: 1 hr 14 min 1 sec) 
Heartbeat CPU 2 instructions: 120000000 cycles: 133156160 heartbeat IPC: 0.440203 cumulative IPC: 0.660707 (Simulation time: 1 hr 14 min 51 sec) 
Heartbeat CPU 5 instructions: 280000000 cycles: 136249862 heartbeat IPC: 1.92383 cumulative IPC: 1.9085 (Simulation time: 1 hr 16 min 30 sec) 
Heartbeat CPU 3 instructions: 210000001 cycles: 137153946 heartbeat IPC: 1.40953 cumulative IPC: 1.33543 (Simulation time: 1 hr 16 min 58 sec) 
Heartbeat CPU 1 instructions: 250000002 cycles: 137155381 heartbeat IPC: 1.67815 cumulative IPC: 1.67706 (Simulation time: 1 hr 16 min 58 sec) 
Heartbeat CPU 7 instructions: 130000001 cycles: 137688726 heartbeat IPC: 0.781939 cumulative IPC: 0.78852 (Simulation time: 1 hr 17 min 15 sec) 
Heartbeat CPU 4 instructions: 160000000 cycles: 141473410 heartbeat IPC: 1.00849 cumulative IPC: 0.994164 (Simulation time: 1 hr 19 min 11 sec) 
Heartbeat CPU 5 instructions: 290000003 cycles: 141483704 heartbeat IPC: 1.91064 cumulative IPC: 1.90859 (Simulation time: 1 hr 19 min 11 sec) 
Heartbeat CPU 0 instructions: 40000000 cycles: 142197435 heartbeat IPC: 0.164414 cumulative IPC: 0.165105 (Simulation time: 1 hr 19 min 33 sec) 
Heartbeat CPU 1 instructions: 260000000 cycles: 143119009 heartbeat IPC: 1.67683 cumulative IPC: 1.67705 (Simulation time: 1 hr 20 min 1 sec) 
Heartbeat CPU 3 instructions: 220000000 cycles: 144337710 heartbeat IPC: 1.39203 cumulative IPC: 1.33873 (Simulation time: 1 hr 20 min 39 sec) 
Heartbeat CPU 5 instructions: 300000000 cycles: 146694449 heartbeat IPC: 1.91911 cumulative IPC: 1.90903 (Simulation time: 1 hr 21 min 51 sec) 
Heartbeat CPU 2 instructions: 130000000 cycles: 147054552 heartbeat IPC: 0.719508 cumulative IPC: 0.667194 (Simulation time: 1 hr 22 min 3 sec) 
Heartbeat CPU 6 instructions: 90000000 cycles: 148552514 heartbeat IPC: 0.556036 cumulative IPC: 0.411733 (Simulation time: 1 hr 22 min 50 sec) 
Heartbeat CPU 1 instructions: 270000003 cycles: 149082974 heartbeat IPC: 1.67674 cumulative IPC: 1.67704 (Simulation time: 1 hr 23 min 7 sec) 
Heartbeat CPU 4 instructions: 170000002 cycles: 151514410 heartbeat IPC: 0.995917 cumulative IPC: 0.994299 (Simulation time: 1 hr 24 min 24 sec) 
Heartbeat CPU 3 instructions: 230000000 cycles: 151565377 heartbeat IPC: 1.38357 cumulative IPC: 1.34121 (Simulation time: 1 hr 24 min 26 sec) 
Heartbeat CPU 5 instructions: 310000000 cycles: 151908320 heartbeat IPC: 1.91796 cumulative IPC: 1.90938 (Simulation time: 1 hr 24 min 37 sec) 
Finished CPU 7 instructions: 100000001 cycles: 132304001 cumulative IPC: 0.755835 (Simulation time: 1 hr 25 min 22 sec) 
Heartbeat CPU 1 instructions: 280000000 cycles: 155048119 heartbeat IPC: 1.6764 cumulative IPC: 1.67701 (Simulation time: 1 hr 26 min 16 sec) 
Heartbeat CPU 7 instructions: 140000000 cycles: 156628482 heartbeat IPC: 0.52799 cumulative IPC: 0.752121 (Simulation time: 1 hr 27 min 24 sec) 
Heartbeat CPU 5 instructions: 320000000 cycles: 157094899 heartbeat IPC: 1.92805 cumulative IPC: 1.91009 (Simulation time: 1 hr 27 min 41 sec) 
Heartbeat CPU 3 instructions: 240000000 cycles: 158712392 heartbeat IPC: 1.39919 cumulative IPC: 1.34422 (Simulation time: 1 hr 28 min 34 sec) 
Heartbeat CPU 1 instructions: 290000002 cycles: 161005442 heartbeat IPC: 1.67861 cumulative IPC: 1.67708 (Simulation time: 1 hr 29 min 45 sec) 
Heartbeat CPU 2 instructions: 140000000 cycles: 161082117 heartbeat IPC: 0.712882 cumulative IPC: 0.671771 (Simulation time: 1 hr 29 min 48 sec) 
Heartbeat CPU 4 instructions: 180000000 cycles: 161503382 heartbeat IPC: 1.0011 cumulative IPC: 0.994783 (Simulation time: 1 hr 30 min 1 sec) 
Heartbeat CPU 5 instructions: 330000001 cycles: 162252437 heartbeat IPC: 1.93891 cumulative IPC: 1.91115 (Simulation time: 1 hr 30 min 24 sec) 
Heartbeat CPU 3 instructions: 250000001 cycles: 165955418 heartbeat IPC: 1.38064 cumulative IPC: 1.34604 (Simulation time: 1 hr 32 min 17 sec) 
Heartbeat CPU 1 instructions: 300000000 cycles: 166965389 heartbeat IPC: 1.67787 cumulative IPC: 1.67711 (Simulation time: 1 hr 32 min 49 sec) 
Heartbeat CPU 5 instructions: 340000000 cycles: 167414412 heartbeat IPC: 1.93724 cumulative IPC: 1.91207 (Simulation time: 1 hr 33 min 2 sec) 
Finished CPU 2 instructions: 100000000 cycles: 148289118 cumulative IPC: 0.674358 (Simulation time: 1 hr 34 min 3 sec) 
Heartbeat CPU 6 instructions: 100000000 cycles: 169633869 heartbeat IPC: 0.474353 cumulative IPC: 0.420618 (Simulation time: 1 hr 34 min 12 sec) 
Heartbeat CPU 4 instructions: 190000003 cycles: 171498883 heartbeat IPC: 1.00045 cumulative IPC: 0.995159 (Simulation time: 1 hr 35 min 10 sec) 
Heartbeat CPU 5 instructions: 350000000 cycles: 172645319 heartbeat IPC: 1.91171 cumulative IPC: 1.91206 (Simulation time: 1 hr 35 min 46 sec) 
Heartbeat CPU 7 instructions: 150000000 cycles: 172924299 heartbeat IPC: 0.613654 cumulative IPC: 0.737263 (Simulation time: 1 hr 35 min 55 sec) 
Heartbeat CPU 1 instructions: 310000001 cycles: 172927380 heartbeat IPC: 1.67729 cumulative IPC: 1.67712 (Simulation time: 1 hr 35 min 55 sec) 
Heartbeat CPU 3 instructions: 260000000 cycles: 173023007 heartbeat IPC: 1.41491 cumulative IPC: 1.34924 (Simulation time: 1 hr 35 min 58 sec) 
Heartbeat CPU 2 instructions: 150000003 cycles: 174995287 heartbeat IPC: 0.718744 cumulative IPC: 0.676017 (Simulation time: 1 hr 36 min 59 sec) 
Heartbeat CPU 5 instructions: 360000000 cycles: 177880627 heartbeat IPC: 1.91011 cumulative IPC: 1.91199 (Simulation time: 1 hr 38 min 29 sec) 
Heartbeat CPU 1 instructions: 320000000 cycles: 178888436 heartbeat IPC: 1.67755 cumulative IPC: 1.67713 (Simulation time: 1 hr 39 min 1 sec) 
Heartbeat CPU 3 instructions: 270000000 cycles: 180113414 heartbeat IPC: 1.41036 cumulative IPC: 1.35197 (Simulation time: 1 hr 39 min 40 sec) 
Heartbeat CPU 4 instructions: 200000000 cycles: 181539811 heartbeat IPC: 0.995924 cumulative IPC: 0.995207 (Simulation time: 1 hr 40 min 24 sec) 
Heartbeat CPU 5 instructions: 370000001 cycles: 183132051 heartbeat IPC: 1.90425 cumulative IPC: 1.91174 (Simulation time: 1 hr 41 min 14 sec) 
Heartbeat CPU 1 instructions: 330000000 cycles: 184848480 heartbeat IPC: 1.67784 cumulative IPC: 1.67716 (Simulation time: 1 hr 42 min 8 sec) 
Heartbeat CPU 3 instructions: 280000000 cycles: 187332940 heartbeat IPC: 1.38513 cumulative IPC: 1.35341 (Simulation time: 1 hr 43 min 25 sec) 
Heartbeat CPU 7 instructions: 160000000 cycles: 188323906 heartbeat IPC: 0.649367 cumulative IPC: 0.72917 (Simulation time: 1 hr 43 min 56 sec) 
Heartbeat CPU 5 instructions: 380000000 cycles: 188363016 heartbeat IPC: 1.91169 cumulative IPC: 1.91174 (Simulation time: 1 hr 43 min 57 sec) 
Heartbeat CPU 2 instructions: 160000000 cycles: 188961706 heartbeat IPC: 0.716003 cumulative IPC: 0.679343 (Simulation time: 1 hr 44 min 16 sec) 
Heartbeat CPU 1 instructions: 340000000 cycles: 190810214 heartbeat IPC: 1.67736 cumulative IPC: 1.67717 (Simulation time: 1 hr 45 min 13 sec) 
Heartbeat CPU 4 instructions: 210000002 cycles: 191326629 heartbeat IPC: 1.02178 cumulative IPC: 0.996735 (Simulation time: 1 hr 45 min 29 sec) 
Heartbeat CPU 5 instructions: 390000001 cycles: 193609646 heartbeat IPC: 1.90599 cumulative IPC: 1.91156 (Simulation time: 1 hr 46 min 40 sec) 
Heartbeat CPU 3 instructions: 290000001 cycles: 194369450 heartbeat IPC: 1.42116 cumulative IPC: 1.35616 (Simulation time: 1 hr 47 min 3 sec) 
Heartbeat CPU 1 instructions: 350000001 cycles: 196773866 heartbeat IPC: 1.67683 cumulative IPC: 1.67715 (Simulation time: 1 hr 48 min 17 sec) 
Heartbeat CPU 5 instructions: 400000000 cycles: 198862698 heartbeat IPC: 1.90366 cumulative IPC: 1.91133 (Simulation time: 1 hr 49 min 23 sec) 
Heartbeat CPU 6 instructions: 110000001 cycles: 199766510 heartbeat IPC: 0.331866 cumulative IPC: 0.405653 (Simulation time: 1 hr 49 min 50 sec) 
Heartbeat CPU 4 instructions: 220000000 cycles: 201182109 heartbeat IPC: 1.01466 cumulative IPC: 0.997716 (Simulation time: 1 hr 50 min 32 sec) 
Heartbeat CPU 3 instructions: 300000000 cycles: 201326808 heartbeat IPC: 1.43733 cumulative IPC: 1.35929 (Simulation time: 1 hr 50 min 37 sec) 
Heartbeat CPU 0 instructions: 50000001 cycles: 202386131 heartbeat IPC: 0.166144 cumulative IPC: 0.16545 (Simulation time: 1 hr 51 min 10 sec) 
Heartbeat CPU 1 instructions: 360000000 cycles: 202736019 heartbeat IPC: 1.67725 cumulative IPC: 1.67716 (Simulation time: 1 hr 51 min 21 sec) 
Heartbeat CPU 2 instructions: 170000003 cycles: 202903552 heartbeat IPC: 0.717265 cumulative IPC: 0.68225 (Simulation time: 1 hr 51 min 26 sec) 
Heartbeat CPU 7 instructions: 170000003 cycles: 203315652 heartbeat IPC: 0.667034 cumulative IPC: 0.724059 (Simulation time: 1 hr 51 min 39 sec) 
Heartbeat CPU 5 instructions: 410000000 cycles: 204122946 heartbeat IPC: 1.90105 cumulative IPC: 1.91103 (Simulation time: 1 hr 52 min 5 sec) 
Heartbeat CPU 3 instructions: 310000000 cycles: 208524547 heartbeat IPC: 1.38933 cumulative IPC: 1.36044 (Simulation time: 1 hr 54 min 24 sec) 
Heartbeat CPU 1 instructions: 370000000 cycles: 208702544 heartbeat IPC: 1.67602 cumulative IPC: 1.67712 (Simulation time: 1 hr 54 min 29 sec) 
Heartbeat CPU 5 instructions: 420000000 cycles: 209383555 heartbeat IPC: 1.90092 cumulative IPC: 1.91075 (Simulation time: 1 hr 54 min 51 sec) 
Heartbeat CPU 4 instructions: 230000003 cycles: 210989404 heartbeat IPC: 1.01965 cumulative IPC: 0.998848 (Simulation time: 1 hr 55 min 42 sec) 
Heartbeat CPU 1 instructions: 380000000 cycles: 214666932 heartbeat IPC: 1.67662 cumulative IPC: 1.67711 (Simulation time: 1 hr 57 min 38 sec) 
Heartbeat CPU 5 instructions: 430000002 cycles: 214668134 heartbeat IPC: 1.8923 cumulative IPC: 1.91025 (Simulation time: 1 hr 57 min 38 sec) 
Heartbeat CPU 3 instructions: 320000000 cycles: 215496635 heartbeat IPC: 1.43429 cumulative IPC: 1.36309 (Simulation time: 1 hr 58 min 4 sec) 
Heartbeat CPU 2 instructions: 180000000 cycles: 216803676 heartbeat IPC: 0.719418 cumulative IPC: 0.68489 (Simulation time: 1 hr 58 min 43 sec) 
Heartbeat CPU 7 instructions: 180000000 cycles: 218357702 heartbeat IPC: 0.664803 cumulative IPC: 0.719541 (Simulation time: 1 hr 59 min 29 sec) 
Heartbeat CPU 5 instructions: 440000000 cycles: 219954568 heartbeat IPC: 1.89163 cumulative IPC: 1.90975 (Simulation time: 2 hr 0 min 16 sec) 
Heartbeat CPU 1 instructions: 390000000 cycles: 220629054 heartbeat IPC: 1.67726 cumulative IPC: 1.67711 (Simulation time: 2 hr 0 min 36 sec) 
Heartbeat CPU 4 instructions: 240000000 cycles: 220825142 heartbeat IPC: 1.0167 cumulative IPC: 0.999727 (Simulation time: 2 hr 0 min 42 sec) 
Heartbeat CPU 3 instructions: 330000000 cycles: 222395476 heartbeat IPC: 1.44952 cumulative IPC: 1.36605 (Simulation time: 2 hr 1 min 28 sec) 
Heartbeat CPU 5 instructions: 450000000 cycles: 225266994 heartbeat IPC: 1.88238 cumulative IPC: 1.90904 (Simulation time: 2 hr 2 min 50 sec) 
Heartbeat CPU 1 instructions: 400000000 cycles: 226588440 heartbeat IPC: 1.67803 cumulative IPC: 1.67714 (Simulation time: 2 hr 3 min 28 sec) 
Heartbeat CPU 3 instructions: 340000000 cycles: 229298543 heartbeat IPC: 1.44863 cumulative IPC: 1.36879 (Simulation time: 2 hr 4 min 46 sec) 
Heartbeat CPU 5 instructions: 460000000 cycles: 230581605 heartbeat IPC: 1.88161 cumulative IPC: 1.90834 (Simulation time: 2 hr 5 min 22 sec) 
Heartbeat CPU 4 instructions: 250000003 cycles: 230696379 heartbeat IPC: 1.01304 cumulative IPC: 1.00035 (Simulation time: 2 hr 5 min 26 sec) 
Heartbeat CPU 2 instructions: 190000003 cycles: 230802672 heartbeat IPC: 0.714337 cumulative IPC: 0.686855 (Simulation time: 2 hr 5 min 29 sec) 
Heartbeat CPU 6 instructions: 120000000 cycles: 231052992 heartbeat IPC: 0.319627 cumulative IPC: 0.392836 (Simulation time: 2 hr 5 min 36 sec) 
Heartbeat CPU 1 instructions: 410000003 cycles: 232551408 heartbeat IPC: 1.67702 cumulative IPC: 1.67713 (Simulation time: 2 hr 6 min 15 sec) 
Heartbeat CPU 7 instructions: 190000001 cycles: 233303603 heartbeat IPC: 0.66908 cumulative IPC: 0.715988 (Simulation time: 2 hr 6 min 34 sec) 
Heartbeat CPU 5 instructions: 470000000 cycles: 236015176 heartbeat IPC: 1.84041 cumulative IPC: 1.90663 (Simulation time: 2 hr 7 min 44 sec) 
Heartbeat CPU 3 instructions: 350000003 cycles: 236239211 heartbeat IPC: 1.44078 cumulative IPC: 1.37111 (Simulation time: 2 hr 7 min 50 sec) 
Heartbeat CPU 1 instructions: 420000000 cycles: 238515003 heartbeat IPC: 1.67684 cumulative IPC: 1.67712 (Simulation time: 2 hr 8 min 49 sec) 
Heartbeat CPU 4 instructions: 260000000 cycles: 241161374 heartbeat IPC: 0.955566 cumulative IPC: 0.998225 (Simulation time: 2 hr 9 min 55 sec) 
Heartbeat CPU 5 instructions: 480000000 cycles: 241592964 heartbeat IPC: 1.79283 cumulative IPC: 1.90375 (Simulation time: 2 hr 10 min 5 sec) 
Heartbeat CPU 3 instructions: 360000000 cycles: 243284618 heartbeat IPC: 1.41936 cumulative IPC: 1.37264 (Simulation time: 2 hr 10 min 49 sec) 
Heartbeat CPU 1 instructions: 430000000 cycles: 244479100 heartbeat IPC: 1.6767 cumulative IPC: 1.67711 (Simulation time: 2 hr 11 min 22 sec) 
Heartbeat CPU 5 instructions: 490000000 cycles: 246978542 heartbeat IPC: 1.85681 cumulative IPC: 1.90263 (Simulation time: 2 hr 12 min 30 sec) 
Heartbeat CPU 3 instructions: 370000000 cycles: 250189864 heartbeat IPC: 1.44817 cumulative IPC: 1.37492 (Simulation time: 2 hr 13 min 57 sec) 
Heartbeat CPU 1 instructions: 440000000 cycles: 250440240 heartbeat IPC: 1.67753 cumulative IPC: 1.67712 (Simulation time: 2 hr 14 min 4 sec) 
Heartbeat CPU 4 instructions: 270000000 cycles: 251330058 heartbeat IPC: 0.983411 cumulative IPC: 0.997571 (Simulation time: 2 hr 14 min 27 sec) 
Heartbeat CPU 5 instructions: 500000000 cycles: 252376260 heartbeat IPC: 1.85263 cumulative IPC: 1.90146 (Simulation time: 2 hr 14 min 56 sec) 
Heartbeat CPU 7 instructions: 200000000 cycles: 252539372 heartbeat IPC: 0.519865 cumulative IPC: 0.69969 (Simulation time: 2 hr 15 min 0 sec) 
Heartbeat CPU 2 instructions: 200000000 cycles: 252760032 heartbeat IPC: 0.455428 cumulative IPC: 0.664923 (Simulation time: 2 hr 15 min 7 sec) 
Heartbeat CPU 1 instructions: 450000001 cycles: 256404423 heartbeat IPC: 1.67668 cumulative IPC: 1.67711 (Simulation time: 2 hr 16 min 51 sec) 
Heartbeat CPU 3 instructions: 380000000 cycles: 257119287 heartbeat IPC: 1.44312 cumulative IPC: 1.37692 (Simulation time: 2 hr 17 min 12 sec) 
Heartbeat CPU 5 instructions: 510000003 cycles: 257735886 heartbeat IPC: 1.8658 cumulative IPC: 1.90066 (Simulation time: 2 hr 17 min 29 sec) 
Heartbeat CPU 6 instructions: 130000002 cycles: 259915382 heartbeat IPC: 0.346472 cumulative IPC: 0.387233 (Simulation time: 2 hr 18 min 32 sec) 
Heartbeat CPU 4 instructions: 280000000 cycles: 261321096 heartbeat IPC: 1.0009 cumulative IPC: 0.997709 (Simulation time: 2 hr 19 min 11 sec) 
Heartbeat CPU 1 instructions: 460000000 cycles: 262783431 heartbeat IPC: 1.56764 cumulative IPC: 1.67422 (Simulation time: 2 hr 19 min 53 sec) 
Heartbeat CPU 0 instructions: 60000000 cycles: 263010095 heartbeat IPC: 0.164951 cumulative IPC: 0.165325 (Simulation time: 2 hr 20 min 0 sec) 
Heartbeat CPU 5 instructions: 520000000 cycles: 263073171 heartbeat IPC: 1.87361 cumulative IPC: 1.90006 (Simulation time: 2 hr 20 min 1 sec) 
Heartbeat CPU 3 instructions: 390000003 cycles: 264052715 heartbeat IPC: 1.44229 cumulative IPC: 1.37879 (Simulation time: 2 hr 20 min 30 sec) 
Heartbeat CPU 2 instructions: 210000000 cycles: 266717880 heartbeat IPC: 0.716443 cumulative IPC: 0.667851 (Simulation time: 2 hr 21 min 46 sec) 
Heartbeat CPU 7 instructions: 210000000 cycles: 267016783 heartbeat IPC: 0.690731 cumulative IPC: 0.699163 (Simulation time: 2 hr 21 min 54 sec) 
Heartbeat CPU 5 instructions: 530000003 cycles: 268385689 heartbeat IPC: 1.88235 cumulative IPC: 1.89968 (Simulation time: 2 hr 22 min 33 sec) 
Heartbeat CPU 1 instructions: 470000003 cycles: 268743649 heartbeat IPC: 1.67779 cumulative IPC: 1.67431 (Simulation time: 2 hr 22 min 42 sec) 
Heartbeat CPU 4 instructions: 290000002 cycles: 271317203 heartbeat IPC: 1.00039 cumulative IPC: 0.997816 (Simulation time: 2 hr 23 min 52 sec) 
Heartbeat CPU 5 instructions: 540000000 cycles: 273846434 heartbeat IPC: 1.83125 cumulative IPC: 1.8982 (Simulation time: 2 hr 24 min 57 sec) 
Heartbeat CPU 3 instructions: 400000000 cycles: 274501427 heartbeat IPC: 0.957055 cumulative IPC: 1.3614 (Simulation time: 2 hr 25 min 15 sec) 
Heartbeat CPU 1 instructions: 480000000 cycles: 274711033 heartbeat IPC: 1.67578 cumulative IPC: 1.67434 (Simulation time: 2 hr 25 min 21 sec) 
Heartbeat CPU 5 instructions: 550000001 cycles: 279247560 heartbeat IPC: 1.85147 cumulative IPC: 1.89722 (Simulation time: 2 hr 27 min 32 sec) 
Heartbeat CPU 3 instructions: 410000002 cycles: 279813022 heartbeat IPC: 1.88267 cumulative IPC: 1.3721 (Simulation time: 2 hr 27 min 48 sec) 
Finished CPU 6 instructions: 100000000 cycles: 259332311 cumulative IPC: 0.385606 (Simulation time: 2 hr 28 min 4 sec) 
Heartbeat CPU 1 instructions: 490000003 cycles: 280677569 heartbeat IPC: 1.67601 cumulative IPC: 1.67438 (Simulation time: 2 hr 28 min 12 sec) 
Heartbeat CPU 2 instructions: 220000000 cycles: 280708775 heartbeat IPC: 0.714751 cumulative IPC: 0.670378 (Simulation time: 2 hr 28 min 13 sec) 
Heartbeat CPU 4 instructions: 300000000 cycles: 281536476 heartbeat IPC: 0.978543 cumulative IPC: 0.99706 (Simulation time: 2 hr 28 min 35 sec) 
Heartbeat CPU 7 instructions: 220000000 cycles: 284578752 heartbeat IPC: 0.569412 cumulative IPC: 0.690516 (Simulation time: 2 hr 29 min 55 sec) 
Heartbeat CPU 5 instructions: 560000000 cycles: 284721914 heartbeat IPC: 1.8267 cumulative IPC: 1.89576 (Simulation time: 2 hr 29 min 59 sec) 
Heartbeat CPU 1 instructions: 500000000 cycles: 286643518 heartbeat IPC: 1.67618 cumulative IPC: 1.67442 (Simulation time: 2 hr 30 min 50 sec) 
Heartbeat CPU 6 instructions: 140000000 cycles: 287080045 heartbeat IPC: 0.368125 cumulative IPC: 0.385282 (Simulation time: 2 hr 31 min 2 sec) 
Heartbeat CPU 3 instructions: 420000000 cycles: 287483394 heartbeat IPC: 1.30372 cumulative IPC: 1.37013 (Simulation time: 2 hr 31 min 12 sec) 
Heartbeat CPU 5 instructions: 570000002 cycles: 290204596 heartbeat IPC: 1.82393 cumulative IPC: 1.8943 (Simulation time: 2 hr 32 min 25 sec) 
Heartbeat CPU 4 instructions: 310000003 cycles: 291925737 heartbeat IPC: 0.962533 cumulative IPC: 0.995736 (Simulation time: 2 hr 33 min 12 sec) 
Heartbeat CPU 1 instructions: 510000003 cycles: 292613470 heartbeat IPC: 1.67506 cumulative IPC: 1.67444 (Simulation time: 2 hr 33 min 31 sec) 
Heartbeat CPU 2 instructions: 230000001 cycles: 294637979 heartbeat IPC: 0.717916 cumulative IPC: 0.672798 (Simulation time: 2 hr 34 min 26 sec) 
Heartbeat CPU 3 instructions: 430000000 cycles: 294897008 heartbeat IPC: 1.34887 cumulative IPC: 1.36956 (Simulation time: 2 hr 34 min 33 sec) 
Heartbeat CPU 5 instructions: 580000000 cycles: 295613021 heartbeat IPC: 1.84897 cumulative IPC: 1.8934 (Simulation time: 2 hr 34 min 53 sec) 
Heartbeat CPU 1 instructions: 520000000 cycles: 298583917 heartbeat IPC: 1.67492 cumulative IPC: 1.67445 (Simulation time: 2 hr 36 min 14 sec) 
Heartbeat CPU 5 instructions: 590000000 cycles: 301052892 heartbeat IPC: 1.83828 cumulative IPC: 1.89233 (Simulation time: 2 hr 37 min 22 sec) 
Heartbeat CPU 3 instructions: 440000000 cycles: 301669772 heartbeat IPC: 1.4765 cumulative IPC: 1.37214 (Simulation time: 2 hr 37 min 39 sec) 
Heartbeat CPU 4 instructions: 320000000 cycles: 301957298 heartbeat IPC: 0.996854 cumulative IPC: 0.995776 (Simulation time: 2 hr 37 min 47 sec) 
Heartbeat CPU 1 instructions: 530000002 cycles: 304548059 heartbeat IPC: 1.67669 cumulative IPC: 1.67449 (Simulation time: 2 hr 38 min 59 sec) 
Heartbeat CPU 7 instructions: 230000001 cycles: 304911121 heartbeat IPC: 0.491827 cumulative IPC: 0.676283 (Simulation time: 2 hr 39 min 9 sec) 
Heartbeat CPU 5 instructions: 600000000 cycles: 306409863 heartbeat IPC: 1.86673 cumulative IPC: 1.89185 (Simulation time: 2 hr 39 min 50 sec) 
Heartbeat CPU 3 instructions: 450000002 cycles: 308307516 heartbeat IPC: 1.50654 cumulative IPC: 1.37524 (Simulation time: 2 hr 40 min 43 sec) 
Heartbeat CPU 2 instructions: 240000000 cycles: 308671661 heartbeat IPC: 0.712571 cumulative IPC: 0.674739 (Simulation time: 2 hr 40 min 53 sec) 
Heartbeat CPU 6 instructions: 150000000 cycles: 309649814 heartbeat IPC: 0.443071 cumulative IPC: 0.389802 (Simulation time: 2 hr 41 min 20 sec) 
Heartbeat CPU 1 instructions: 540000000 cycles: 310507081 heartbeat IPC: 1.67813 cumulative IPC: 1.67457 (Simulation time: 2 hr 41 min 44 sec) 
Heartbeat CPU 5 instructions: 610000000 cycles: 311679479 heartbeat IPC: 1.89767 cumulative IPC: 1.89196 (Simulation time: 2 hr 42 min 16 sec) 
Heartbeat CPU 4 instructions: 330000000 cycles: 311831935 heartbeat IPC: 1.0127 cumulative IPC: 0.99635 (Simulation time: 2 hr 42 min 20 sec) 
Heartbeat CPU 3 instructions: 460000000 cycles: 315065660 heartbeat IPC: 1.4797 cumulative IPC: 1.37764 (Simulation time: 2 hr 43 min 56 sec) 
Heartbeat CPU 1 instructions: 550000002 cycles: 316468454 heartbeat IPC: 1.67747 cumulative IPC: 1.67463 (Simulation time: 2 hr 44 min 37 sec) 
Heartbeat CPU 5 instructions: 620000000 cycles: 316997468 heartbeat IPC: 1.88041 cumulative IPC: 1.89175 (Simulation time: 2 hr 44 min 53 sec) 
Heartbeat CPU 7 instructions: 240000000 cycles: 321696845 heartbeat IPC: 0.595744 cumulative IPC: 0.671786 (Simulation time: 2 hr 47 min 11 sec) 
Heartbeat CPU 3 instructions: 470000000 cycles: 321861398 heartbeat IPC: 1.47151 cumulative IPC: 1.37976 (Simulation time: 2 hr 47 min 16 sec) 
Heartbeat CPU 4 instructions: 340000000 cycles: 321940999 heartbeat IPC: 0.989211 cumulative IPC: 0.99611 (Simulation time: 2 hr 47 min 18 sec) 
Heartbeat CPU 5 instructions: 630000001 cycles: 322286708 heartbeat IPC: 1.89063 cumulative IPC: 1.89173 (Simulation time: 2 hr 47 min 28 sec) 
Heartbeat CPU 1 instructions: 560000000 cycles: 322429128 heartbeat IPC: 1.67766 cumulative IPC: 1.67469 (Simulation time: 2 hr 47 min 33 sec) 
Heartbeat CPU 2 instructions: 250000001 cycles: 322565552 heartbeat IPC: 0.719741 cumulative IPC: 0.676813 (Simulation time: 2 hr 47 min 36 sec) 
Heartbeat CPU 0 instructions: 70000000 cycles: 323980065 heartbeat IPC: 0.164015 cumulative IPC: 0.165061 (Simulation time: 2 hr 48 min 18 sec) 
Heartbeat CPU 5 instructions: 640000000 cycles: 327594968 heartbeat IPC: 1.88386 cumulative IPC: 1.89159 (Simulation time: 2 hr 50 min 5 sec) 
Heartbeat CPU 6 instructions: 160000000 cycles: 327962743 heartbeat IPC: 0.546062 cumulative IPC: 0.399126 (Simulation time: 2 hr 50 min 15 sec) 
Heartbeat CPU 1 instructions: 570000001 cycles: 328393066 heartbeat IPC: 1.67674 cumulative IPC: 1.67473 (Simulation time: 2 hr 50 min 28 sec) 
Heartbeat CPU 3 instructions: 480000000 cycles: 328577460 heartbeat IPC: 1.48897 cumulative IPC: 1.38215 (Simulation time: 2 hr 50 min 33 sec) 
Heartbeat CPU 4 instructions: 350000002 cycles: 331925416 heartbeat IPC: 1.00156 cumulative IPC: 0.996285 (Simulation time: 2 hr 52 min 10 sec) 
Heartbeat CPU 5 instructions: 650000001 cycles: 332937428 heartbeat IPC: 1.8718 cumulative IPC: 1.89125 (Simulation time: 2 hr 52 min 39 sec) 
Heartbeat CPU 1 instructions: 580000000 cycles: 334356390 heartbeat IPC: 1.67692 cumulative IPC: 1.67477 (Simulation time: 2 hr 53 min 20 sec) 
Heartbeat CPU 3 instructions: 490000002 cycles: 335444831 heartbeat IPC: 1.45616 cumulative IPC: 1.38377 (Simulation time: 2 hr 53 min 51 sec) 
Heartbeat CPU 7 instructions: 250000003 cycles: 336127828 heartbeat IPC: 0.692954 cumulative IPC: 0.672756 (Simulation time: 2 hr 54 min 11 sec) 
Heartbeat CPU 2 instructions: 260000000 cycles: 336588372 heartbeat IPC: 0.713123 cumulative IPC: 0.678427 (Simulation time: 2 hr 54 min 24 sec) 
Heartbeat CPU 5 instructions: 660000000 cycles: 338299896 heartbeat IPC: 1.86481 cumulative IPC: 1.89081 (Simulation time: 2 hr 55 min 13 sec) 
Heartbeat CPU 1 instructions: 590000001 cycles: 340317846 heartbeat IPC: 1.67744 cumulative IPC: 1.67482 (Simulation time: 2 hr 56 min 11 sec) 
Heartbeat CPU 4 instructions: 360000000 cycles: 341880202 heartbeat IPC: 1.00454 cumulative IPC: 0.996542 (Simulation time: 2 hr 56 min 56 sec) 
Heartbeat CPU 3 instructions: 500000000 cycles: 342204138 heartbeat IPC: 1.47944 cumulative IPC: 1.38578 (Simulation time: 2 hr 57 min 5 sec) 
Heartbeat CPU 5 instructions: 670000002 cycles: 343692154 heartbeat IPC: 1.85451 cumulative IPC: 1.8902 (Simulation time: 2 hr 57 min 45 sec) 
Heartbeat CPU 1 instructions: 600000000 cycles: 346278728 heartbeat IPC: 1.6776 cumulative IPC: 1.67487 (Simulation time: 2 hr 58 min 50 sec) 
Heartbeat CPU 3 instructions: 510000001 cycles: 349081919 heartbeat IPC: 1.45396 cumulative IPC: 1.38721 (Simulation time: 2 hr 59 min 59 sec) 
Heartbeat CPU 5 instructions: 680000000 cycles: 349279122 heartbeat IPC: 1.78988 cumulative IPC: 1.88849 (Simulation time: 3 hr 0 min 4 sec) 
Heartbeat CPU 7 instructions: 260000000 cycles: 350469246 heartbeat IPC: 0.697281 cumulative IPC: 0.673824 (Simulation time: 3 hr 0 min 35 sec) 
Heartbeat CPU 6 instructions: 170000000 cycles: 350533140 heartbeat IPC: 0.443058 cumulative IPC: 0.402135 (Simulation time: 3 hr 0 min 36 sec) 
Heartbeat CPU 1 instructions: 610000002 cycles: 352240451 heartbeat IPC: 1.67737 cumulative IPC: 1.67492 (Simulation time: 3 hr 1 min 20 sec) 
Heartbeat CPU 4 instructions: 370000000 cycles: 352576419 heartbeat IPC: 0.93491 cumulative IPC: 0.994553 (Simulation time: 3 hr 1 min 29 sec) 
Heartbeat CPU 5 instructions: 690000000 cycles: 354839471 heartbeat IPC: 1.79845 cumulative IPC: 1.88699 (Simulation time: 3 hr 2 min 29 sec) 
Heartbeat CPU 3 instructions: 520000000 cycles: 355784968 heartbeat IPC: 1.49186 cumulative IPC: 1.38931 (Simulation time: 3 hr 2 min 56 sec) 
Heartbeat CPU 1 instructions: 620000000 cycles: 358206146 heartbeat IPC: 1.67625 cumulative IPC: 1.67494 (Simulation time: 3 hr 4 min 4 sec) 
Heartbeat CPU 2 instructions: 270000001 cycles: 358833579 heartbeat IPC: 0.449535 cumulative IPC: 0.663352 (Simulation time: 3 hr 4 min 21 sec) 
Heartbeat CPU 7 instructions: 270000000 cycles: 359862014 heartbeat IPC: 1.06465 cumulative IPC: 0.684659 (Simulation time: 3 hr 4 min 50 sec) 
Heartbeat CPU 5 instructions: 700000000 cycles: 360179489 heartbeat IPC: 1.87265 cumulative IPC: 1.88677 (Simulation time: 3 hr 4 min 59 sec) 
Heartbeat CPU 3 instructions: 530000000 cycles: 362412224 heartbeat IPC: 1.50892 cumulative IPC: 1.39163 (Simulation time: 3 hr 6 min 1 sec) 
Heartbeat CPU 4 instructions: 380000000 cycles: 362419330 heartbeat IPC: 1.01596 cumulative IPC: 0.99517 (Simulation time: 3 hr 6 min 1 sec) 
Heartbeat CPU 1 instructions: 630000002 cycles: 364168679 heartbeat IPC: 1.67714 cumulative IPC: 1.67498 (Simulation time: 3 hr 6 min 50 sec) 
Heartbeat CPU 5 instructions: 710000001 cycles: 365482789 heartbeat IPC: 1.88562 cumulative IPC: 1.88675 (Simulation time: 3 hr 7 min 26 sec) 
Heartbeat CPU 7 instructions: 280000000 cycles: 368970763 heartbeat IPC: 1.09785 cumulative IPC: 0.695477 (Simulation time: 3 hr 9 min 3 sec) 
Heartbeat CPU 3 instructions: 540000000 cycles: 369087388 heartbeat IPC: 1.49809 cumulative IPC: 1.39367 (Simulation time: 3 hr 9 min 6 sec) 
Heartbeat CPU 1 instructions: 640000000 cycles: 370125672 heartbeat IPC: 1.6787 cumulative IPC: 1.67504 (Simulation time: 3 hr 9 min 36 sec) 
Heartbeat CPU 5 instructions: 720000000 cycles: 370805892 heartbeat IPC: 1.8786 cumulative IPC: 1.88663 (Simulation time: 3 hr 9 min 55 sec) 
Heartbeat CPU 4 instructions: 390000001 cycles: 372236584 heartbeat IPC: 1.01861 cumulative IPC: 0.995826 (Simulation time: 3 hr 10 min 35 sec) 
Heartbeat CPU 2 instructions: 280000000 cycles: 372711488 heartbeat IPC: 0.72057 cumulative IPC: 0.66561 (Simulation time: 3 hr 10 min 49 sec) 
Heartbeat CPU 3 instructions: 550000003 cycles: 375590446 heartbeat IPC: 1.53774 cumulative IPC: 1.39631 (Simulation time: 3 hr 12 min 10 sec) 
Heartbeat CPU 5 instructions: 730000000 cycles: 376061787 heartbeat IPC: 1.90263 cumulative IPC: 1.88686 (Simulation time: 3 hr 12 min 23 sec) 
Heartbeat CPU 1 instructions: 650000003 cycles: 376080774 heartbeat IPC: 1.67923 cumulative IPC: 1.67511 (Simulation time: 3 hr 12 min 24 sec) 
Heartbeat CPU 7 instructions: 290000000 cycles: 379271830 heartbeat IPC: 0.970773 cumulative IPC: 0.703393 (Simulation time: 3 hr 13 min 51 sec) 
Heartbeat CPU 5 instructions: 740000000 cycles: 381357812 heartbeat IPC: 1.88821 cumulative IPC: 1.88688 (Simulation time: 3 hr 14 min 49 sec) 
Heartbeat CPU 1 instructions: 660000000 cycles: 382041283 heartbeat IPC: 1.67771 cumulative IPC: 1.67515 (Simulation time: 3 hr 15 min 7 sec) 
Heartbeat CPU 4 instructions: 400000000 cycles: 382137898 heartbeat IPC: 1.00997 cumulative IPC: 0.996213 (Simulation time: 3 hr 15 min 10 sec) 
Heartbeat CPU 3 instructions: 560000000 cycles: 382163373 heartbeat IPC: 1.52139 cumulative IPC: 1.39859 (Simulation time: 3 hr 15 min 11 sec) 
Heartbeat CPU 6 instructions: 180000000 cycles: 382621401 heartbeat IPC: 0.31164 cumulative IPC: 0.394104 (Simulation time: 3 hr 15 min 23 sec) 
Heartbeat CPU 0 instructions: 80000000 cycles: 384862142 heartbeat IPC: 0.164252 cumulative IPC: 0.164926 (Simulation time: 3 hr 16 min 23 sec) 
Heartbeat CPU 2 instructions: 290000002 cycles: 386757502 heartbeat IPC: 0.711946 cumulative IPC: 0.66739 (Simulation time: 3 hr 17 min 8 sec) 
Heartbeat CPU 5 instructions: 750000001 cycles: 386787695 heartbeat IPC: 1.84166 cumulative IPC: 1.88621 (Simulation time: 3 hr 17 min 9 sec) 
Heartbeat CPU 1 instructions: 670000002 cycles: 388004645 heartbeat IPC: 1.67691 cumulative IPC: 1.67518 (Simulation time: 3 hr 17 min 38 sec) 
Heartbeat CPU 3 instructions: 570000001 cycles: 392023818 heartbeat IPC: 1.01415 cumulative IPC: 1.38837 (Simulation time: 3 hr 19 min 28 sec) 
Heartbeat CPU 5 instructions: 760000000 cycles: 392149014 heartbeat IPC: 1.86521 cumulative IPC: 1.88591 (Simulation time: 3 hr 19 min 32 sec) 
Heartbeat CPU 4 instructions: 410000002 cycles: 392620336 heartbeat IPC: 0.953977 cumulative IPC: 0.995022 (Simulation time: 3 hr 19 min 46 sec) 
Heartbeat CPU 1 instructions: 680000000 cycles: 393969719 heartbeat IPC: 1.67642 cumulative IPC: 1.6752 (Simulation time: 3 hr 20 min 24 sec) 
Heartbeat CPU 7 instructions: 300000000 cycles: 396484503 heartbeat IPC: 0.580967 cumulative IPC: 0.69778 (Simulation time: 3 hr 21 min 33 sec) 
Heartbeat CPU 5 instructions: 770000001 cycles: 397462459 heartbeat IPC: 1.88202 cumulative IPC: 1.88585 (Simulation time: 3 hr 21 min 59 sec) 
Heartbeat CPU 3 instructions: 580000000 cycles: 397930492 heartbeat IPC: 1.693 cumulative IPC: 1.39314 (Simulation time: 3 hr 22 min 11 sec) 
Heartbeat CPU 1 instructions: 690000001 cycles: 399934288 heartbeat IPC: 1.67657 cumulative IPC: 1.67522 (Simulation time: 3 hr 23 min 5 sec) 
Heartbeat CPU 2 instructions: 300000000 cycles: 400662883 heartbeat IPC: 0.719146 cumulative IPC: 0.669286 (Simulation time: 3 hr 23 min 25 sec) 
Heartbeat CPU 4 instructions: 420000000 cycles: 402687089 heartbeat IPC: 0.993369 cumulative IPC: 0.994978 (Simulation time: 3 hr 24 min 19 sec) 
Heartbeat CPU 5 instructions: 780000000 cycles: 402876791 heartbeat IPC: 1.84695 cumulative IPC: 1.8853 (Simulation time: 3 hr 24 min 25 sec) 
Heartbeat CPU 3 instructions: 590000002 cycles: 405354297 heartbeat IPC: 1.34702 cumulative IPC: 1.39225 (Simulation time: 3 hr 25 min 32 sec) 
Heartbeat CPU 1 instructions: 700000000 cycles: 405896222 heartbeat IPC: 1.67731 cumulative IPC: 1.67526 (Simulation time: 3 hr 25 min 47 sec) 
Heartbeat CPU 5 instructions: 790000001 cycles: 408303278 heartbeat IPC: 1.84281 cumulative IPC: 1.88471 (Simulation time: 3 hr 26 min 52 sec) 
Heartbeat CPU 7 instructions: 310000002 cycles: 409771930 heartbeat IPC: 0.752591 cumulative IPC: 0.699654 (Simulation time: 3 hr 27 min 33 sec) 
Heartbeat CPU 1 instructions: 710000000 cycles: 411856676 heartbeat IPC: 1.67772 cumulative IPC: 1.67529 (Simulation time: 3 hr 28 min 29 sec) 
Heartbeat CPU 3 instructions: 600000000 cycles: 412716770 heartbeat IPC: 1.35824 cumulative IPC: 1.39161 (Simulation time: 3 hr 28 min 52 sec) 
Heartbeat CPU 4 instructions: 430000001 cycles: 412716965 heartbeat IPC: 0.997021 cumulative IPC: 0.995031 (Simulation time: 3 hr 28 min 52 sec) 
Heartbeat CPU 6 instructions: 190000000 cycles: 412865710 heartbeat IPC: 0.330641 cumulative IPC: 0.389205 (Simulation time: 3 hr 28 min 56 sec) 
Heartbeat CPU 5 instructions: 800000000 cycles: 413714686 heartbeat IPC: 1.84795 cumulative IPC: 1.8842 (Simulation time: 3 hr 29 min 19 sec) 
Heartbeat CPU 2 instructions: 310000003 cycles: 414657496 heartbeat IPC: 0.714561 cumulative IPC: 0.670896 (Simulation time: 3 hr 29 min 45 sec) 
Heartbeat CPU 1 instructions: 720000000 cycles: 417818386 heartbeat IPC: 1.67737 cumulative IPC: 1.67532 (Simulation time: 3 hr 31 min 10 sec) 
Heartbeat CPU 5 instructions: 810000002 cycles: 419136497 heartbeat IPC: 1.8444 cumulative IPC: 1.88366 (Simulation time: 3 hr 31 min 46 sec) 
Heartbeat CPU 3 instructions: 610000001 cycles: 420217610 heartbeat IPC: 1.33318 cumulative IPC: 1.39052 (Simulation time: 3 hr 32 min 16 sec) 
Heartbeat CPU 4 instructions: 440000000 cycles: 422786107 heartbeat IPC: 0.993133 cumulative IPC: 0.994983 (Simulation time: 3 hr 33 min 27 sec) 
Heartbeat CPU 7 instructions: 320000000 cycles: 423326865 heartbeat IPC: 0.737739 cumulative IPC: 0.700937 (Simulation time: 3 hr 33 min 41 sec) 
Heartbeat CPU 1 instructions: 730000001 cycles: 423781990 heartbeat IPC: 1.67684 cumulative IPC: 1.67535 (Simulation time: 3 hr 33 min 54 sec) 
Heartbeat CPU 5 instructions: 820000000 cycles: 424550414 heartbeat IPC: 1.84709 cumulative IPC: 1.88317 (Simulation time: 3 hr 34 min 15 sec) 
Heartbeat CPU 3 instructions: 620000000 cycles: 427628726 heartbeat IPC: 1.34932 cumulative IPC: 1.38977 (Simulation time: 3 hr 35 min 41 sec) 
Heartbeat CPU 2 instructions: 320000000 cycles: 428603515 heartbeat IPC: 0.71705 cumulative IPC: 0.672475 (Simulation time: 3 hr 36 min 8 sec) 
Heartbeat CPU 1 instructions: 740000000 cycles: 429743196 heartbeat IPC: 1.67751 cumulative IPC: 1.67538 (Simulation time: 3 hr 36 min 40 sec) 
Heartbeat CPU 5 instructions: 830000000 cycles: 429928102 heartbeat IPC: 1.85954 cumulative IPC: 1.88286 (Simulation time: 3 hr 36 min 45 sec) 
Heartbeat CPU 4 instructions: 450000000 cycles: 432727656 heartbeat IPC: 1.00588 cumulative IPC: 0.995246 (Simulation time: 3 hr 38 min 3 sec) 
Heartbeat CPU 7 instructions: 330000003 cycles: 434360082 heartbeat IPC: 0.906354 cumulative IPC: 0.706421 (Simulation time: 3 hr 38 min 47 sec) 
Heartbeat CPU 3 instructions: 630000001 cycles: 435040326 heartbeat IPC: 1.34924 cumulative IPC: 1.38904 (Simulation time: 3 hr 39 min 6 sec) 
Heartbeat CPU 5 instructions: 840000000 cycles: 435296666 heartbeat IPC: 1.8627 cumulative IPC: 1.88259 (Simulation time: 3 hr 39 min 13 sec) 
Heartbeat CPU 1 instructions: 750000003 cycles: 435706255 heartbeat IPC: 1.67699 cumulative IPC: 1.6754 (Simulation time: 3 hr 39 min 24 sec) 
Heartbeat CPU 6 instructions: 200000000 cycles: 437061794 heartbeat IPC: 0.41329 cumulative IPC: 0.390606 (Simulation time: 3 hr 40 min 1 sec) 
Heartbeat CPU 5 instructions: 850000001 cycles: 440635466 heartbeat IPC: 1.87308 cumulative IPC: 1.88247 (Simulation time: 3 hr 41 min 38 sec) 
Heartbeat CPU 1 instructions: 760000000 cycles: 441667187 heartbeat IPC: 1.67759 cumulative IPC: 1.67543 (Simulation time: 3 hr 42 min 6 sec) 
Heartbeat CPU 3 instructions: 640000000 cycles: 442436550 heartbeat IPC: 1.35204 cumulative IPC: 1.38839 (Simulation time: 3 hr 42 min 27 sec) 
Heartbeat CPU 2 instructions: 330000003 cycles: 442535868 heartbeat IPC: 0.717754 cumulative IPC: 0.673972 (Simulation time: 3 hr 42 min 30 sec) 
Heartbeat CPU 4 instructions: 460000000 cycles: 442768699 heartbeat IPC: 0.995912 cumulative IPC: 0.995262 (Simulation time: 3 hr 42 min 36 sec) 
Heartbeat CPU 5 instructions: 860000000 cycles: 445986745 heartbeat IPC: 1.86871 cumulative IPC: 1.8823 (Simulation time: 3 hr 44 min 1 sec) 
Heartbeat CPU 0 instructions: 90000003 cycles: 445999084 heartbeat IPC: 0.163567 cumulative IPC: 0.16473 (Simulation time: 3 hr 44 min 2 sec) 
Heartbeat CPU 1 instructions: 770000000 cycles: 447632475 heartbeat IPC: 1.67637 cumulative IPC: 1.67545 (Simulation time: 3 hr 44 min 44 sec) 
Heartbeat CPU 3 instructions: 650000000 cycles: 449822774 heartbeat IPC: 1.35387 cumulative IPC: 1.3878 (Simulation time: 3 hr 45 min 40 sec) 
Heartbeat CPU 7 instructions: 340000000 cycles: 450525440 heartbeat IPC: 0.618607 cumulative IPC: 0.703116 (Simulation time: 3 hr 45 min 58 sec) 
Heartbeat CPU 5 instructions: 870000003 cycles: 451360694 heartbeat IPC: 1.86083 cumulative IPC: 1.88203 (Simulation time: 3 hr 46 min 20 sec) 
Heartbeat CPU 4 instructions: 470000001 cycles: 452839076 heartbeat IPC: 0.993012 cumulative IPC: 0.99521 (Simulation time: 3 hr 47 min 0 sec) 
Heartbeat CPU 1 instructions: 780000000 cycles: 453593160 heartbeat IPC: 1.67766 cumulative IPC: 1.67548 (Simulation time: 3 hr 47 min 21 sec) 
Heartbeat CPU 5 instructions: 880000000 cycles: 456821831 heartbeat IPC: 1.83112 cumulative IPC: 1.88139 (Simulation time: 3 hr 48 min 44 sec) 
Heartbeat CPU 3 instructions: 660000000 cycles: 457152638 heartbeat IPC: 1.36428 cumulative IPC: 1.3874 (Simulation time: 3 hr 48 min 52 sec) 
Heartbeat CPU 1 instructions: 790000000 cycles: 459557273 heartbeat IPC: 1.6767 cumulative IPC: 1.67549 (Simulation time: 3 hr 49 min 44 sec) 
Heartbeat CPU 5 instructions: 890000000 cycles: 462668424 heartbeat IPC: 1.7104 cumulative IPC: 1.87913 (Simulation time: 3 hr 50 min 50 sec) 
Heartbeat CPU 4 instructions: 480000000 cycles: 463711874 heartbeat IPC: 0.919726 cumulative IPC: 0.993355 (Simulation time: 3 hr 51 min 17 sec) 
Heartbeat CPU 2 instructions: 340000000 cycles: 464076530 heartbeat IPC: 0.464238 cumulative IPC: 0.663774 (Simulation time: 3 hr 51 min 26 sec) 
Heartbeat CPU 1 instructions: 800000000 cycles: 465524757 heartbeat IPC: 1.67575 cumulative IPC: 1.6755 (Simulation time: 3 hr 52 min 2 sec) 
Heartbeat CPU 3 instructions: 670000002 cycles: 467642359 heartbeat IPC: 0.953314 cumulative IPC: 1.3772 (Simulation time: 3 hr 52 min 56 sec) 
Heartbeat CPU 5 instructions: 900000000 cycles: 468363559 heartbeat IPC: 1.75588 cumulative IPC: 1.87756 (Simulation time: 3 hr 53 min 16 sec) 
Heartbeat CPU 7 instructions: 350000003 cycles: 471031176 heartbeat IPC: 0.487669 cumulative IPC: 0.693297 (Simulation time: 3 hr 54 min 25 sec) 
Heartbeat CPU 1 instructions: 810000000 cycles: 471487632 heartbeat IPC: 1.67704 cumulative IPC: 1.67552 (Simulation time: 3 hr 54 min 37 sec) 
Heartbeat CPU 6 instructions: 210000000 cycles: 472201163 heartbeat IPC: 0.284581 cumulative IPC: 0.382348 (Simulation time: 3 hr 54 min 55 sec) 
Heartbeat CPU 5 instructions: 910000001 cycles: 473864477 heartbeat IPC: 1.81788 cumulative IPC: 1.87684 (Simulation time: 3 hr 55 min 37 sec) 
Heartbeat CPU 4 instructions: 490000001 cycles: 474244280 heartbeat IPC: 0.949451 cumulative IPC: 0.992335 (Simulation time: 3 hr 55 min 47 sec) 
Heartbeat CPU 3 instructions: 680000000 cycles: 475424250 heartbeat IPC: 1.28503 cumulative IPC: 1.37563 (Simulation time: 3 hr 56 min 18 sec) 
Heartbeat CPU 1 instructions: 820000000 cycles: 477452572 heartbeat IPC: 1.67646 cumulative IPC: 1.67553 (Simulation time: 3 hr 57 min 12 sec) 
Heartbeat CPU 5 instructions: 920000000 cycles: 479374822 heartbeat IPC: 1.81477 cumulative IPC: 1.87609 (Simulation time: 3 hr 58 min 4 sec) 
Heartbeat CPU 2 instructions: 350000000 cycles: 479662246 heartbeat IPC: 0.641613 cumulative IPC: 0.663021 (Simulation time: 3 hr 58 min 12 sec) 
Heartbeat CPU 3 instructions: 690000000 cycles: 482951971 heartbeat IPC: 1.32842 cumulative IPC: 1.37486 (Simulation time: 3 hr 59 min 43 sec) 
Heartbeat CPU 1 instructions: 830000003 cycles: 483414011 heartbeat IPC: 1.67745 cumulative IPC: 1.67555 (Simulation time: 3 hr 59 min 55 sec) 
Heartbeat CPU 4 instructions: 500000000 cycles: 484503674 heartbeat IPC: 0.974716 cumulative IPC: 0.991945 (Simulation time: 4 hr 0 min 25 sec) 
Heartbeat CPU 5 instructions: 930000001 cycles: 484881825 heartbeat IPC: 1.81587 cumulative IPC: 1.87537 (Simulation time: 4 hr 0 min 36 sec) 
Heartbeat CPU 7 instructions: 360000000 cycles: 486872825 heartbeat IPC: 0.631247 cumulative IPC: 0.691187 (Simulation time: 4 hr 1 min 31 sec) 
Heartbeat CPU 1 instructions: 840000000 cycles: 489380002 heartbeat IPC: 1.67617 cumulative IPC: 1.67556 (Simulation time: 4 hr 2 min 40 sec) 
Heartbeat CPU 3 instructions: 700000000 cycles: 490333472 heartbeat IPC: 1.35474 cumulative IPC: 1.37454 (Simulation time: 4 hr 3 min 6 sec) 
Heartbeat CPU 5 instructions: 940000000 cycles: 490353997 heartbeat IPC: 1.82743 cumulative IPC: 1.87481 (Simulation time: 4 hr 3 min 7 sec) 
Heartbeat CPU 2 instructions: 360000000 cycles: 493631141 heartbeat IPC: 0.715876 cumulative IPC: 0.664583 (Simulation time: 4 hr 4 min 38 sec) 
Heartbeat CPU 4 instructions: 510000001 cycles: 494416791 heartbeat IPC: 1.00876 cumulative IPC: 0.992297 (Simulation time: 4 hr 4 min 59 sec) 
Heartbeat CPU 1 instructions: 850000003 cycles: 495343234 heartbeat IPC: 1.67694 cumulative IPC: 1.67558 (Simulation time: 4 hr 5 min 25 sec) 
Heartbeat CPU 5 instructions: 950000003 cycles: 495813012 heartbeat IPC: 1.83183 cumulative IPC: 1.87432 (Simulation time: 4 hr 5 min 38 sec) 
Heartbeat CPU 3 instructions: 710000000 cycles: 497703697 heartbeat IPC: 1.35681 cumulative IPC: 1.37427 (Simulation time: 4 hr 6 min 30 sec) 
Heartbeat CPU 5 instructions: 960000000 cycles: 501198575 heartbeat IPC: 1.85682 cumulative IPC: 1.87412 (Simulation time: 4 hr 8 min 7 sec) 
Heartbeat CPU 1 instructions: 860000000 cycles: 501304001 heartbeat IPC: 1.67764 cumulative IPC: 1.6756 (Simulation time: 4 hr 8 min 9 sec) 
Heartbeat CPU 7 instructions: 370000000 cycles: 502436230 heartbeat IPC: 0.642533 cumulative IPC: 0.689614 (Simulation time: 4 hr 8 min 41 sec) 
Heartbeat CPU 6 instructions: 220000000 cycles: 503945788 heartbeat IPC: 0.315014 cumulative IPC: 0.377921 (Simulation time: 4 hr 9 min 23 sec) 
Heartbeat CPU 4 instructions: 520000000 cycles: 504312874 heartbeat IPC: 1.0105 cumulative IPC: 0.99267 (Simulation time: 4 hr 9 min 33 sec) 
Heartbeat CPU 3 instructions: 720000000 cycles: 505067754 heartbeat IPC: 1.35795 cumulative IPC: 1.37402 (Simulation time: 4 hr 9 min 54 sec) 
Heartbeat CPU 5 instructions: 970000001 cycles: 506550123 heartbeat IPC: 1.86862 cumulative IPC: 1.87406 (Simulation time: 4 hr 10 min 35 sec) 
Heartbeat CPU 1 instructions: 870000000 cycles: 507261925 heartbeat IPC: 1.67844 cumulative IPC: 1.67564 (Simulation time: 4 hr 10 min 55 sec) 
Heartbeat CPU 2 instructions: 370000003 cycles: 507556478 heartbeat IPC: 0.718116 cumulative IPC: 0.666115 (Simulation time: 4 hr 11 min 3 sec) 
Heartbeat CPU 0 instructions: 100000000 cycles: 509162974 heartbeat IPC: 0.158318 cumulative IPC: 0.163901 (Simulation time: 4 hr 11 min 48 sec) 
Heartbeat CPU 5 instructions: 980000000 cycles: 511894781 heartbeat IPC: 1.87103 cumulative IPC: 1.87403 (Simulation time: 4 hr 13 min 4 sec) 
Heartbeat CPU 3 instructions: 730000000 cycles: 512487929 heartbeat IPC: 1.34768 cumulative IPC: 1.37362 (Simulation time: 4 hr 13 min 20 sec) 
Heartbeat CPU 1 instructions: 880000000 cycles: 513222879 heartbeat IPC: 1.67758 cumulative IPC: 1.67566 (Simulation time: 4 hr 13 min 41 sec) 
Heartbeat CPU 4 instructions: 530000001 cycles: 514163734 heartbeat IPC: 1.01514 cumulative IPC: 0.993119 (Simulation time: 4 hr 14 min 7 sec) 
Heartbeat CPU 5 instructions: 990000001 cycles: 517244278 heartbeat IPC: 1.86933 cumulative IPC: 1.87398 (Simulation time: 4 hr 15 min 32 sec) 
Heartbeat CPU 7 instructions: 380000000 cycles: 517528331 heartbeat IPC: 0.662598 cumulative IPC: 0.688793 (Simulation time: 4 hr 15 min 40 sec) 
Heartbeat CPU 1 instructions: 890000002 cycles: 519181930 heartbeat IPC: 1.67812 cumulative IPC: 1.67569 (Simulation time: 4 hr 16 min 26 sec) 
Heartbeat CPU 3 instructions: 740000000 cycles: 519849504 heartbeat IPC: 1.3584 cumulative IPC: 1.3734 (Simulation time: 4 hr 16 min 44 sec) 
Heartbeat CPU 2 instructions: 380000000 cycles: 521468819 heartbeat IPC: 0.718786 cumulative IPC: 0.66758 (Simulation time: 4 hr 17 min 29 sec) 
Heartbeat CPU 5 instructions: 1000000000 cycles: 522550336 heartbeat IPC: 1.88464 cumulative IPC: 1.87409 (Simulation time: 4 hr 18 min 0 sec) 
Heartbeat CPU 4 instructions: 540000000 cycles: 524055803 heartbeat IPC: 1.01091 cumulative IPC: 0.993469 (Simulation time: 4 hr 18 min 42 sec) 
Heartbeat CPU 1 instructions: 900000000 cycles: 525144728 heartbeat IPC: 1.67706 cumulative IPC: 1.67571 (Simulation time: 4 hr 19 min 13 sec) 
Heartbeat CPU 3 instructions: 750000003 cycles: 527195404 heartbeat IPC: 1.3613 cumulative IPC: 1.37322 (Simulation time: 4 hr 20 min 10 sec) 
Heartbeat CPU 5 instructions: 1010000003 cycles: 527854542 heartbeat IPC: 1.8853 cumulative IPC: 1.87421 (Simulation time: 4 hr 20 min 28 sec) 
Heartbeat CPU 1 instructions: 910000002 cycles: 531104554 heartbeat IPC: 1.6779 cumulative IPC: 1.67573 (Simulation time: 4 hr 21 min 56 sec) 
Heartbeat CPU 6 instructions: 230000000 cycles: 532910160 heartbeat IPC: 0.345252 cumulative IPC: 0.376072 (Simulation time: 4 hr 22 min 46 sec) 
Heartbeat CPU 5 instructions: 1020000000 cycles: 533244661 heartbeat IPC: 1.85525 cumulative IPC: 1.87401 (Simulation time: 4 hr 22 min 54 sec) 
Heartbeat CPU 4 instructions: 550000000 cycles: 534081340 heartbeat IPC: 0.997453 cumulative IPC: 0.993547 (Simulation time: 4 hr 23 min 14 sec) 
Heartbeat CPU 7 instructions: 390000000 cycles: 534083832 heartbeat IPC: 0.604029 cumulative IPC: 0.686057 (Simulation time: 4 hr 23 min 14 sec) 
Heartbeat CPU 2 instructions: 390000000 cycles: 535495934 heartbeat IPC: 0.712905 cumulative IPC: 0.668816 (Simulation time: 4 hr 23 min 48 sec) 
Heartbeat CPU 1 instructions: 920000000 cycles: 537072686 heartbeat IPC: 1.67557 cumulative IPC: 1.67573 (Simulation time: 4 hr 24 min 27 sec) 
Heartbeat CPU 3 instructions: 760000000 cycles: 537924416 heartbeat IPC: 0.932052 cumulative IPC: 1.36406 (Simulation time: 4 hr 24 min 51 sec) 
Heartbeat CPU 5 instructions: 1030000000 cycles: 538697096 heartbeat IPC: 1.83404 cumulative IPC: 1.87359 (Simulation time: 4 hr 25 min 12 sec) 
Heartbeat CPU 3 instructions: 770000003 cycles: 542874969 heartbeat IPC: 2.01998 cumulative IPC: 1.37028 (Simulation time: 4 hr 27 min 11 sec) 
Heartbeat CPU 1 instructions: 930000001 cycles: 543437249 heartbeat IPC: 1.5712 cumulative IPC: 1.67446 (Simulation time: 4 hr 27 min 27 sec) 
Heartbeat CPU 5 instructions: 1040000000 cycles: 544036130 heartbeat IPC: 1.873 cumulative IPC: 1.87358 (Simulation time: 4 hr 27 min 44 sec) 
Heartbeat CPU 4 instructions: 560000000 cycles: 544165065 heartbeat IPC: 0.991697 cumulative IPC: 0.993511 (Simulation time: 4 hr 27 min 47 sec) 
Heartbeat CPU 7 instructions: 400000000 cycles: 547332298 heartbeat IPC: 0.754804 cumulative IPC: 0.687788 (Simulation time: 4 hr 29 min 14 sec) 
Heartbeat CPU 5 instructions: 1050000000 cycles: 549366802 heartbeat IPC: 1.87594 cumulative IPC: 1.87361 (Simulation time: 4 hr 30 min 8 sec) 
Heartbeat CPU 2 instructions: 400000000 cycles: 549393458 heartbeat IPC: 0.719553 cumulative IPC: 0.67015 (Simulation time: 4 hr 30 min 9 sec) 
Heartbeat CPU 1 instructions: 940000000 cycles: 549400910 heartbeat IPC: 1.67682 cumulative IPC: 1.67449 (Simulation time: 4 hr 30 min 9 sec) 
Heartbeat CPU 3 instructions: 780000000 cycles: 549892257 heartbeat IPC: 1.42505 cumulative IPC: 1.37101 (Simulation time: 4 hr 30 min 21 sec) 
Heartbeat CPU 4 instructions: 570000000 cycles: 554144194 heartbeat IPC: 1.00209 cumulative IPC: 0.993672 (Simulation time: 4 hr 32 min 13 sec) 
Heartbeat CPU 5 instructions: 1060000000 cycles: 554644458 heartbeat IPC: 1.89478 cumulative IPC: 1.87382 (Simulation time: 4 hr 32 min 26 sec) 
Heartbeat CPU 1 instructions: 950000003 cycles: 555367627 heartbeat IPC: 1.67596 cumulative IPC: 1.6745 (Simulation time: 4 hr 32 min 45 sec) 
Heartbeat CPU 3 instructions: 790000003 cycles: 557397357 heartbeat IPC: 1.33243 cumulative IPC: 1.37047 (Simulation time: 4 hr 33 min 38 sec) 
Heartbeat CPU 5 instructions: 1070000003 cycles: 559934817 heartbeat IPC: 1.89023 cumulative IPC: 1.87398 (Simulation time: 4 hr 34 min 44 sec) 
Heartbeat CPU 6 instructions: 240000000 cycles: 560238764 heartbeat IPC: 0.365917 cumulative IPC: 0.375558 (Simulation time: 4 hr 34 min 52 sec) 
Heartbeat CPU 1 instructions: 960000000 cycles: 561337017 heartbeat IPC: 1.67521 cumulative IPC: 1.67451 (Simulation time: 4 hr 35 min 21 sec) 
Heartbeat CPU 2 instructions: 410000002 cycles: 563422406 heartbeat IPC: 0.712812 cumulative IPC: 0.671254 (Simulation time: 4 hr 36 min 18 sec) 
Heartbeat CPU 4 instructions: 580000000 cycles: 564282701 heartbeat IPC: 0.986338 cumulative IPC: 0.993535 (Simulation time: 4 hr 36 min 42 sec) 
Heartbeat CPU 3 instructions: 800000000 cycles: 564877947 heartbeat IPC: 1.33679 cumulative IPC: 1.37001 (Simulation time: 4 hr 36 min 59 sec) 
Heartbeat CPU 5 instructions: 1080000000 cycles: 565235358 heartbeat IPC: 1.8866 cumulative IPC: 1.8741 (Simulation time: 4 hr 37 min 9 sec) 
Heartbeat CPU 7 instructions: 410000000 cycles: 566014852 heartbeat IPC: 0.535259 cumulative IPC: 0.682559 (Simulation time: 4 hr 37 min 30 sec) 
Heartbeat CPU 1 instructions: 970000001 cycles: 567295258 heartbeat IPC: 1.67835 cumulative IPC: 1.67455 (Simulation time: 4 hr 38 min 6 sec) 
Heartbeat CPU 5 instructions: 1090000001 cycles: 570554668 heartbeat IPC: 1.87994 cumulative IPC: 1.87416 (Simulation time: 4 hr 39 min 29 sec) 
Heartbeat CPU 0 instructions: 110000002 cycles: 571562814 heartbeat IPC: 0.160257 cumulative IPC: 0.163488 (Simulation time: 4 hr 39 min 54 sec) 
Heartbeat CPU 3 instructions: 810000003 cycles: 572350216 heartbeat IPC: 1.33828 cumulative IPC: 1.36958 (Simulation time: 4 hr 40 min 14 sec) 
Heartbeat CPU 1 instructions: 980000000 cycles: 573263032 heartbeat IPC: 1.67567 cumulative IPC: 1.67456 (Simulation time: 4 hr 40 min 37 sec) 
Heartbeat CPU 4 instructions: 590000002 cycles: 574578559 heartbeat IPC: 0.971265 cumulative IPC: 0.993121 (Simulation time: 4 hr 41 min 11 sec) 
Heartbeat CPU 5 instructions: 1100000000 cycles: 575981813 heartbeat IPC: 1.84259 cumulative IPC: 1.87385 (Simulation time: 4 hr 41 min 46 sec) 
Heartbeat CPU 1 instructions: 990000000 cycles: 579243072 heartbeat IPC: 1.67223 cumulative IPC: 1.67454 (Simulation time: 4 hr 43 min 9 sec) 
Heartbeat CPU 3 instructions: 820000000 cycles: 579828241 heartbeat IPC: 1.33725 cumulative IPC: 1.36915 (Simulation time: 4 hr 43 min 26 sec) 
Heartbeat CPU 7 instructions: 420000000 cycles: 580548163 heartbeat IPC: 0.688074 cumulative IPC: 0.682702 (Simulation time: 4 hr 43 min 46 sec) 
Heartbeat CPU 5 instructions: 1110000002 cycles: 581318543 heartbeat IPC: 1.87381 cumulative IPC: 1.87385 (Simulation time: 4 hr 44 min 8 sec) 
Heartbeat CPU 4 instructions: 600000000 cycles: 584749204 heartbeat IPC: 0.983222 cumulative IPC: 0.992942 (Simulation time: 4 hr 45 min 44 sec) 
Heartbeat CPU 1 instructions: 1000000000 cycles: 585210022 heartbeat IPC: 1.6759 cumulative IPC: 1.67455 (Simulation time: 4 hr 45 min 56 sec) 
Heartbeat CPU 2 instructions: 420000000 cycles: 585661757 heartbeat IPC: 0.449653 cumulative IPC: 0.662525 (Simulation time: 4 hr 46 min 9 sec) 
Heartbeat CPU 6 instructions: 250000003 cycles: 586365370 heartbeat IPC: 0.382752 cumulative IPC: 0.37589 (Simulation time: 4 hr 46 min 29 sec) 
Heartbeat CPU 5 instructions: 1120000000 cycles: 586513660 heartbeat IPC: 1.92488 cumulative IPC: 1.87432 (Simulation time: 4 hr 46 min 33 sec) 
Heartbeat CPU 3 instructions: 830000003 cycles: 587298818 heartbeat IPC: 1.33859 cumulative IPC: 1.36874 (Simulation time: 4 hr 46 min 55 sec) 
Heartbeat CPU 1 instructions: 1010000002 cycles: 591167012 heartbeat IPC: 1.6787 cumulative IPC: 1.6746 (Simulation time: 4 hr 48 min 43 sec) 
Heartbeat CPU 5 instructions: 1130000000 cycles: 591705060 heartbeat IPC: 1.92626 cumulative IPC: 1.87479 (Simulation time: 4 hr 48 min 57 sec) 
Heartbeat CPU 4 instructions: 610000002 cycles: 594617862 heartbeat IPC: 1.01331 cumulative IPC: 0.993292 (Simulation time: 4 hr 50 min 14 sec) 
Heartbeat CPU 3 instructions: 840000000 cycles: 594763452 heartbeat IPC: 1.33965 cumulative IPC: 1.36836 (Simulation time: 4 hr 50 min 18 sec) 
Heartbeat CPU 7 instructions: 430000003 cycles: 595267461 heartbeat IPC: 0.67938 cumulative IPC: 0.682617 (Simulation time: 4 hr 50 min 31 sec) 
Heartbeat CPU 5 instructions: 1140000000 cycles: 596921395 heartbeat IPC: 1.91705 cumulative IPC: 1.87517 (Simulation time: 4 hr 51 min 16 sec) 
Heartbeat CPU 1 instructions: 1020000000 cycles: 597127437 heartbeat IPC: 1.67773 cumulative IPC: 1.67463 (Simulation time: 4 hr 51 min 21 sec) 
Heartbeat CPU 2 instructions: 430000003 cycles: 599563106 heartbeat IPC: 0.719355 cumulative IPC: 0.663891 (Simulation time: 4 hr 52 min 27 sec) 
Heartbeat CPU 5 instructions: 1150000003 cycles: 602138699 heartbeat IPC: 1.9167 cumulative IPC: 1.87555 (Simulation time: 4 hr 53 min 36 sec) 
Heartbeat CPU 3 instructions: 850000001 cycles: 602265169 heartbeat IPC: 1.33303 cumulative IPC: 1.36791 (Simulation time: 4 hr 53 min 39 sec) 
Heartbeat CPU 1 instructions: 1030000003 cycles: 603092704 heartbeat IPC: 1.67637 cumulative IPC: 1.67465 (Simulation time: 4 hr 54 min 1 sec) 
Heartbeat CPU 4 instructions: 620000000 cycles: 604642798 heartbeat IPC: 0.997512 cumulative IPC: 0.993365 (Simulation time: 4 hr 54 min 42 sec) 
Heartbeat CPU 5 instructions: 1160000000 cycles: 607381505 heartbeat IPC: 1.90737 cumulative IPC: 1.87583 (Simulation time: 4 hr 55 min 55 sec) 
Heartbeat CPU 1 instructions: 1040000000 cycles: 609058660 heartbeat IPC: 1.67618 cumulative IPC: 1.67466 (Simulation time: 4 hr 56 min 40 sec) 
Heartbeat CPU 3 instructions: 860000000 cycles: 609733639 heartbeat IPC: 1.33896 cumulative IPC: 1.36754 (Simulation time: 4 hr 56 min 58 sec) 
Heartbeat CPU 6 instructions: 260000000 cycles: 611065604 heartbeat IPC: 0.404854 cumulative IPC: 0.377103 (Simulation time: 4 hr 57 min 33 sec) 
Heartbeat CPU 5 instructions: 1170000000 cycles: 612592285 heartbeat IPC: 1.9191 cumulative IPC: 1.87621 (Simulation time: 4 hr 58 min 14 sec) 
Heartbeat CPU 2 instructions: 440000000 cycles: 613568946 heartbeat IPC: 0.713988 cumulative IPC: 0.665075 (Simulation time: 4 hr 58 min 40 sec) 
Heartbeat CPU 7 instructions: 440000000 cycles: 614154489 heartbeat IPC: 0.529464 cumulative IPC: 0.67774 (Simulation time: 4 hr 58 min 55 sec) 
Heartbeat CPU 4 instructions: 630000000 cycles: 614524483 heartbeat IPC: 1.01197 cumulative IPC: 0.993675 (Simulation time: 4 hr 59 min 5 sec) 
Heartbeat CPU 1 instructions: 1050000002 cycles: 615023494 heartbeat IPC: 1.67649 cumulative IPC: 1.67468 (Simulation time: 4 hr 59 min 19 sec) 
Heartbeat CPU 3 instructions: 870000001 cycles: 617232476 heartbeat IPC: 1.33354 cumulative IPC: 1.36711 (Simulation time: 5 hr 0 min 17 sec) 
Heartbeat CPU 5 instructions: 1180000000 cycles: 617809339 heartbeat IPC: 1.91679 cumulative IPC: 1.87657 (Simulation time: 5 hr 0 min 32 sec) 
Heartbeat CPU 1 instructions: 1060000000 cycles: 620987510 heartbeat IPC: 1.67672 cumulative IPC: 1.6747 (Simulation time: 5 hr 2 min 1 sec) 
Heartbeat CPU 5 instructions: 1190000000 cycles: 623092386 heartbeat IPC: 1.89285 cumulative IPC: 1.87671 (Simulation time: 5 hr 3 min 0 sec) 
Heartbeat CPU 4 instructions: 640000000 cycles: 624553431 heartbeat IPC: 0.997114 cumulative IPC: 0.993732 (Simulation time: 5 hr 3 min 41 sec) 
Heartbeat CPU 3 instructions: 880000000 cycles: 624759982 heartbeat IPC: 1.32846 cumulative IPC: 1.36663 (Simulation time: 5 hr 3 min 47 sec) 
Heartbeat CPU 1 instructions: 1070000001 cycles: 626948472 heartbeat IPC: 1.67758 cumulative IPC: 1.67473 (Simulation time: 5 hr 4 min 48 sec) 
Heartbeat CPU 2 instructions: 450000001 cycles: 627456260 heartbeat IPC: 0.720082 cumulative IPC: 0.666335 (Simulation time: 5 hr 5 min 2 sec) 
Heartbeat CPU 5 instructions: 1200000000 cycles: 628368369 heartbeat IPC: 1.89538 cumulative IPC: 1.87687 (Simulation time: 5 hr 5 min 27 sec) 
Heartbeat CPU 7 instructions: 450000000 cycles: 629956599 heartbeat IPC: 0.632827 cumulative IPC: 0.676574 (Simulation time: 5 hr 6 min 12 sec) 
Heartbeat CPU 3 instructions: 890000000 cycles: 632267266 heartbeat IPC: 1.33204 cumulative IPC: 1.36621 (Simulation time: 5 hr 7 min 16 sec) 
Heartbeat CPU 1 instructions: 1080000000 cycles: 632912088 heartbeat IPC: 1.67683 cumulative IPC: 1.67475 (Simulation time: 5 hr 7 min 34 sec) 
Heartbeat CPU 5 instructions: 1210000002 cycles: 633672252 heartbeat IPC: 1.88541 cumulative IPC: 1.87694 (Simulation time: 5 hr 7 min 55 sec) 
Heartbeat CPU 4 instructions: 650000000 cycles: 634508402 heartbeat IPC: 1.00452 cumulative IPC: 0.993907 (Simulation time: 5 hr 8 min 18 sec) 
Heartbeat CPU 0 instructions: 120000000 cycles: 634702097 heartbeat IPC: 0.15838 cumulative IPC: 0.162962 (Simulation time: 5 hr 8 min 24 sec) 
Finished CPU 0 instructions: 100000000 cycles: 613639837 cumulative IPC: 0.162962 (Simulation time: 5 hr 8 min 24 sec) 

CPU 0 Branch Prediction Accuracy: 92.4261% MPKI: 6.09924

CPU 1 Branch Prediction Accuracy: 99.5353% MPKI: 0.860496

CPU 2 Branch Prediction Accuracy: 99.9707% MPKI: 0.0204563

CPU 3 Branch Prediction Accuracy: 97.7184% MPKI: 0.769392

CPU 4 Branch Prediction Accuracy: 96.7448% MPKI: 0.265897

CPU 5 Branch Prediction Accuracy: 99.6977% MPKI: 0.302375

CPU 6 Branch Prediction Accuracy: 99.3082% MPKI: 1.65125

CPU 7 Branch Prediction Accuracy: 99.753% MPKI: 0.0856599

ChampSim completed all CPUs

Total Simulation Statistics (not including warmup)

CPU 0 cumulative IPC: 0.162962 instructions: 100000000 cycles: 613639837
L1D TOTAL     ACCESS:   53608210  HIT:   44585379  MISS:    9022831
L1D LOAD      ACCESS:   33870044  HIT:   29220644  MISS:    4649400
L1D RFO       ACCESS:   19738166  HIT:   15364735  MISS:    4373431
L1D PREFETCH  ACCESS:          0  HIT:          0  MISS:          0
L1D WRITEBACK ACCESS:          0  HIT:          0  MISS:          0
L1I TOTAL     ACCESS:   23991198  HIT:   23991198  MISS:          0
L1I LOAD      ACCESS:   23991198  HIT:   23991198  MISS:          0
L1I RFO       ACCESS:          0  HIT:          0  MISS:          0
L1I PREFETCH  ACCESS:          0  HIT:          0  MISS:          0
L1I WRITEBACK ACCESS:          0  HIT:          0  MISS:          0
L2C TOTAL     ACCESS:   20706897  HIT:   11468033  MISS:    9238864
L2C LOAD      ACCESS:    4649338  HIT:    2446103  MISS:    2203235
L2C RFO       ACCESS:    4373431  HIT:          8  MISS:    4373423
L2C PREFETCH  ACCESS:    2661297  HIT:       3863  MISS:    2657434
L2C WRITEBACK ACCESS:    9022831  HIT:    9018059  MISS:       4772

L2C DA-AMPM prefetcher final stats
LLC TOTAL     ACCESS:   18004677  HIT:   10859476  MISS:    7145201
LLC LOAD      ACCESS:    2112976  HIT:    1748200  MISS:     364776
LLC RFO       ACCESS:    4373423  HIT:      52953  MISS:    4320470
LLC PREFETCH  ACCESS:    2747659  HIT:     287704  MISS:    2459955
LLC WRITEBACK ACCESS:    8770619  HIT:    8770619  MISS:          0

CPU 1 cumulative IPC: 1.67476 instructions: 1027699428 cycles: 613639838
L1D TOTAL     ACCESS:  167176254  HIT:  162802767  MISS:    4373487
L1D LOAD      ACCESS:  135487308  HIT:  131361602  MISS:    4125706
L1D RFO       ACCESS:   31688946  HIT:   31441165  MISS:     247781
L1D PREFETCH  ACCESS:          0  HIT:          0  MISS:          0
L1D WRITEBACK ACCESS:          0  HIT:          0  MISS:          0
L1I TOTAL     ACCESS:  241473789  HIT:  241473713  MISS:         76
L1I LOAD      ACCESS:  241473789  HIT:  241473713  MISS:         76
L1I RFO       ACCESS:          0  HIT:          0  MISS:          0
L1I PREFETCH  ACCESS:          0  HIT:          0  MISS:          0
L1I WRITEBACK ACCESS:          0  HIT:          0  MISS:          0
L2C TOTAL     ACCESS:    4721426  HIT:    4608889  MISS:     112537
L2C LOAD      ACCESS:    4125782  HIT:    4119573  MISS:       6209
L2C RFO       ACCESS:     244900  HIT:     241880  MISS:       3020
L2C PREFETCH  ACCESS:     102859  HIT:          1  MISS:     102858
L2C WRITEBACK ACCESS:     247885  HIT:     247435  MISS:        450

L2C DA-AMPM prefetcher final stats
LLC TOTAL     ACCESS:     115537  HIT:        818  MISS:     114719
LLC LOAD      ACCESS:       6201  HIT:        809  MISS:       5392
LLC RFO       ACCESS:       3020  HIT:          0  MISS:       3020
LLC PREFETCH  ACCESS:     102866  HIT:          0  MISS:     102866
[...]

CPU 5 cumulative IPC: 1.87697 instructions: 1151781930 cycles: 613639838
L1D TOTAL     ACCESS:   67048542  HIT:   56797962  MISS:   10250580
L1D LOAD      ACCESS:   66996999  HIT:   56753246  MISS:   10243753
L1D RFO       ACCESS:      51543  HIT:      44716  MISS:       6827
L1D PREFETCH  ACCESS:          0  HIT:          0  MISS:          0
L1D WRITEBACK ACCESS:          0  HIT:          0  MISS:          0
L1I TOTAL     ACCESS:  279104865  HIT:  279104865  MISS:          0
L1I LOAD      ACCESS:  279104865  HIT:  279104865  MISS:          0
L1I RFO       ACCESS:          0  HIT:          0  MISS:          0
L1I PREFETCH  ACCESS:          0  HIT:          0  MISS:          0
L1I WRITEBACK ACCESS:          0  HIT:          0  MISS:          0
L2C TOTAL     ACCESS:   10309526  HIT:    6889197  MISS:    3420329
L2C LOAD      ACCESS:   10243753  HIT:    6866971  MISS:    3376782
L2C RFO       ACCESS:       6827  HIT:       5759  MISS:       1068
L2C PREFETCH  ACCESS:      42479  HIT:          0  MISS:      42479
L2C WRITEBACK ACCESS:      16467  HIT:      16467  MISS:          0

L2C DA-AMPM prefetcher final stats
LLC TOTAL     ACCESS:    3424936  HIT:    3332076  MISS:      92860
LLC LOAD      ACCESS:    3376782  HIT:    3327116  MISS:      49666
LLC RFO       ACCESS:       1068  HIT:        667  MISS:        401
LLC PREFETCH  ACCESS:      42479  HIT:          0  MISS:      42479
LLC WRITEBACK ACCESS:       4607  HIT:       4293  MISS:        314

CPU 6 cumulative IPC: 0.37866 instructions: 232360849 cycles: 613639838
L1D TOTAL     ACCESS:   55675015  HIT:   43743707  MISS:   11931308
L1D LOAD      ACCESS:   39675222  HIT:   28297763  MISS:   11377459
L1D RFO       ACCESS:   15999793  HIT:   15445944  MISS:     553849
L1D PREFETCH  ACCESS:          0  HIT:          0  MISS:          0
L1D WRITEBACK ACCESS:          0  HIT:          0  MISS:          0
L1I TOTAL     ACCESS:  101418370  HIT:  100836614  MISS:     581756
L1I LOAD      ACCESS:  101418370  HIT:  100836614  MISS:     581756
L1I RFO       ACCESS:          0  HIT:          0  MISS:          0
L1I PREFETCH  ACCESS:          0  HIT:          0  MISS:          0
L1I WRITEBACK ACCESS:          0  HIT:          0  MISS:          0
L2C TOTAL     ACCESS:   15447724  HIT:    8895985  MISS:    6551739
L2C LOAD      ACCESS:   11959127  HIT:    6921301  MISS:    5037826
L2C RFO       ACCESS:     553836  HIT:      93937  MISS:     459899
L2C PREFETCH  ACCESS:    2110284  HIT:    1056484  MISS:    1053800
L2C WRITEBACK ACCESS:     824477  HIT:     824263  MISS:        214

L2C DA-AMPM prefetcher final stats
LLC TOTAL     ACCESS:    7139023  HIT:    6569541  MISS:     569482
LLC LOAD      ACCESS:    4994770  HIT:    4914429  MISS:      80341
LLC RFO       ACCESS:     459014  HIT:      32276  MISS:     426738
LLC PREFETCH  ACCESS:    1097732  HIT:    1045480  MISS:      52252
LLC WRITEBACK ACCESS:     587507  HIT:     577356  MISS:      10151

CPU 7 cumulative IPC: 0.676731 instructions: 415268957 cycles: 613639838
L1D TOTAL     ACCESS:  121176629  HIT:  107737888  MISS:   13438741
L1D LOAD      ACCESS:  106183435  HIT:   95180128  MISS:   11003307
L1D RFO       ACCESS:   14993194  HIT:   12557760  MISS:    2435434
L1D PREFETCH  ACCESS:          0  HIT:          0  MISS:          0
L1D WRITEBACK ACCESS:          0  HIT:          0  MISS:          0
L1I TOTAL     ACCESS:   99236673  HIT:   99235120  MISS:       1553
L1I LOAD      ACCESS:   99236673  HIT:   99235120  MISS:       1553
L1I RFO       ACCESS:          0  HIT:          0  MISS:          0
L1I PREFETCH  ACCESS:          0  HIT:          0  MISS:          0
L1I WRITEBACK ACCESS:          0  HIT:          0  MISS:          0
L2C TOTAL     ACCESS:   24538911  HIT:   12991909  MISS:   11547002
L2C LOAD      ACCESS:   11004427  HIT:    9855395  MISS:    1149032
L2C RFO       ACCESS:    2434984  HIT:       2004  MISS:    2432980
L2C PREFETCH  ACCESS:    7971704  HIT:       7822  MISS:    7963882
L2C WRITEBACK ACCESS:    3127796  HIT:    3126688  MISS:       1108

L2C DA-AMPM prefetcher final stats
LLC TOTAL     ACCESS:   14645245  HIT:    3297257  MISS:   11347988
LLC LOAD      ACCESS:     681989  HIT:      15591  MISS:     666398
LLC RFO       ACCESS:    2432975  HIT:      38120  MISS:    2394855
LLC PREFETCH  ACCESS:    8430930  HIT:     144409  MISS:    8286521
LLC WRITEBACK ACCESS:    3099351  HIT:    3099137  MISS:        214

Region of Interest Statistics

CPU 0 cumulative IPC: 0.162962 instructions: 100000000 cycles: 613639837
L1D TOTAL     ACCESS:   53608210  HIT:   44585379  MISS:    9022831
L1D LOAD      ACCESS:   33870044  HIT:   29220644  MISS:    4649400
L1D RFO       ACCESS:   19738166  HIT:   15364735  MISS:    4373431
L1D PREFETCH  ACCESS:          0  HIT:          0  MISS:          0
L1D WRITEBACK ACCESS:          0  HIT:          0  MISS:          0
L1D PREFETCH  REQUESTED:          0  ISSUED:          0  USEFUL:          0  USELESS:          0
L1I TOTAL     ACCESS:   23991198  HIT:   23991198  MISS:          0
L1I LOAD      ACCESS:   23991198  HIT:   23991198  MISS:          0
L1I RFO       ACCESS:          0  HIT:          0  MISS:          0
L1I PREFETCH  ACCESS:          0  HIT:          0  MISS:          0
L1I WRITEBACK ACCESS:          0  HIT:          0  MISS:          0
L1I PREFETCH  REQUESTED:          0  ISSUED:          0  USEFUL:          0  USELESS:          0
L2C TOTAL     ACCESS:   20706897  HIT:   11468033  MISS:    9238864
L2C LOAD      ACCESS:    4649338  HIT:    2446103  MISS:    2203235
L2C RFO       ACCESS:    4373431  HIT:          8  MISS:    4373423
L2C PREFETCH  ACCESS:    2661297  HIT:       3863  MISS:    2657434
L2C WRITEBACK ACCESS:    9022831  HIT:    9018059  MISS:       4772
L2C PREFETCH  REQUESTED:    3346002  ISSUED:    3346002  USEFUL:    2651790  USELESS:     520541
LLC TOTAL     ACCESS:   18004677  HIT:   10859476  MISS:    7145201
LLC LOAD      ACCESS:    2112976  HIT:    1748200  MISS:     364776
LLC RFO       ACCESS:    4373423  HIT:      52953  MISS:    4320470
LLC PREFETCH  ACCESS:    2747659  HIT:     287704  MISS:    2459955
LLC WRITEBACK ACCESS:    8770619  HIT:    8770619  MISS:          0
LLC PREFETCH  REQUESTED:          0  ISSUED:          0  USEFUL:    1148119  USELESS:   17361092
Major fault: 0 Minor fault: 257383

CPU 1 cumulative IPC: 1.67713 instructions: 100000001 cycles: 59625604
L1D TOTAL     ACCESS:   16256930  HIT:   15831101  MISS:     425829
L1D LOAD      ACCESS:   13181256  HIT:   12779624  MISS:     401632
L1D RFO       ACCESS:    3075674  HIT:    3051477  MISS:      24197
L1D PREFETCH  ACCESS:          0  HIT:          0  MISS:          0
L1D WRITEBACK ACCESS:          0  HIT:          0  MISS:          0
L1D PREFETCH  REQUESTED:          0  ISSUED:          0  USEFUL:          0  USELESS:          0
L1I TOTAL     ACCESS:   23490050  HIT:   23490050  MISS:          0
L1I LOAD      ACCESS:   23490050  HIT:   23490050  MISS:          0
L1I RFO       ACCESS:          0  HIT:          0  MISS:          0
L1I PREFETCH  ACCESS:          0  HIT:          0  MISS:          0
L1I WRITEBACK ACCESS:          0  HIT:          0  MISS:          0
L1I PREFETCH  REQUESTED:          0  ISSUED:          0  USEFUL:          0  USELESS:          0
L2C TOTAL     ACCESS:     459708  HIT:     448874  MISS:      10834
L2C LOAD      ACCESS:     401632  HIT:     401133  MISS:        499
L2C RFO       ACCESS:      23884  HIT:      23592  MISS:        292
L2C PREFETCH  ACCESS:       9999  HIT:          0  MISS:       9999
L2C WRITEBACK ACCESS:      24193  HIT:      24149  MISS:         44
L2C PREFETCH  REQUESTED:     109118  ISSUED:     109118  USEFUL:     107520  USELESS:       1174
LLC TOTAL     ACCESS:      11139  HIT:          0  MISS:      11139
LLC LOAD      ACCESS:        499  HIT:          0  MISS:        499
LLC RFO       ACCESS:        292  HIT:          0  MISS:        292
LLC PREFETCH  ACCESS:       9999  HIT:          0  MISS:       9999
LLC WRITEBACK ACCESS:        349  HIT:          0  MISS:        349
LLC PREFETCH  REQUESTED:          0  ISSUED:          0  USEFUL:    1148119  USELESS:   17361092
Major fault: 0 Minor fault: 928

CPU 2 cumulative IPC: 0.674358 instructions: 100000000 cycles: 148289118
L1D TOTAL     ACCESS:   25198027  HIT:   24918567  MISS:     279460
L1D LOAD      ACCESS:   15520276  HIT:   15352411  MISS:     167865
L1D RFO       ACCESS:    9677751  HIT:    9566156  MISS:     111595
L1D PREFETCH  ACCESS:          0  HIT:          0  MISS:          0
L1D WRITEBACK ACCESS:          0  HIT:          0  MISS:          0
L1D PREFETCH  REQUESTED:          0  ISSUED:          0  USEFUL:          0  USELESS:          0
L1I TOTAL     ACCESS:   40581343  HIT:   40581237  MISS:        106
L1I LOAD      ACCESS:   40581343  HIT:   40581237  MISS:        106
L1I RFO       ACCESS:          0  HIT:          0  MISS:          0
L1I PREFETCH  ACCESS:          0  HIT:          0  MISS:          0
L1I WRITEBACK ACCESS:          0  HIT:          0  MISS:          0
L1I PREFETCH  REQUESTED:          0  ISSUED:          0  USEFUL:          0  USELESS:          0
L2C TOTAL     ACCESS:     542738  HIT:     246285  MISS:     296453
L2C LOAD      ACCESS:     167971  HIT:     133808  MISS:      34163
L2C RFO       ACCESS:     111593  HIT:         16  MISS:     111577
L2C PREFETCH  ACCESS:     151566  HIT:       1071  MISS:     150495
L2C WRITEBACK ACCESS:     111608  HIT:     111390  MISS:        218
L2C PREFETCH  REQUESTED:     924571  ISSUED:     924571  USEFUL:     730063  USELESS:      89410
LLC TOTAL     ACCESS:     407656  HIT:      95797  MISS:     311859
LLC LOAD      ACCESS:      18451  HIT:         10  MISS:      18441
LLC RFO       ACCESS:     111577  HIT:          0  MISS:     111577
LLC PREFETCH  ACCESS:     166207  HIT:         87  MISS:     166120
LLC WRITEBACK ACCESS:     111421  HIT:      95700  MISS:      15721
LLC PREFETCH  REQUESTED:          0  ISSUED:          0  USEFUL:    1148119  USELESS:   17361092
Major fault: 0 Minor fault: 12141

CPU 3 cumulative IPC: 1.30553 instructions: 100000000 cycles: 76597419
L1D TOTAL     ACCESS:   15606596  HIT:   15514830  MISS:      91766
L1D LOAD      ACCESS:    9105180  HIT:    9029249  MISS:      75931
L1D RFO       ACCESS:    6501416  HIT:    6485581  MISS:      15835
L1D PREFETCH  ACCESS:          0  HIT:          0  MISS:          0
L1D WRITEBACK ACCESS:          0  HIT:          0  MISS:          0
L1D PREFETCH  REQUESTED:          0  ISSUED:          0  USEFUL:          0  USELESS:          0
L1I TOTAL     ACCESS:   24305826  HIT:   24231096  MISS:      74730
L1I LOAD      ACCESS:   24305826  HIT:   24231096  MISS:      74730
L1I RFO       ACCESS:          0  HIT:          0  MISS:          0
L1I PREFETCH  ACCESS:          0  HIT:          0  MISS:          0
L1I WRITEBACK ACCESS:          0  HIT:          0  MISS:          0
L1I PREFETCH  REQUESTED:          0  ISSUED:          0  USEFUL:          0  USELESS:          0
L2C TOTAL     ACCESS:     238179  HIT:     168995  MISS:      69184
L2C LOAD      ACCESS:     150661  HIT:     137233  MISS:      13428
L2C RFO       ACCESS:      15798  HIT:       6264  MISS:       9534
L2C PREFETCH  ACCESS:      49129  HIT:       3086  MISS:      46043
L2C WRITEBACK ACCESS:      22591  HIT:      22412  MISS:        179
L2C PREFETCH  REQUESTED:     770369  ISSUED:     768214  USEFUL:     594739  USELESS:      51336
LLC TOTAL     ACCESS:      78128  HIT:      10504  MISS:      67624
LLC LOAD      ACCESS:      12450  HIT:       1985  MISS:      10465
LLC RFO       ACCESS:       9523  HIT:        277  MISS:       9246
LLC PREFETCH  ACCESS:      47031  HIT:        237  MISS:      46794
LLC WRITEBACK ACCESS:       9124  HIT:       8005  MISS:       1119
LLC PREFETCH  REQUESTED:          0  ISSUED:          0  USEFUL:    1148119  USELESS:   17361092
Major fault: 0 Minor fault: 9650

CPU 4 cumulative IPC: 0.999185 instructions: 100000002 cycles: 100081554
L1D TOTAL     ACCESS:   34130713  HIT:   30576986  MISS:    3553727
L1D LOAD      ACCESS:   17864760  HIT:   15878098  MISS:    1986662
L1D RFO       ACCESS:   16265953  HIT:   14698888  MISS:    1567065
L1D PREFETCH  ACCESS:          0  HIT:          0  MISS:          0
L1D WRITEBACK ACCESS:          0  HIT:          0  MISS:          0
L1D PREFETCH  REQUESTED:          0  ISSUED:          0  USEFUL:          0  USELESS:          0
L1I TOTAL     ACCESS:   24287017  HIT:   24287017  MISS:          0
L1I LOAD      ACCESS:   24287017  HIT:   24287017  MISS:          0
L1I RFO       ACCESS:          0  HIT:          0  MISS:          0
L1I PREFETCH  ACCESS:          0  HIT:          0  MISS:          0
L1I WRITEBACK ACCESS:          0  HIT:          0  MISS:          0
L1I PREFETCH  REQUESTED:          0  ISSUED:          0  USEFUL:          0  USELESS:          0
L2C TOTAL     ACCESS:    5691299  HIT:    4156126  MISS:    1535173
L2C LOAD      ACCESS:    1985724  HIT:    1774582  MISS:     211142
L2C RFO       ACCESS:    1399062  HIT:     803682  MISS:     595380
L2C PREFETCH  ACCESS:     727943  HIT:          0  MISS:     727943
L2C WRITEBACK ACCESS:    1578570  HIT:    1577862  MISS:        708
L2C PREFETCH  REQUESTED:    4744899  ISSUED:    4744899  USEFUL:    4733152  USELESS:       3601
LLC TOTAL     ACCESS:    2130988  HIT:     767962  MISS:    1363026
LLC LOAD      ACCESS:     209857  HIT:     171503  MISS:      38354
LLC RFO       ACCESS:     595380  HIT:          1  MISS:     595379
LLC PREFETCH  ACCESS:     729227  HIT:          0  MISS:     729227
LLC WRITEBACK ACCESS:     596524  HIT:     596458  MISS:         66
LLC PREFETCH  REQUESTED:          0  ISSUED:          0  USEFUL:    1148119  USELESS:   17361092
Major fault: 0 Minor fault: 123105

CPU 5 cumulative IPC: 1.91309 instructions: 100000003 cycles: 52271581
L1D TOTAL     ACCESS:    5858757  HIT:    4968737  MISS:     890020
L1D LOAD      ACCESS:    5854131  HIT:    4964703  MISS:     889428
L1D RFO       ACCESS:       4626  HIT:       4034  MISS:        592
L1D PREFETCH  ACCESS:          0  HIT:          0  MISS:          0
L1D WRITEBACK ACCESS:          0  HIT:          0  MISS:          0
L1D PREFETCH  REQUESTED:          0  ISSUED:          0  USEFUL:          0  USELESS:          0
L1I TOTAL     ACCESS:   24200681  HIT:   24200681  MISS:          0
L1I LOAD      ACCESS:   24200681  HIT:   24200681  MISS:          0
L1I RFO       ACCESS:          0  HIT:          0  MISS:          0
L1I PREFETCH  ACCESS:          0  HIT:          0  MISS:          0
L1I WRITEBACK ACCESS:          0  HIT:          0  MISS:          0
L1I PREFETCH  REQUESTED:          0  ISSUED:          0  USEFUL:          0  USELESS:          0
L2C TOTAL     ACCESS:     895116  HIT:     632601  MISS:     262515
L2C LOAD      ACCESS:     889428  HIT:     630663  MISS:     258765
L2C RFO       ACCESS:        592  HIT:        510  MISS:         82
L2C PREFETCH  ACCESS:       3668  HIT:          0  MISS:       3668
L2C WRITEBACK ACCESS:       1428  HIT:       1428  MISS:          0
L2C PREFETCH  REQUESTED:      49030  ISSUED:      49030  USEFUL:      14613  USELESS:      33953
LLC TOTAL     ACCESS:     262960  HIT:     255146  MISS:       7814
LLC LOAD      ACCESS:     258765  HIT:     254692  MISS:       4073
LLC RFO       ACCESS:         82  HIT:         48  MISS:         34
LLC PREFETCH  ACCESS:       3668  HIT:          0  MISS:       3668
LLC WRITEBACK ACCESS:        445  HIT:        406  MISS:         39
LLC PREFETCH  REQUESTED:          0  ISSUED:          0  USEFUL:    1148119  USELESS:   17361092
Major fault: 0 Minor fault: 907

CPU 6 cumulative IPC: 0.385606 instructions: 100000000 cycles: 259332311
L1D TOTAL     ACCESS:   23691964  HIT:   18727487  MISS:    4964477
L1D LOAD      ACCESS:   16952579  HIT:   12198190  MISS:    4754389
L1D RFO       ACCESS:    6739385  HIT:    6529297  MISS:     210088
L1D PREFETCH  ACCESS:          0  HIT:          0  MISS:          0
L1D WRITEBACK ACCESS:          0  HIT:          0  MISS:          0
L1D PREFETCH  REQUESTED:          0  ISSUED:          0  USEFUL:          0  USELESS:          0
L1I TOTAL     ACCESS:   43757873  HIT:   43511365  MISS:     246508
L1I LOAD      ACCESS:   43757873  HIT:   43511365  MISS:     246508
L1I RFO       ACCESS:          0  HIT:          0  MISS:          0
L1I PREFETCH  ACCESS:          0  HIT:          0  MISS:          0
L1I WRITEBACK ACCESS:          0  HIT:          0  MISS:          0
L1I PREFETCH  REQUESTED:          0  ISSUED:          0  USEFUL:          0  USELESS:          0
L2C TOTAL     ACCESS:    6390671  HIT:    3678798  MISS:    2711873
L2C LOAD      ACCESS:    5000854  HIT:    2898859  MISS:    2101995
L2C RFO       ACCESS:     210083  HIT:      36661  MISS:     173422
L2C PREFETCH  ACCESS:     856442  HIT:     420049  MISS:     436393
L2C WRITEBACK ACCESS:     323292  HIT:     323229  MISS:         63
L2C PREFETCH  REQUESTED:    2588631  ISSUED:    2588631  USEFUL:     442946  USELESS:     779041
LLC TOTAL     ACCESS:    2938384  HIT:    2722897  MISS:     215487
LLC LOAD      ACCESS:    2084518  HIT:    2053834  MISS:      30684
LLC RFO       ACCESS:     173120  HIT:      13537  MISS:     159583
LLC PREFETCH  ACCESS:     454170  HIT:     433289  MISS:      20881
LLC WRITEBACK ACCESS:     226576  HIT:     222237  MISS:       4339
LLC PREFETCH  REQUESTED:          0  ISSUED:          0  USEFUL:    1148119  USELESS:   17361092
Major fault: 0 Minor fault: 5925

CPU 7 cumulative IPC: 0.755835 instructions: 100000001 cycles: 132304001
L1D TOTAL     ACCESS:   21035424  HIT:   17923014  MISS:    3112410
L1D LOAD      ACCESS:   19235768  HIT:   16863437  MISS:    2372331
L1D RFO       ACCESS:    1799656  HIT:    1059577  MISS:     740079
L1D PREFETCH  ACCESS:          0  HIT:          0  MISS:          0
L1D WRITEBACK ACCESS:          0  HIT:          0  MISS:          0
L1D PREFETCH  REQUESTED:          0  ISSUED:          0  USEFUL:          0  USELESS:          0
L1I TOTAL     ACCESS:   22827340  HIT:   22827060  MISS:        280
L1I LOAD      ACCESS:   22827340  HIT:   22827060  MISS:        280
L1I RFO       ACCESS:          0  HIT:          0  MISS:          0
L1I PREFETCH  ACCESS:          0  HIT:          0  MISS:          0
L1I WRITEBACK ACCESS:          0  HIT:          0  MISS:          0
L1I PREFETCH  REQUESTED:          0  ISSUED:          0  USEFUL:          0  USELESS:          0
L2C TOTAL     ACCESS:    5485166  HIT:    2969027  MISS:    2516139
L2C LOAD      ACCESS:    2372583  HIT:    2152022  MISS:     220561
L2C RFO       ACCESS:     740079  HIT:          8  MISS:     740071
L2C PREFETCH  ACCESS:    1558303  HIT:       2884  MISS:    1555419
L2C WRITEBACK ACCESS:     814201  HIT:     814113  MISS:         88
L2C PREFETCH  REQUESTED:    9624030  ISSUED:    9533236  USEFUL:    8102354  USELESS:     880115
LLC TOTAL     ACCESS:    3323548  HIT:     892736  MISS:    2430812
LLC LOAD      ACCESS:     126066  HIT:       6228  MISS:     119838
LLC RFO       ACCESS:     740070  HIT:      20057  MISS:     720013
LLC PREFETCH  ACCESS:    1649915  HIT:      58990  MISS:    1590925
LLC WRITEBACK ACCESS:     807497  HIT:     807461  MISS:         36
LLC PREFETCH  REQUESTED:          0  ISSUED:          0  USEFUL:    1148119  USELESS:   17361092
Major fault: 0 Minor fault: 61869

L2C DA-AMPM prefetcher final stats

L2C DA-AMPM prefetcher final stats

L2C DA-AMPM prefetcher final stats

L2C DA-AMPM prefetcher final stats

L2C DA-AMPM prefetcher final stats

L2C DA-AMPM prefetcher final stats

L2C DA-AMPM prefetcher final stats

L2C DA-AMPM prefetcher final stats

DRAM Statistics
 CHANNEL 0
 RQ ROW_BUFFER_HIT:    4473641  ROW_BUFFER_MISS:   10538304
 DBUS_CONGESTED:   34132529
 WQ ROW_BUFFER_HIT:     751831  ROW_BUFFER_MISS:    6851296  FULL:          0

 CHANNEL 1
 RQ ROW_BUFFER_HIT:    4468550  ROW_BUFFER_MISS:   10553837
 DBUS_CONGESTED:   34132529
 WQ ROW_BUFFER_HIT:     754511  ROW_BUFFER_MISS:    6850161  FULL:          0

 AVG_CONGESTED_CYCLE: 14
