
*** ChampSim Multicore Out-of-Order Simulator ***

Warmup Instructions: 20000000
Simulation Instructions: 100000000
Number of CPUs: 8
LLC sets: 16384
LLC ways: 16
Off-chip DRAM Size: 8192 MB Channels: 2 Width: 64-bit Data Rate: 1600 MT/s

CPU 0 runs /scratch/user/djimenez/champsim-traces/speccpu2017/xz/625.x264_s/625.x264_s-39B.champsimtrace.xz
CPU 1 runs /scratch/user/djimenez/champsim-traces/speccpu2017/xz/654.roms_s/654.roms_s-1007B.champsimtrace.xz
CPU 2 runs /scratch/user/djimenez/champsim-traces/speccpu2017/xz/607.cactuBSSN_s/607.cactuBSSN_s-2421B.champsimtrace.xz
CPU 3 runs /scratch/user/djimenez/champsim-traces/speccpu2017/xz/603.bwaves_s/603.bwaves_s-5359B.champsimtrace.xz
CPU 4 runs /scratch/user/djimenez/champsim-traces/speccpu2017/xz/657.xz_s/657.xz_s-2302B.champsimtrace.xz
CPU 5 runs /scratch/user/djimenez/champsim-traces/speccpu2017/xz/649.fotonik3d_s/649.fotonik3d_s-1176B.champsimtrace.xz
CPU 6 runs /scratch/user/djimenez/champsim-traces/speccpu2017/xz/641.leela_s/641.leela_s-862B.champsimtrace.xz
CPU 7 runs /scratch/user/djimenez/champsim-traces/speccpu2017/xz/648.exchange2_s/648.exchange2_s-584B.champsimtrace.xz
L2C DA-AMPM prefetcher
L2C DA-AMPM prefetcher
L2C DA-AMPM prefetcher
L2C DA-AMPM prefetcher
L2C DA-AMPM prefetcher
L2C DA-AMPM prefetcher
L2C DA-AMPM prefetcher
L2C DA-AMPM prefetcher
Heartbeat CPU 3 instructions: 10000000 cycles: 4003883 heartbeat IPC: 2.49758 cumulative IPC: 2.49758 (Simulation time: 0 hr 3 min 9 sec) 
Heartbeat CPU 0 instructions: 10000003 cycles: 4178335 heartbeat IPC: 2.3933 cumulative IPC: 2.3933 (Simulation time: 0 hr 3 min 17 sec) 
Heartbeat CPU 5 instructions: 10000000 cycles: 4389852 heartbeat IPC: 2.27798 cumulative IPC: 2.27798 (Simulation time: 0 hr 3 min 27 sec) 
Heartbeat CPU 7 instructions: 10000001 cycles: 4404396 heartbeat IPC: 2.27046 cumulative IPC: 2.27046 (Simulation time: 0 hr 3 min 28 sec) 
Heartbeat CPU 4 instructions: 10000002 cycles: 4454680 heartbeat IPC: 2.24483 cumulative IPC: 2.24483 (Simulation time: 0 hr 3 min 30 sec) 
Heartbeat CPU 1 instructions: 10000002 cycles: 5109620 heartbeat IPC: 1.95709 cumulative IPC: 1.95709 (Simulation time: 0 hr 4 min 1 sec) 
Heartbeat CPU 2 instructions: 10000000 cycles: 5801073 heartbeat IPC: 1.72382 cumulative IPC: 1.72382 (Simulation time: 0 hr 4 min 33 sec) 
Heartbeat CPU 6 instructions: 10000000 cycles: 6412217 heartbeat IPC: 1.55952 cumulative IPC: 1.55952 (Simulation time: 0 hr 5 min 4 sec) 
Heartbeat CPU 3 instructions: 20000000 cycles: 8334171 heartbeat IPC: 2.30932 cumulative IPC: 2.39976 (Simulation time: 0 hr 6 min 37 sec) 
Heartbeat CPU 0 instructions: 20000000 cycles: 8373671 heartbeat IPC: 2.3836 cumulative IPC: 2.38844 (Simulation time: 0 hr 6 min 38 sec) 
Heartbeat CPU 5 instructions: 20000000 cycles: 8778982 heartbeat IPC: 2.27836 cumulative IPC: 2.27817 (Simulation time: 0 hr 6 min 57 sec) 
Heartbeat CPU 7 instructions: 20000000 cycles: 8824645 heartbeat IPC: 2.26232 cumulative IPC: 2.26638 (Simulation time: 0 hr 7 min 0 sec) 
Heartbeat CPU 4 instructions: 20000000 cycles: 8875307 heartbeat IPC: 2.26212 cumulative IPC: 2.25344 (Simulation time: 0 hr 7 min 2 sec) 
Heartbeat CPU 1 instructions: 20000000 cycles: 10218776 heartbeat IPC: 1.95727 cumulative IPC: 1.95718 (Simulation time: 0 hr 8 min 5 sec) 
Heartbeat CPU 2 instructions: 20000000 cycles: 11600777 heartbeat IPC: 1.72423 cumulative IPC: 1.72402 (Simulation time: 0 hr 9 min 10 sec) 
Heartbeat CPU 3 instructions: 30000002 cycles: 12325139 heartbeat IPC: 2.50566 cumulative IPC: 0.81135 (Simulation time: 0 hr 9 min 44 sec) 
Heartbeat CPU 0 instructions: 30000000 cycles: 12478038 heartbeat IPC: 2.43643 cumulative IPC: 0.801408 (Simulation time: 0 hr 9 min 51 sec) 
Heartbeat CPU 6 instructions: 20000000 cycles: 12822069 heartbeat IPC: 1.5601 cumulative IPC: 1.55981 (Simulation time: 0 hr 10 min 8 sec) 

Warmup complete CPU 0 instructions: 30889903 cycles: 12822070 (Simulation time: 0 hr 10 min 8 sec) 
Warmup complete CPU 1 instructions: 25095215 cycles: 12822070 (Simulation time: 0 hr 10 min 8 sec) 
Warmup complete CPU 2 instructions: 22105769 cycles: 12822070 (Simulation time: 0 hr 10 min 8 sec) 
Warmup complete CPU 3 instructions: 31240446 cycles: 12822070 (Simulation time: 0 hr 10 min 8 sec) 
Warmup complete CPU 4 instructions: 28758021 cycles: 12822070 (Simulation time: 0 hr 10 min 8 sec) 
Warmup complete CPU 5 instructions: 29207819 cycles: 12822070 (Simulation time: 0 hr 10 min 8 sec) 
Warmup complete CPU 6 instructions: 20000003 cycles: 12822070 (Simulation time: 0 hr 10 min 8 sec) 
Warmup complete CPU 7 instructions: 29065413 cycles: 12822069 (Simulation time: 0 hr 10 min 8 sec) 

Heartbeat CPU 7 instructions: 30000002 cycles: 13453058 heartbeat IPC: 2.16057 cumulative IPC: 1.48115 (Simulation time: 0 hr 10 min 25 sec) 
Heartbeat CPU 5 instructions: 30000003 cycles: 13667312 heartbeat IPC: 2.04569 cumulative IPC: 0.937227 (Simulation time: 0 hr 10 min 30 sec) 
Heartbeat CPU 4 instructions: 30000003 cycles: 14785765 heartbeat IPC: 1.69192 cumulative IPC: 0.632472 (Simulation time: 0 hr 11 min 2 sec) 
Heartbeat CPU 0 instructions: 40000000 cycles: 19269397 heartbeat IPC: 1.47246 cumulative IPC: 1.413 (Simulation time: 0 hr 13 min 10 sec) 
Heartbeat CPU 7 instructions: 40000000 cycles: 20050860 heartbeat IPC: 1.51566 cumulative IPC: 1.51264 (Simulation time: 0 hr 13 min 31 sec) 
Heartbeat CPU 2 instructions: 30000001 cycles: 20536942 heartbeat IPC: 1.11905 cumulative IPC: 1.02325 (Simulation time: 0 hr 13 min 45 sec) 
Heartbeat CPU 3 instructions: 40000000 cycles: 20549058 heartbeat IPC: 1.21597 cumulative IPC: 1.13363 (Simulation time: 0 hr 13 min 45 sec) 
Heartbeat CPU 1 instructions: 30000000 cycles: 21270771 heartbeat IPC: 0.904814 cumulative IPC: 0.580537 (Simulation time: 0 hr 14 min 5 sec) 
Heartbeat CPU 5 instructions: 40000000 cycles: 24235376 heartbeat IPC: 0.946247 cumulative IPC: 0.945579 (Simulation time: 0 hr 15 min 31 sec) 
Heartbeat CPU 0 instructions: 50000003 cycles: 26444421 heartbeat IPC: 1.39372 cumulative IPC: 1.40285 (Simulation time: 0 hr 16 min 36 sec) 
Heartbeat CPU 7 instructions: 50000003 cycles: 26629355 heartbeat IPC: 1.52011 cumulative IPC: 1.5162 (Simulation time: 0 hr 16 min 41 sec) 
Heartbeat CPU 3 instructions: 50000003 cycles: 29371952 heartbeat IPC: 1.13342 cumulative IPC: 1.13352 (Simulation time: 0 hr 18 min 1 sec) 
Heartbeat CPU 4 instructions: 40000000 cycles: 30173624 heartbeat IPC: 0.649863 cumulative IPC: 0.647895 (Simulation time: 0 hr 18 min 24 sec) 
Heartbeat CPU 2 instructions: 40000000 cycles: 30337831 heartbeat IPC: 1.02032 cumulative IPC: 1.02161 (Simulation time: 0 hr 18 min 29 sec) 
Heartbeat CPU 7 instructions: 60000000 cycles: 33227365 heartbeat IPC: 1.51561 cumulative IPC: 1.51601 (Simulation time: 0 hr 19 min 52 sec) 
Heartbeat CPU 0 instructions: 60000000 cycles: 33594519 heartbeat IPC: 1.39858 cumulative IPC: 1.40138 (Simulation time: 0 hr 20 min 3 sec) 
Heartbeat CPU 5 instructions: 50000001 cycles: 34805903 heartbeat IPC: 0.946027 cumulative IPC: 0.945794 (Simulation time: 0 hr 20 min 38 sec) 
Heartbeat CPU 6 instructions: 30000000 cycles: 36410640 heartbeat IPC: 0.423934 cumulative IPC: 0.423934 (Simulation time: 0 hr 21 min 24 sec) 
Heartbeat CPU 3 instructions: 60000000 cycles: 38176198 heartbeat IPC: 1.13582 cumulative IPC: 1.13431 (Simulation time: 0 hr 22 min 14 sec) 
Heartbeat CPU 1 instructions: 40000000 cycles: 38436663 heartbeat IPC: 0.582551 cumulative IPC: 0.581886 (Simulation time: 0 hr 22 min 25 sec) 
Heartbeat CPU 7 instructions: 70000002 cycles: 39735992 heartbeat IPC: 1.53642 cumulative IPC: 1.52094 (Simulation time: 0 hr 23 min 3 sec) 
Heartbeat CPU 2 instructions: 50000003 cycles: 40131181 heartbeat IPC: 1.0211 cumulative IPC: 1.02143 (Simulation time: 0 hr 23 min 15 sec) 
Heartbeat CPU 0 instructions: 70000001 cycles: 40887573 heartbeat IPC: 1.37117 cumulative IPC: 1.39353 (Simulation time: 0 hr 23 min 37 sec) 
Heartbeat CPU 5 instructions: 60000000 cycles: 46132060 heartbeat IPC: 0.882912 cumulative IPC: 0.924413 (Simulation time: 0 hr 26 min 4 sec) 
Heartbeat CPU 7 instructions: 80000000 cycles: 46258071 heartbeat IPC: 1.53325 cumulative IPC: 1.52335 (Simulation time: 0 hr 26 min 8 sec) 
Heartbeat CPU 4 instructions: 50000003 cycles: 46336643 heartbeat IPC: 0.618697 cumulative IPC: 0.633813 (Simulation time: 0 hr 26 min 10 sec) 
Heartbeat CPU 3 instructions: 70000001 cycles: 47019007 heartbeat IPC: 1.13086 cumulative IPC: 1.13342 (Simulation time: 0 hr 26 min 29 sec) 
Heartbeat CPU 0 instructions: 80000000 cycles: 48221795 heartbeat IPC: 1.36347 cumulative IPC: 1.3873 (Simulation time: 0 hr 27 min 1 sec) 
Heartbeat CPU 2 instructions: 60000000 cycles: 50665558 heartbeat IPC: 0.949273 cumulative IPC: 1.00134 (Simulation time: 0 hr 28 min 7 sec) 
Heartbeat CPU 7 instructions: 90000002 cycles: 53601320 heartbeat IPC: 1.3618 cumulative IPC: 1.49425 (Simulation time: 0 hr 29 min 30 sec) 
Heartbeat CPU 1 instructions: 50000003 cycles: 53791289 heartbeat IPC: 0.65127 cumulative IPC: 0.60789 (Simulation time: 0 hr 29 min 35 sec) 
Heartbeat CPU 3 instructions: 80000000 cycles: 55804334 heartbeat IPC: 1.13826 cumulative IPC: 1.13441 (Simulation time: 0 hr 30 min 31 sec) 
Heartbeat CPU 0 instructions: 90000001 cycles: 55919191 heartbeat IPC: 1.29914 cumulative IPC: 1.37156 (Simulation time: 0 hr 30 min 34 sec) 
Heartbeat CPU 5 instructions: 70000000 cycles: 58109612 heartbeat IPC: 0.834895 cumulative IPC: 0.900737 (Simulation time: 0 hr 31 min 35 sec) 
Heartbeat CPU 6 instructions: 40000000 cycles: 59865078 heartbeat IPC: 0.426359 cumulative IPC: 0.425143 (Simulation time: 0 hr 32 min 21 sec) 
Heartbeat CPU 7 instructions: 100000000 cycles: 60380556 heartbeat IPC: 1.47509 cumulative IPC: 1.49152 (Simulation time: 0 hr 32 min 35 sec) 
Heartbeat CPU 2 instructions: 70000000 cycles: 60383343 heartbeat IPC: 1.02904 cumulative IPC: 1.007 (Simulation time: 0 hr 32 min 35 sec) 
Heartbeat CPU 0 instructions: 100000000 cycles: 63366861 heartbeat IPC: 1.3427 cumulative IPC: 1.3673 (Simulation time: 0 hr 33 min 58 sec) 
Heartbeat CPU 3 instructions: 90000001 cycles: 64610220 heartbeat IPC: 1.1356 cumulative IPC: 1.13461 (Simulation time: 0 hr 34 min 34 sec) 
Heartbeat CPU 4 instructions: 60000000 cycles: 65460691 heartbeat IPC: 0.522902 cumulative IPC: 0.593518 (Simulation time: 0 hr 34 min 58 sec) 
Heartbeat CPU 7 instructions: 110000000 cycles: 67342943 heartbeat IPC: 1.43629 cumulative IPC: 1.48447 (Simulation time: 0 hr 35 min 52 sec) 
Heartbeat CPU 5 instructions: 80000000 cycles: 68846851 heartbeat IPC: 0.931338 cumulative IPC: 0.906602 (Simulation time: 0 hr 36 min 35 sec) 
Heartbeat CPU 2 instructions: 80000000 cycles: 69722737 heartbeat IPC: 1.07073 cumulative IPC: 1.01746 (Simulation time: 0 hr 37 min 0 sec) 
Heartbeat CPU 0 instructions: 110000001 cycles: 70465054 heartbeat IPC: 1.40881 cumulative IPC: 1.37242 (Simulation time: 0 hr 37 min 22 sec) 
Heartbeat CPU 1 instructions: 60000000 cycles: 70524862 heartbeat IPC: 0.597601 cumulative IPC: 0.604906 (Simulation time: 0 hr 37 min 24 sec) 
Heartbeat CPU 3 instructions: 100000000 cycles: 73406568 heartbeat IPC: 1.13684 cumulative IPC: 1.13494 (Simulation time: 0 hr 38 min 46 sec) 
Heartbeat CPU 7 instructions: 120000000 cycles: 74248644 heartbeat IPC: 1.44808 cumulative IPC: 1.48038 (Simulation time: 0 hr 39 min 10 sec) 
Heartbeat CPU 2 instructions: 90000000 cycles: 79269967 heartbeat IPC: 1.04742 cumulative IPC: 1.02177 (Simulation time: 0 hr 41 min 24 sec) 
Heartbeat CPU 5 instructions: 90000001 cycles: 79677582 heartbeat IPC: 0.923299 cumulative IPC: 0.909307 (Simulation time: 0 hr 41 min 35 sec) 
Heartbeat CPU 0 instructions: 120000000 cycles: 80244036 heartbeat IPC: 1.0226 cumulative IPC: 1.32168 (Simulation time: 0 hr 41 min 52 sec) 
Finished CPU 7 instructions: 100000000 cycles: 67551095 cumulative IPC: 1.48036 (Simulation time: 0 hr 41 min 56 sec) 
Heartbeat CPU 7 instructions: 130000001 cycles: 81006745 heartbeat IPC: 1.47971 cumulative IPC: 1.48031 (Simulation time: 0 hr 42 min 14 sec) 
Heartbeat CPU 4 instructions: 70000002 cycles: 81418143 heartbeat IPC: 0.626667 cumulative IPC: 0.601229 (Simulation time: 0 hr 42 min 26 sec) 
Heartbeat CPU 3 instructions: 110000002 cycles: 82182626 heartbeat IPC: 1.13946 cumulative IPC: 1.13551 (Simulation time: 0 hr 42 min 48 sec) 
Heartbeat CPU 6 instructions: 50000001 cycles: 83353192 heartbeat IPC: 0.425747 cumulative IPC: 0.425344 (Simulation time: 0 hr 43 min 23 sec) 
Heartbeat CPU 0 instructions: 130000003 cycles: 84980797 heartbeat IPC: 2.11115 cumulative IPC: 1.3735 (Simulation time: 0 hr 44 min 13 sec) 
Finished CPU 0 instructions: 100000001 cycles: 72554558 cumulative IPC: 1.37827 (Simulation time: 0 hr 44 min 25 sec) 
Heartbeat CPU 1 instructions: 70000003 cycles: 87720066 heartbeat IPC: 0.581558 cumulative IPC: 0.599546 (Simulation time: 0 hr 45 min 35 sec) 
Heartbeat CPU 7 instructions: 140000000 cycles: 87801216 heartbeat IPC: 1.47178 cumulative IPC: 1.47954 (Simulation time: 0 hr 45 min 37 sec) 
Heartbeat CPU 2 instructions: 100000000 cycles: 88682733 heartbeat IPC: 1.06239 cumulative IPC: 1.02681 (Simulation time: 0 hr 46 min 3 sec) 
Heartbeat CPU 5 instructions: 100000000 cycles: 90523311 heartbeat IPC: 0.922022 cumulative IPC: 0.911082 (Simulation time: 0 hr 46 min 56 sec) 
Heartbeat CPU 0 instructions: 140000000 cycles: 90867029 heartbeat IPC: 1.69888 cumulative IPC: 1.39804 (Simulation time: 0 hr 47 min 6 sec) 
Heartbeat CPU 3 instructions: 120000000 cycles: 90981378 heartbeat IPC: 1.13652 cumulative IPC: 1.13562 (Simulation time: 0 hr 47 min 9 sec) 
Heartbeat CPU 7 instructions: 150000003 cycles: 94791036 heartbeat IPC: 1.43065 cumulative IPC: 1.47537 (Simulation time: 0 hr 48 min 57 sec) 
Heartbeat CPU 4 instructions: 80000000 cycles: 98105291 heartbeat IPC: 0.599263 cumulative IPC: 0.600845 (Simulation time: 0 hr 50 min 31 sec) 
Heartbeat CPU 0 instructions: 150000003 cycles: 98121776 heartbeat IPC: 1.37841 cumulative IPC: 1.39637 (Simulation time: 0 hr 50 min 32 sec) 
Heartbeat CPU 2 instructions: 110000003 cycles: 98289014 heartbeat IPC: 1.04099 cumulative IPC: 1.0284 (Simulation time: 0 hr 50 min 37 sec) 
Heartbeat CPU 3 instructions: 130000000 cycles: 99742951 heartbeat IPC: 1.14135 cumulative IPC: 1.1362 (Simulation time: 0 hr 51 min 18 sec) 
Finished CPU 3 instructions: 100000002 cycles: 88008728 cumulative IPC: 1.13625 (Simulation time: 0 hr 51 min 49 sec) 
Heartbeat CPU 5 instructions: 110000001 cycles: 101498472 heartbeat IPC: 0.911148 cumulative IPC: 0.91109 (Simulation time: 0 hr 52 min 8 sec) 
Heartbeat CPU 7 instructions: 160000000 cycles: 101663757 heartbeat IPC: 1.45503 cumulative IPC: 1.4738 (Simulation time: 0 hr 52 min 12 sec) 
Heartbeat CPU 0 instructions: 160000000 cycles: 104920758 heartbeat IPC: 1.47081 cumulative IPC: 1.40187 (Simulation time: 0 hr 53 min 44 sec) 
Heartbeat CPU 1 instructions: 80000000 cycles: 104952405 heartbeat IPC: 0.580304 cumulative IPC: 0.595947 (Simulation time: 0 hr 53 min 45 sec) 
Heartbeat CPU 6 instructions: 60000000 cycles: 106967081 heartbeat IPC: 0.42348 cumulative IPC: 0.424876 (Simulation time: 0 hr 54 min 43 sec) 
Heartbeat CPU 2 instructions: 120000000 cycles: 107831308 heartbeat IPC: 1.04797 cumulative IPC: 1.03037 (Simulation time: 0 hr 55 min 7 sec) 
Heartbeat CPU 7 instructions: 170000000 cycles: 108416587 heartbeat IPC: 1.48086 cumulative IPC: 1.4743 (Simulation time: 0 hr 55 min 24 sec) 
Heartbeat CPU 3 instructions: 140000000 cycles: 108466779 heartbeat IPC: 1.14629 cumulative IPC: 1.13712 (Simulation time: 0 hr 55 min 25 sec) 
Finished CPU 2 instructions: 100000003 cycles: 97014425 cumulative IPC: 1.03077 (Simulation time: 0 hr 56 min 4 sec) 
Heartbeat CPU 0 instructions: 170000000 cycles: 111449171 heartbeat IPC: 1.53177 cumulative IPC: 1.41047 (Simulation time: 0 hr 56 min 50 sec) 
Heartbeat CPU 5 instructions: 120000000 cycles: 112337268 heartbeat IPC: 0.922612 cumulative IPC: 0.912345 (Simulation time: 0 hr 57 min 16 sec) 
Heartbeat CPU 4 instructions: 90000001 cycles: 114793551 heartbeat IPC: 0.599224 cumulative IPC: 0.60058 (Simulation time: 0 hr 58 min 26 sec) 
Heartbeat CPU 7 instructions: 180000000 cycles: 115297766 heartbeat IPC: 1.45324 cumulative IPC: 1.47288 (Simulation time: 0 hr 58 min 43 sec) 
Heartbeat CPU 3 instructions: 150000001 cycles: 117190271 heartbeat IPC: 1.14633 cumulative IPC: 1.13789 (Simulation time: 0 hr 59 min 45 sec) 
Heartbeat CPU 2 instructions: 130000001 cycles: 117324853 heartbeat IPC: 1.05335 cumulative IPC: 1.03245 (Simulation time: 0 hr 59 min 50 sec) 
Heartbeat CPU 0 instructions: 180000000 cycles: 118231709 heartbeat IPC: 1.47437 cumulative IPC: 1.41458 (Simulation time: 1 hr 0 min 16 sec) 
Heartbeat CPU 1 instructions: 90000003 cycles: 122208101 heartbeat IPC: 0.579519 cumulative IPC: 0.593355 (Simulation time: 1 hr 2 min 8 sec) 
Finished CPU 5 instructions: 100000000 cycles: 109437993 cumulative IPC: 0.913759 (Simulation time: 1 hr 2 min 10 sec) 
Heartbeat CPU 7 instructions: 190000000 cycles: 122275748 heartbeat IPC: 1.43308 cumulative IPC: 1.47034 (Simulation time: 1 hr 2 min 10 sec) 
Heartbeat CPU 5 instructions: 130000003 cycles: 123113906 heartbeat IPC: 0.927933 cumulative IPC: 0.913868 (Simulation time: 1 hr 2 min 34 sec) 
Heartbeat CPU 0 instructions: 190000000 cycles: 125329027 heartbeat IPC: 1.40898 cumulative IPC: 1.41422 (Simulation time: 1 hr 3 min 37 sec) 
Heartbeat CPU 3 instructions: 160000000 cycles: 126146098 heartbeat IPC: 1.11659 cumulative IPC: 1.13621 (Simulation time: 1 hr 4 min 0 sec) 
Heartbeat CPU 2 instructions: 140000000 cycles: 126729870 heartbeat IPC: 1.06326 cumulative IPC: 1.035 (Simulation time: 1 hr 4 min 16 sec) 
Heartbeat CPU 7 instructions: 200000000 cycles: 129154698 heartbeat IPC: 1.45371 cumulative IPC: 1.46936 (Simulation time: 1 hr 5 min 25 sec) 
Heartbeat CPU 4 instructions: 100000000 cycles: 130434151 heartbeat IPC: 0.639362 cumulative IPC: 0.605737 (Simulation time: 1 hr 6 min 1 sec) 
Heartbeat CPU 6 instructions: 70000000 cycles: 130615429 heartbeat IPC: 0.422863 cumulative IPC: 0.424472 (Simulation time: 1 hr 6 min 6 sec) 
Heartbeat CPU 0 instructions: 200000000 cycles: 132088493 heartbeat IPC: 1.47941 cumulative IPC: 1.41792 (Simulation time: 1 hr 6 min 48 sec) 
Heartbeat CPU 5 instructions: 140000000 cycles: 133903439 heartbeat IPC: 0.926824 cumulative IPC: 0.915023 (Simulation time: 1 hr 7 min 39 sec) 
Heartbeat CPU 3 instructions: 170000001 cycles: 135119433 heartbeat IPC: 1.11441 cumulative IPC: 1.13461 (Simulation time: 1 hr 8 min 14 sec) 
Heartbeat CPU 7 instructions: 210000002 cycles: 135871165 heartbeat IPC: 1.48888 cumulative IPC: 1.47043 (Simulation time: 1 hr 8 min 35 sec) 
Heartbeat CPU 2 instructions: 150000002 cycles: 136341666 heartbeat IPC: 1.04039 cumulative IPC: 1.03542 (Simulation time: 1 hr 8 min 48 sec) 
Heartbeat CPU 0 instructions: 210000000 cycles: 139085306 heartbeat IPC: 1.42922 cumulative IPC: 1.41855 (Simulation time: 1 hr 10 min 5 sec) 
Heartbeat CPU 1 instructions: 100000000 cycles: 139425906 heartbeat IPC: 0.580794 cumulative IPC: 0.591647 (Simulation time: 1 hr 10 min 15 sec) 
Heartbeat CPU 7 instructions: 220000000 cycles: 142781644 heartbeat IPC: 1.44708 cumulative IPC: 1.46918 (Simulation time: 1 hr 11 min 49 sec) 
Heartbeat CPU 3 instructions: 180000000 cycles: 144130092 heartbeat IPC: 1.1098 cumulative IPC: 1.13291 (Simulation time: 1 hr 12 min 27 sec) 
Heartbeat CPU 5 instructions: 150000001 cycles: 144717008 heartbeat IPC: 0.924764 cumulative IPC: 0.915821 (Simulation time: 1 hr 12 min 44 sec) 
Heartbeat CPU 2 instructions: 160000000 cycles: 145789584 heartbeat IPC: 1.05843 cumulative IPC: 1.03705 (Simulation time: 1 hr 13 min 14 sec) 
Heartbeat CPU 0 instructions: 220000000 cycles: 145972885 heartbeat IPC: 1.45189 cumulative IPC: 1.42027 (Simulation time: 1 hr 13 min 19 sec) 
Heartbeat CPU 4 instructions: 110000002 cycles: 147131911 heartbeat IPC: 0.598883 cumulative IPC: 0.604885 (Simulation time: 1 hr 13 min 52 sec) 
Heartbeat CPU 7 instructions: 230000002 cycles: 149691068 heartbeat IPC: 1.4473 cumulative IPC: 1.46808 (Simulation time: 1 hr 15 min 4 sec) 
Heartbeat CPU 0 instructions: 230000001 cycles: 152805377 heartbeat IPC: 1.4636 cumulative IPC: 1.42238 (Simulation time: 1 hr 16 min 34 sec) 
Heartbeat CPU 3 instructions: 190000001 cycles: 153145023 heartbeat IPC: 1.10927 cumulative IPC: 1.13139 (Simulation time: 1 hr 16 min 43 sec) 
Heartbeat CPU 6 instructions: 80000000 cycles: 154024914 heartbeat IPC: 0.427177 cumulative IPC: 0.424921 (Simulation time: 1 hr 17 min 8 sec) 
Heartbeat CPU 2 instructions: 170000003 cycles: 155207470 heartbeat IPC: 1.06181 cumulative IPC: 1.03869 (Simulation time: 1 hr 17 min 40 sec) 
Heartbeat CPU 5 instructions: 160000000 cycles: 155548878 heartbeat IPC: 0.923202 cumulative IPC: 0.916381 (Simulation time: 1 hr 17 min 49 sec) 
Heartbeat CPU 1 instructions: 110000002 cycles: 156684213 heartbeat IPC: 0.579431 cumulative IPC: 0.590182 (Simulation time: 1 hr 18 min 20 sec) 
Heartbeat CPU 7 instructions: 240000000 cycles: 157330205 heartbeat IPC: 1.30905 cumulative IPC: 1.45967 (Simulation time: 1 hr 18 min 37 sec) 
Heartbeat CPU 0 instructions: 240000000 cycles: 159814572 heartbeat IPC: 1.4267 cumulative IPC: 1.42259 (Simulation time: 1 hr 19 min 46 sec) 
Heartbeat CPU 3 instructions: 200000000 cycles: 162404176 heartbeat IPC: 1.08001 cumulative IPC: 1.12821 (Simulation time: 1 hr 21 min 0 sec) 
Heartbeat CPU 7 instructions: 250000003 cycles: 163853991 heartbeat IPC: 1.53285 cumulative IPC: 1.46283 (Simulation time: 1 hr 21 min 40 sec) 
Heartbeat CPU 4 instructions: 120000000 cycles: 164054354 heartbeat IPC: 0.590931 cumulative IPC: 0.603323 (Simulation time: 1 hr 21 min 46 sec) 
Heartbeat CPU 2 instructions: 180000000 cycles: 164656628 heartbeat IPC: 1.0583 cumulative IPC: 1.03991 (Simulation time: 1 hr 22 min 3 sec) 
Heartbeat CPU 5 instructions: 170000002 cycles: 166347028 heartbeat IPC: 0.926085 cumulative IPC: 0.917064 (Simulation time: 1 hr 22 min 49 sec) 
Heartbeat CPU 0 instructions: 250000001 cycles: 166648212 heartbeat IPC: 1.46335 cumulative IPC: 1.4244 (Simulation time: 1 hr 22 min 57 sec) 
Heartbeat CPU 7 instructions: 260000000 cycles: 170238110 heartbeat IPC: 1.56639 cumulative IPC: 1.46703 (Simulation time: 1 hr 24 min 31 sec) 
Heartbeat CPU 3 instructions: 210000001 cycles: 171597949 heartbeat IPC: 1.08769 cumulative IPC: 1.12586 (Simulation time: 1 hr 25 min 6 sec) 
Heartbeat CPU 1 instructions: 120000000 cycles: 173111125 heartbeat IPC: 0.608757 cumulative IPC: 0.592085 (Simulation time: 1 hr 25 min 46 sec) 
Heartbeat CPU 0 instructions: 260000000 cycles: 173780983 heartbeat IPC: 1.40198 cumulative IPC: 1.42341 (Simulation time: 1 hr 26 min 3 sec) 
Heartbeat CPU 2 instructions: 190000002 cycles: 174415087 heartbeat IPC: 1.02475 cumulative IPC: 1.03899 (Simulation time: 1 hr 26 min 20 sec) 
Heartbeat CPU 7 instructions: 270000002 cycles: 176528351 heartbeat IPC: 1.58976 cumulative IPC: 1.47175 (Simulation time: 1 hr 27 min 15 sec) 
Heartbeat CPU 6 instructions: 90000000 cycles: 177581147 heartbeat IPC: 0.424516 cumulative IPC: 0.424863 (Simulation time: 1 hr 27 min 42 sec) 
Heartbeat CPU 5 instructions: 180000000 cycles: 177984468 heartbeat IPC: 0.859295 cumulative IPC: 0.912993 (Simulation time: 1 hr 27 min 52 sec) 
Finished CPU 1 instructions: 100000000 cycles: 167242091 cumulative IPC: 0.597936 (Simulation time: 1 hr 28 min 46 sec) 
Finished CPU 4 instructions: 100000000 cycles: 167320270 cumulative IPC: 0.597656 (Simulation time: 1 hr 28 min 48 sec) 
Heartbeat CPU 3 instructions: 220000000 cycles: 180835086 heartbeat IPC: 1.08259 cumulative IPC: 1.12348 (Simulation time: 1 hr 29 min 8 sec) 
Heartbeat CPU 0 instructions: 270000001 cycles: 180929178 heartbeat IPC: 1.39895 cumulative IPC: 1.42237 (Simulation time: 1 hr 29 min 10 sec) 
Heartbeat CPU 4 instructions: 130000000 cycles: 182861259 heartbeat IPC: 0.53172 cumulative IPC: 0.595404 (Simulation time: 1 hr 30 min 1 sec) 
Heartbeat CPU 7 instructions: 280000000 cycles: 183534969 heartbeat IPC: 1.42722 cumulative IPC: 1.46992 (Simulation time: 1 hr 30 min 19 sec) 
Heartbeat CPU 2 instructions: 200000000 cycles: 184223985 heartbeat IPC: 1.01948 cumulative IPC: 1.03788 (Simulation time: 1 hr 30 min 38 sec) 
Heartbeat CPU 0 instructions: 280000000 cycles: 187942414 heartbeat IPC: 1.42588 cumulative IPC: 1.42251 (Simulation time: 1 hr 32 min 22 sec) 
Heartbeat CPU 1 instructions: 130000003 cycles: 188529975 heartbeat IPC: 0.648557 cumulative IPC: 0.597041 (Simulation time: 1 hr 32 min 37 sec) 
Heartbeat CPU 5 instructions: 190000001 cycles: 189214880 heartbeat IPC: 0.890439 cumulative IPC: 0.911557 (Simulation time: 1 hr 32 min 55 sec) 
Heartbeat CPU 3 instructions: 230000001 cycles: 189903674 heartbeat IPC: 1.10271 cumulative IPC: 1.12242 (Simulation time: 1 hr 33 min 14 sec) 
Heartbeat CPU 7 instructions: 290000001 cycles: 190448205 heartbeat IPC: 1.4465 cumulative IPC: 1.46901 (Simulation time: 1 hr 33 min 29 sec) 
Heartbeat CPU 2 instructions: 210000000 cycles: 193614610 heartbeat IPC: 1.06489 cumulative IPC: 1.03928 (Simulation time: 1 hr 34 min 58 sec) 
Heartbeat CPU 0 instructions: 290000003 cycles: 194743133 heartbeat IPC: 1.47043 cumulative IPC: 1.4243 (Simulation time: 1 hr 35 min 30 sec) 
Heartbeat CPU 7 instructions: 300000000 cycles: 197528652 heartbeat IPC: 1.41234 cumulative IPC: 1.46684 (Simulation time: 1 hr 36 min 49 sec) 
Heartbeat CPU 4 instructions: 140000000 cycles: 197844566 heartbeat IPC: 0.667409 cumulative IPC: 0.601235 (Simulation time: 1 hr 36 min 59 sec) 
Heartbeat CPU 3 instructions: 240000000 cycles: 198981069 heartbeat IPC: 1.10164 cumulative IPC: 1.1214 (Simulation time: 1 hr 37 min 31 sec) 
Heartbeat CPU 5 instructions: 200000000 cycles: 199801656 heartbeat IPC: 0.944575 cumulative IPC: 0.913427 (Simulation time: 1 hr 37 min 54 sec) 
Heartbeat CPU 6 instructions: 100000000 cycles: 200977916 heartbeat IPC: 0.427409 cumulative IPC: 0.425179 (Simulation time: 1 hr 38 min 26 sec) 
Heartbeat CPU 0 instructions: 300000000 cycles: 201532182 heartbeat IPC: 1.47296 cumulative IPC: 1.42605 (Simulation time: 1 hr 38 min 41 sec) 
Heartbeat CPU 2 instructions: 220000000 cycles: 203002834 heartbeat IPC: 1.06516 cumulative IPC: 1.04056 (Simulation time: 1 hr 39 min 20 sec) 
Heartbeat CPU 7 instructions: 310000003 cycles: 203843837 heartbeat IPC: 1.58349 cumulative IPC: 1.47069 (Simulation time: 1 hr 39 min 43 sec) 
Heartbeat CPU 1 instructions: 140000000 cycles: 205778767 heartbeat IPC: 0.579751 cumulative IPC: 0.595495 (Simulation time: 1 hr 40 min 34 sec) 
Heartbeat CPU 3 instructions: 250000003 cycles: 208136194 heartbeat IPC: 1.09228 cumulative IPC: 1.12004 (Simulation time: 1 hr 41 min 37 sec) 
Heartbeat CPU 0 instructions: 310000000 cycles: 208200975 heartbeat IPC: 1.49952 cumulative IPC: 1.42856 (Simulation time: 1 hr 41 min 39 sec) 
Heartbeat CPU 7 instructions: 320000000 cycles: 210286767 heartbeat IPC: 1.55209 cumulative IPC: 1.47335 (Simulation time: 1 hr 42 min 35 sec) 
Heartbeat CPU 5 instructions: 210000002 cycles: 210597002 heartbeat IPC: 0.926325 cumulative IPC: 0.914131 (Simulation time: 1 hr 42 min 44 sec) 
Heartbeat CPU 2 instructions: 230000001 cycles: 212490830 heartbeat IPC: 1.05396 cumulative IPC: 1.0412 (Simulation time: 1 hr 43 min 38 sec) 
Heartbeat CPU 4 instructions: 150000000 cycles: 214626213 heartbeat IPC: 0.595889 cumulative IPC: 0.60079 (Simulation time: 1 hr 44 min 38 sec) 
Heartbeat CPU 0 instructions: 320000000 cycles: 214957804 heartbeat IPC: 1.47998 cumulative IPC: 1.43028 (Simulation time: 1 hr 44 min 47 sec) 
Heartbeat CPU 7 instructions: 330000003 cycles: 216644794 heartbeat IPC: 1.57282 cumulative IPC: 1.47645 (Simulation time: 1 hr 45 min 34 sec) 
Heartbeat CPU 3 instructions: 260000000 cycles: 217031780 heartbeat IPC: 1.12415 cumulative IPC: 1.12022 (Simulation time: 1 hr 45 min 45 sec) 
Heartbeat CPU 5 instructions: 220000000 cycles: 221451266 heartbeat IPC: 0.921297 cumulative IPC: 0.914504 (Simulation time: 1 hr 47 min 49 sec) 
Heartbeat CPU 0 instructions: 330000002 cycles: 221642745 heartbeat IPC: 1.4959 cumulative IPC: 1.43238 (Simulation time: 1 hr 47 min 54 sec) 
Heartbeat CPU 2 instructions: 240000000 cycles: 222130439 heartbeat IPC: 1.03739 cumulative IPC: 1.04102 (Simulation time: 1 hr 48 min 8 sec) 
Heartbeat CPU 1 instructions: 150000000 cycles: 222972272 heartbeat IPC: 0.581615 cumulative IPC: 0.59436 (Simulation time: 1 hr 48 min 32 sec) 
Heartbeat CPU 7 instructions: 340000000 cycles: 223053969 heartbeat IPC: 1.56026 cumulative IPC: 1.47901 (Simulation time: 1 hr 48 min 34 sec) 
Heartbeat CPU 6 instructions: 110000001 cycles: 224251159 heartbeat IPC: 0.429678 cumulative IPC: 0.425675 (Simulation time: 1 hr 49 min 9 sec) 
Heartbeat CPU 3 instructions: 270000001 cycles: 225924594 heartbeat IPC: 1.1245 cumulative IPC: 1.1204 (Simulation time: 1 hr 49 min 55 sec) 
Heartbeat CPU 0 instructions: 340000000 cycles: 228394038 heartbeat IPC: 1.4812 cumulative IPC: 1.43391 (Simulation time: 1 hr 51 min 5 sec) 
Heartbeat CPU 7 instructions: 350000000 cycles: 229349842 heartbeat IPC: 1.58834 cumulative IPC: 1.48219 (Simulation time: 1 hr 51 min 33 sec) 
Heartbeat CPU 4 instructions: 160000000 cycles: 231560388 heartbeat IPC: 0.590522 cumulative IPC: 0.599995 (Simulation time: 1 hr 52 min 37 sec) 
Heartbeat CPU 2 instructions: 250000003 cycles: 231614167 heartbeat IPC: 1.05444 cumulative IPC: 1.0416 (Simulation time: 1 hr 52 min 38 sec) 
Heartbeat CPU 5 instructions: 230000002 cycles: 232272722 heartbeat IPC: 0.92409 cumulative IPC: 0.914976 (Simulation time: 1 hr 52 min 57 sec) 
Heartbeat CPU 3 instructions: 280000000 cycles: 234930562 heartbeat IPC: 1.11037 cumulative IPC: 1.11999 (Simulation time: 1 hr 54 min 13 sec) 
Heartbeat CPU 0 instructions: 350000003 cycles: 235123997 heartbeat IPC: 1.48589 cumulative IPC: 1.43548 (Simulation time: 1 hr 54 min 18 sec) 
Heartbeat CPU 7 instructions: 360000000 cycles: 236308081 heartbeat IPC: 1.43715 cumulative IPC: 1.48078 (Simulation time: 1 hr 54 min 51 sec) 
Heartbeat CPU 1 instructions: 160000000 cycles: 240264156 heartbeat IPC: 0.578306 cumulative IPC: 0.593139 (Simulation time: 1 hr 56 min 45 sec) 
Heartbeat CPU 2 instructions: 260000000 cycles: 241074352 heartbeat IPC: 1.05706 cumulative IPC: 1.04224 (Simulation time: 1 hr 57 min 8 sec) 
Heartbeat CPU 0 instructions: 360000000 cycles: 241908575 heartbeat IPC: 1.47393 cumulative IPC: 1.43662 (Simulation time: 1 hr 57 min 32 sec) 
Heartbeat CPU 7 instructions: 370000003 cycles: 242685745 heartbeat IPC: 1.56797 cumulative IPC: 1.4832 (Simulation time: 1 hr 57 min 55 sec) 
Heartbeat CPU 5 instructions: 240000000 cycles: 243087070 heartbeat IPC: 0.924697 cumulative IPC: 0.915433 (Simulation time: 1 hr 58 min 7 sec) 
Heartbeat CPU 3 instructions: 290000002 cycles: 243865851 heartbeat IPC: 1.11916 cumulative IPC: 1.11996 (Simulation time: 1 hr 58 min 29 sec) 
Heartbeat CPU 4 instructions: 170000003 cycles: 245505971 heartbeat IPC: 0.717073 cumulative IPC: 0.607012 (Simulation time: 1 hr 59 min 17 sec) 
Heartbeat CPU 6 instructions: 120000000 cycles: 247452963 heartbeat IPC: 0.431001 cumulative IPC: 0.426201 (Simulation time: 2 hr 0 min 13 sec) 
Finished CPU 6 instructions: 100000001 cycles: 234630902 cumulative IPC: 0.426201 (Simulation time: 2 hr 0 min 13 sec) 

CPU 0 Branch Prediction Accuracy: 96.6595% MPKI: 1.20696

CPU 1 Branch Prediction Accuracy: 99.9628% MPKI: 0.0279442

CPU 2 Branch Prediction Accuracy: 99.7209% MPKI: 0.00536173

CPU 3 Branch Prediction Accuracy: 91.8306% MPKI: 11.1846

CPU 4 Branch Prediction Accuracy: 89.9254% MPKI: 12.3167

CPU 5 Branch Prediction Accuracy: 99.975% MPKI: 0.00420401

CPU 6 Branch Prediction Accuracy: 84.4758% MPKI: 16.3784

CPU 7 Branch Prediction Accuracy: 96.6863% MPKI: 4.55663

ChampSim completed all CPUs

Total Simulation Statistics (not including warmup)

CPU 0 cumulative IPC: 1.43781 instructions: 337354728 cycles: 234630902
L1D TOTAL     ACCESS:   53188296  HIT:   51957583  MISS:    1230713
L1D LOAD      ACCESS:   32182620  HIT:   31308576  MISS:     874044
L1D RFO       ACCESS:   21005676  HIT:   20649007  MISS:     356669
L1D PREFETCH  ACCESS:          0  HIT:          0  MISS:          0
L1D WRITEBACK ACCESS:          0  HIT:          0  MISS:          0
L1I TOTAL     ACCESS:   76984475  HIT:   75640227  MISS:    1344248
L1I LOAD      ACCESS:   76984475  HIT:   75640227  MISS:    1344248
L1I RFO       ACCESS:          0  HIT:          0  MISS:          0
L1I PREFETCH  ACCESS:          0  HIT:          0  MISS:          0
L1I WRITEBACK ACCESS:          0  HIT:          0  MISS:          0
L2C TOTAL     ACCESS:    3230559  HIT:    2602609  MISS:     627950
L2C LOAD      ACCESS:    2218286  HIT:    1966145  MISS:     252141
L2C RFO       ACCESS:     355887  HIT:     198359  MISS:     157528
L2C PREFETCH  ACCESS:     232185  HIT:      18710  MISS:     213475
L2C WRITEBACK ACCESS:     424201  HIT:     419395  MISS:       4806

L2C DA-AMPM prefetcher final stats
LLC TOTAL     ACCESS:     819066  HIT:     475794  MISS:     343272
LLC LOAD      ACCESS:     239708  HIT:     171741  MISS:      67967
LLC RFO       ACCESS:     157455  HIT:      11399  MISS:     146056
LLC PREFETCH  ACCESS:     225968  HIT:      98430  MISS:     127538
LLC WRITEBACK ACCESS:     195935  HIT:     194224  MISS:       1711

CPU 1 cumulative IPC: 0.592783 instructions: 139085144 cycles: 234630902
L1D TOTAL     ACCESS:   41306751  HIT:   40347112  MISS:     959639
L1D LOAD      ACCESS:   26477329  HIT:   25845744  MISS:     631585
L1D RFO       ACCESS:   14829422  HIT:   14501368  MISS:     328054
L1D PREFETCH  ACCESS:          0  HIT:          0  MISS:          0
L1D WRITEBACK ACCESS:          0  HIT:          0  MISS:          0
L1I TOTAL     ACCESS:   54248448  HIT:   54248385  MISS:         63
L1I LOAD      ACCESS:   54248448  HIT:   54248385  MISS:         63
L1I RFO       ACCESS:          0  HIT:          0  MISS:          0
L1I PREFETCH  ACCESS:          0  HIT:          0  MISS:          0
L1I WRITEBACK ACCESS:          0  HIT:          0  MISS:          0
L2C TOTAL     ACCESS:    1888898  HIT:     876006  MISS:    1012892
L2C LOAD      ACCESS:     631648  HIT:     545523  MISS:      86125
L2C RFO       ACCESS:     328054  HIT:          0  MISS:     328054
L2C PREFETCH  ACCESS:     599095  HIT:        785  MISS:     598310
L2C WRITEBACK ACCESS:     330101  HIT:     329698  MISS:        403

L2C DA-AMPM prefetcher final stats
LLC TOTAL     ACCESS:    1340758  HIT:     329504  MISS:    1011254
LLC LOAD      ACCESS:      55392  HIT:        228  MISS:      55164
LLC RFO       ACCESS:     328054  HIT:          0  MISS:     328054
LLC PREFETCH  ACCESS:     629043  HIT:       1972  MISS:     627071
LLC WRITEBACK ACCESS:     328269  HIT:     327304  MISS:        965

CPU 2 cumulative IPC: 1.04267 instructions: 244642880 cycles: 234630902
L1D TOTAL     ACCESS:   74412521  HIT:   47171899  MISS:   27240622
L1D LOAD      ACCESS:   47746815  HIT:   22455485  MISS:   25291330
L1D RFO       ACCESS:   26665706  HIT:   24716414  MISS:    1949292
L1D PREFETCH  ACCESS:          0  HIT:          0  MISS:          0
L1D WRITEBACK ACCESS:          0  HIT:          0  MISS:          0
L1I TOTAL     ACCESS:   61248868  HIT:   60473963  MISS:     774905
L1I LOAD      ACCESS:   61248868  HIT:   60473963  MISS:     774905
L1I RFO       ACCESS:          0  HIT:          0  MISS:          0
L1I PREFETCH  ACCESS:          0  HIT:          0  MISS:          0
L1I WRITEBACK ACCESS:          0  HIT:          0  MISS:          0
L2C TOTAL     ACCESS:   32146838  HIT:   23765576  MISS:    8381262
L2C LOAD      ACCESS:   25957075  HIT:   20732685  MISS:    5224390
L2C RFO       ACCESS:    1947779  HIT:     783682  MISS:    1164097
L2C PREFETCH  ACCESS:    2041183  HIT:      53320  MISS:    1987863
L2C WRITEBACK ACCESS:    2200801  HIT:    2195889  MISS:       4912

L2C DA-AMPM prefetcher final stats
LLC TOTAL     ACCESS:    9442790  HIT:    7707468  MISS:    1735322
LLC LOAD      ACCESS:    5223990  HIT:    5071616  MISS:     152374
LLC RFO       ACCESS:    1004995  HIT:     987462  MISS:      17533
LLC PREFETCH  ACCESS:    1987972  HIT:     422717  MISS:    1565255
LLC WRITEBACK ACCESS:    1225833  HIT:    1225673  MISS:        160

CPU 3 cumulative IPC: 1.11981 instructions: 262742007 cycles: 234630902
L1D TOTAL     ACCESS:   45737002  HIT:   45717778  MISS:      19224
L1D LOAD      ACCESS:   36217922  HIT:   36215549  MISS:       2373
L1D RFO       ACCESS:    9519080  HIT:    9502229  MISS:      16851
L1D PREFETCH  ACCESS:          0  HIT:          0  MISS:          0
L1D WRITEBACK ACCESS:          0  HIT:          0  MISS:          0
L1I TOTAL     ACCESS:   63661910  HIT:   63661910  MISS:          0
L1I LOAD      ACCESS:   63661910  HIT:   63661910  MISS:          0
L1I RFO       ACCESS:          0  HIT:          0  MISS:          0
L1I PREFETCH  ACCESS:          0  HIT:          0  MISS:          0
L1I WRITEBACK ACCESS:          0  HIT:          0  MISS:          0
L2C TOTAL     ACCESS:      37575  HIT:      20111  MISS:      17464
L2C LOAD      ACCESS:       2371  HIT:       2233  MISS:        138
L2C RFO       ACCESS:      16851  HIT:       1028  MISS:      15823
L2C PREFETCH  ACCESS:       1496  HIT:         24  MISS:       1472
L2C WRITEBACK ACCESS:      16857  HIT:      16826  MISS:         31

L2C DA-AMPM prefetcher final stats
LLC TOTAL     ACCESS:      33262  HIT:         24  MISS:      33238
LLC LOAD      ACCESS:        138  HIT:          0  MISS:        138
LLC RFO       ACCESS:      15823  HIT:          1  MISS:      15822
LLC PREFETCH  ACCESS:       1472  HIT:          0  MISS:       1472
LLC WRITEBACK ACCESS:      15829  HIT:         23  MISS:      15806

CPU 4 cumulative IPC: 0.608794 instructions: 142841913 cycles: 234630902
L1D TOTAL     ACCESS:   31653664  HIT:   30592696  MISS:    1060968
L1D LOAD      ACCESS:   20669298  HIT:   19743451  MISS:     925847
L1D RFO       ACCESS:   10984366  HIT:   10849245  MISS:     135121
L1D PREFETCH  ACCESS:          0  HIT:          0  MISS:          0
L1D WRITEBACK ACCESS:          0  HIT:          0  MISS:          0
L1I TOTAL     ACCESS:   27783037  HIT:   27782739  MISS:        298
L1I LOAD      ACCESS:   27783037  HIT:   27782739  MISS:        298
L1I RFO       ACCESS:          0  HIT:          0  MISS:          0
L1I PREFETCH  ACCESS:          0  HIT:          0  MISS:          0
L1I WRITEBACK ACCESS:          0  HIT:          0  MISS:          0
L2C TOTAL     ACCESS:    1835593  HIT:    1172385  MISS:     663208
L2C LOAD      ACCESS:     926119  HIT:     377540  MISS:     548579
L2C RFO       ACCESS:     135060  HIT:      82246  MISS:      52814
L2C PREFETCH  ACCESS:      96254  HIT:      36197  MISS:      60057
L2C WRITEBACK ACCESS:     678160  HIT:     676402  MISS:       1758

L2C DA-AMPM prefetcher final stats
LLC TOTAL     ACCESS:    1087184  HIT:     765781  MISS:     321403
LLC LOAD      ACCESS:     548340  HIT:     273046  MISS:     275294
LLC RFO       ACCESS:      52807  HIT:      24967  MISS:      27840
LLC PREFETCH  ACCESS:      60300  HIT:      43811  MISS:      16489
LLC WRITEBACK ACCESS:     425737  HIT:     423957  MISS:       1780

CPU 5 cumulative IPC: 0.915752 instructions: 214863809 cycles: 234630902
L1D TOTAL     ACCESS:   45719796  HIT:   42876327  MISS:    2843469
L1D LOAD      ACCESS:   30642434  HIT:   27802262  MISS:    2840172
L1D RFO       ACCESS:   15077362  HIT:   15074065  MISS:       3297
L1D PREFETCH  ACCESS:          0  HIT:          0  MISS:          0
L1D WRITEBACK ACCESS:          0  HIT:          0  MISS:          0
L1I TOTAL     ACCESS:   45167726  HIT:   45167726  MISS:          0
L1I LOAD      ACCESS:   45167726  HIT:   45167726  MISS:          0
L1I RFO       ACCESS:          0  HIT:          0  MISS:          0
L1I PREFETCH  ACCESS:          0  HIT:          0  MISS:          0
L1I WRITEBACK ACCESS:          0  HIT:          0  MISS:          0
L2C TOTAL     ACCESS:    6416444  HIT:    3589847  MISS:    2826597
L2C LOAD      ACCESS:    2840172  HIT:    1672735  MISS:    1167437
L2C RFO       ACCESS:       3297  HIT:        493  MISS:       2804
L2C PREFETCH  ACCESS:    1685389  HIT:      29033  MISS:    1656356
L2C WRITEBACK ACCESS:    1887586  HIT:    1887586  MISS:          0

L2C DA-AMPM prefetcher final stats
LLC TOTAL     ACCESS:    4713004  HIT:    2828527  MISS:    1884477
LLC LOAD      ACCESS:    1089435  HIT:     939325  MISS:     150110
LLC RFO       ACCESS:       2804  HIT:       2804  MISS:          0
LLC PREFETCH  ACCESS:    1734358  HIT:          0  MISS:    1734358
LLC WRITEBACK ACCESS:    1886407  HIT:    1886398  MISS:          9

CPU 6 cumulative IPC: 0.426201 instructions: 100000001 cycles: 234630902
L1D TOTAL     ACCESS:   33581719  HIT:   33336801  MISS:     244918
L1D LOAD      ACCESS:   21947711  HIT:   21729548  MISS:     218163
L1D RFO       ACCESS:   11634008  HIT:   11607253  MISS:      26755
L1D PREFETCH  ACCESS:          0  HIT:          0  MISS:          0
L1D WRITEBACK ACCESS:          0  HIT:          0  MISS:          0
L1I TOTAL     ACCESS:   22805375  HIT:   22799600  MISS:       5775
L1I LOAD      ACCESS:   22805375  HIT:   22799600  MISS:       5775
L1I RFO       ACCESS:          0  HIT:          0  MISS:          0
L1I PREFETCH  ACCESS:          0  HIT:          0  MISS:          0
L1I WRITEBACK ACCESS:          0  HIT:          0  MISS:          0
L2C TOTAL     ACCESS:     301185  HIT:     291661  MISS:       9524
L2C LOAD      ACCESS:     223938  HIT:     217350  MISS:       6588
L2C RFO       ACCESS:      26754  HIT:      25918  MISS:        836
L2C PREFETCH  ACCESS:       2929  HIT:        875  MISS:       2054
L2C WRITEBACK ACCESS:      47564  HIT:      47518  MISS:         46

L2C DA-AMPM prefetcher final stats
LLC TOTAL     ACCESS:      10671  HIT:       1602  MISS:       9069
LLC LOAD      ACCESS:       6431  HIT:       1235  MISS:       5196
LLC RFO       ACCESS:        836  HIT:         96  MISS:        740
LLC PREFETCH  ACCESS:       2211  HIT:         12  MISS:       2199
LLC WRITEBACK ACCESS:       1193  HIT:        259  MISS:        934

CPU 7 cumulative IPC: 1.48537 instructions: 348514854 cycles: 234630903
L1D TOTAL     ACCESS:   97046185  HIT:   97046168  MISS:         17
L1D LOAD      ACCESS:   42149191  HIT:   42149186  MISS:          5
L1D RFO       ACCESS:   54896994  HIT:   54896982  MISS:         12
L1D PREFETCH  ACCESS:          0  HIT:          0  MISS:          0
L1D WRITEBACK ACCESS:          0  HIT:          0  MISS:          0
L1I TOTAL     ACCESS:   76177009  HIT:   76168697  MISS:       8312
L1I LOAD      ACCESS:   76177009  HIT:   76168697  MISS:       8312
L1I RFO       ACCESS:          0  HIT:          0  MISS:          0
L1I PREFETCH  ACCESS:          0  HIT:          0  MISS:          0
L1I WRITEBACK ACCESS:          0  HIT:          0  MISS:          0
L2C TOTAL     ACCESS:       8468  HIT:       8310  MISS:        158
L2C LOAD      ACCESS:       8317  HIT:       8310  MISS:          7
L2C RFO       ACCESS:         12  HIT:          0  MISS:         12
L2C PREFETCH  ACCESS:        139  HIT:          0  MISS:        139
L2C WRITEBACK ACCESS:          0  HIT:          0  MISS:          0

L2C DA-AMPM prefetcher final stats
LLC TOTAL     ACCESS:        158  HIT:          0  MISS:        158
LLC LOAD      ACCESS:          7  HIT:          0  MISS:          7
LLC RFO       ACCESS:         12  HIT:          0  MISS:         12
LLC PREFETCH  ACCESS:        139  HIT:          0  MISS:        139
LLC WRITEBACK ACCESS:          0  HIT:          0  MISS:          0

Region of Interest Statistics

CPU 0 cumulative IPC: 1.37827 instructions: 100000001 cycles: 72554558
L1D TOTAL     ACCESS:   16021223  HIT:   15682630  MISS:     338593
L1D LOAD      ACCESS:    9586908  HIT:    9352754  MISS:     234154
L1D RFO       ACCESS:    6434315  HIT:    6329876  MISS:     104439
L1D PREFETCH  ACCESS:          0  HIT:          0  MISS:          0
L1D WRITEBACK ACCESS:          0  HIT:          0  MISS:          0
L1D PREFETCH  REQUESTED:          0  ISSUED:          0  USEFUL:          0  USELESS:          0
L1I TOTAL     ACCESS:   22224823  HIT:   21684174  MISS:     540649
L1I LOAD      ACCESS:   22224823  HIT:   21684174  MISS:     540649
L1I RFO       ACCESS:          0  HIT:          0  MISS:          0
L1I PREFETCH  ACCESS:          0  HIT:          0  MISS:          0
L1I WRITEBACK ACCESS:          0  HIT:          0  MISS:          0
L1I PREFETCH  REQUESTED:          0  ISSUED:          0  USEFUL:          0  USELESS:          0
L2C TOTAL     ACCESS:    1107533  HIT:     886316  MISS:     221217
L2C LOAD      ACCESS:     774802  HIT:     701939  MISS:      72863
L2C RFO       ACCESS:     104359  HIT:      41862  MISS:      62497
L2C PREFETCH  ACCESS:      90760  HIT:       5927  MISS:      84833
L2C WRITEBACK ACCESS:     137612  HIT:     136588  MISS:       1024
L2C PREFETCH  REQUESTED:     266009  ISSUED:     265954  USEFUL:     166331  USELESS:      58348
LLC TOTAL     ACCESS:     306882  HIT:     175472  MISS:     131410
LLC LOAD      ACCESS:      61474  HIT:      44031  MISS:      17443
LLC RFO       ACCESS:      62493  HIT:       2551  MISS:      59942
LLC PREFETCH  ACCESS:      96223  HIT:      42895  MISS:      53328
LLC WRITEBACK ACCESS:      86692  HIT:      85995  MISS:        697
LLC PREFETCH  REQUESTED:          0  ISSUED:          0  USEFUL:    1056716  USELESS:    3198896
Major fault: 0 Minor fault: 5554

CPU 1 cumulative IPC: 0.597936 instructions: 100000000 cycles: 167242091
L1D TOTAL     ACCESS:   29672428  HIT:   28894855  MISS:     777573
L1D LOAD      ACCESS:   19272289  HIT:   18759081  MISS:     513208
L1D RFO       ACCESS:   10400139  HIT:   10135774  MISS:     264365
L1D PREFETCH  ACCESS:          0  HIT:          0  MISS:          0
L1D WRITEBACK ACCESS:          0  HIT:          0  MISS:          0
L1D PREFETCH  REQUESTED:          0  ISSUED:          0  USEFUL:          0  USELESS:          0
L1I TOTAL     ACCESS:   38521700  HIT:   38521637  MISS:         63
L1I LOAD      ACCESS:   38521700  HIT:   38521637  MISS:         63
L1I RFO       ACCESS:          0  HIT:          0  MISS:          0
L1I PREFETCH  ACCESS:          0  HIT:          0  MISS:          0
L1I WRITEBACK ACCESS:          0  HIT:          0  MISS:          0
L1I PREFETCH  REQUESTED:          0  ISSUED:          0  USEFUL:          0  USELESS:          0
L2C TOTAL     ACCESS:    1532911  HIT:     716603  MISS:     816308
L2C LOAD      ACCESS:     513271  HIT:     450013  MISS:      63258
L2C RFO       ACCESS:     264365  HIT:          0  MISS:     264365
L2C PREFETCH  ACCESS:     488808  HIT:        524  MISS:     488284
L2C WRITEBACK ACCESS:     266467  HIT:     266066  MISS:        401
L2C PREFETCH  REQUESTED:     656500  ISSUED:     656210  USEFUL:     557237  USELESS:      60277
LLC TOTAL     ACCESS:    1080733  HIT:     265276  MISS:     815457
LLC LOAD      ACCESS:      42570  HIT:        136  MISS:      42434
LLC RFO       ACCESS:     264365  HIT:          0  MISS:     264365
LLC PREFETCH  ACCESS:     508972  HIT:       1116  MISS:     507856
LLC WRITEBACK ACCESS:     264826  HIT:     264024  MISS:        802
LLC PREFETCH  REQUESTED:          0  ISSUED:          0  USEFUL:    1056716  USELESS:    3198896
Major fault: 0 Minor fault: 14160

CPU 2 cumulative IPC: 1.03077 instructions: 100000003 cycles: 97014425
L1D TOTAL     ACCESS:   32333373  HIT:   21836602  MISS:   10496771
L1D LOAD      ACCESS:   22020412  HIT:   12291583  MISS:    9728829
L1D RFO       ACCESS:   10312961  HIT:    9545019  MISS:     767942
L1D PREFETCH  ACCESS:          0  HIT:          0  MISS:          0
L1D WRITEBACK ACCESS:          0  HIT:          0  MISS:          0
L1D PREFETCH  REQUESTED:          0  ISSUED:          0  USEFUL:          0  USELESS:          0
L1I TOTAL     ACCESS:   24815367  HIT:   24040462  MISS:     774905
L1I LOAD      ACCESS:   24815367  HIT:   24040462  MISS:     774905
L1I RFO       ACCESS:          0  HIT:          0  MISS:          0
L1I PREFETCH  ACCESS:          0  HIT:          0  MISS:          0
L1I WRITEBACK ACCESS:          0  HIT:          0  MISS:          0
L1I PREFETCH  REQUESTED:          0  ISSUED:          0  USEFUL:          0  USELESS:          0
L2C TOTAL     ACCESS:   12806903  HIT:    9857948  MISS:    2948955
L2C LOAD      ACCESS:   10468063  HIT:    8605454  MISS:    1862609
L2C RFO       ACCESS:     767362  HIT:     371509  MISS:     395853
L2C PREFETCH  ACCESS:     706429  HIT:      17759  MISS:     688670
L2C WRITEBACK ACCESS:     865049  HIT:     863226  MISS:       1823
L2C PREFETCH  REQUESTED:    2683074  ISSUED:    2089589  USEFUL:     776437  USELESS:    1258119
LLC TOTAL     ACCESS:    3311496  HIT:    2691905  MISS:     619591
LLC LOAD      ACCESS:    1862407  HIT:    1809670  MISS:      52737
LLC RFO       ACCESS:     344250  HIT:     326717  MISS:      17533
LLC PREFETCH  ACCESS:     688779  HIT:     139530  MISS:     549249
LLC WRITEBACK ACCESS:     416060  HIT:     415988  MISS:         72
LLC PREFETCH  REQUESTED:          0  ISSUED:          0  USEFUL:    1056716  USELESS:    3198896
Major fault: 0 Minor fault: 17626

CPU 3 cumulative IPC: 1.13625 instructions: 100000002 cycles: 88008728
L1D TOTAL     ACCESS:   17213206  HIT:   17210604  MISS:       2602
L1D LOAD      ACCESS:   13879363  HIT:   13879035  MISS:        328
L1D RFO       ACCESS:    3333843  HIT:    3331569  MISS:       2274
L1D PREFETCH  ACCESS:          0  HIT:          0  MISS:          0
L1D WRITEBACK ACCESS:          0  HIT:          0  MISS:          0
L1D PREFETCH  REQUESTED:          0  ISSUED:          0  USEFUL:          0  USELESS:          0
L1I TOTAL     ACCESS:   24254828  HIT:   24254828  MISS:          0
L1I LOAD      ACCESS:   24254828  HIT:   24254828  MISS:          0
L1I RFO       ACCESS:          0  HIT:          0  MISS:          0
L1I PREFETCH  ACCESS:          0  HIT:          0  MISS:          0
L1I WRITEBACK ACCESS:          0  HIT:          0  MISS:          0
L1I PREFETCH  REQUESTED:          0  ISSUED:          0  USEFUL:          0  USELESS:          0
L2C TOTAL     ACCESS:       5088  HIT:       2803  MISS:       2285
L2C LOAD      ACCESS:        328  HIT:        313  MISS:         15
L2C RFO       ACCESS:       2274  HIT:        205  MISS:       2069
L2C PREFETCH  ACCESS:        204  HIT:          3  MISS:        201
L2C WRITEBACK ACCESS:       2282  HIT:       2282  MISS:          0
L2C PREFETCH  REQUESTED:       4437  ISSUED:       4437  USEFUL:       4122  USELESS:        142
LLC TOTAL     ACCESS:       4316  HIT:         18  MISS:       4298
LLC LOAD      ACCESS:         15  HIT:          0  MISS:         15
LLC RFO       ACCESS:       2069  HIT:          0  MISS:       2069
LLC PREFETCH  ACCESS:        201  HIT:          0  MISS:        201
LLC WRITEBACK ACCESS:       2031  HIT:         18  MISS:       2013
LLC PREFETCH  REQUESTED:          0  ISSUED:          0  USEFUL:    1056716  USELESS:    3198896
Major fault: 0 Minor fault: 777

CPU 4 cumulative IPC: 0.597656 instructions: 100000000 cycles: 167320270
L1D TOTAL     ACCESS:   22101852  HIT:   21326286  MISS:     775566
L1D LOAD      ACCESS:   14587236  HIT:   13908202  MISS:     679034
L1D RFO       ACCESS:    7514616  HIT:    7418084  MISS:      96532
L1D PREFETCH  ACCESS:          0  HIT:          0  MISS:          0
L1D WRITEBACK ACCESS:          0  HIT:          0  MISS:          0
L1D PREFETCH  REQUESTED:          0  ISSUED:          0  USEFUL:          0  USELESS:          0
L1I TOTAL     ACCESS:   19513042  HIT:   19512843  MISS:        199
L1I LOAD      ACCESS:   19513042  HIT:   19512843  MISS:        199
L1I RFO       ACCESS:          0  HIT:          0  MISS:          0
L1I PREFETCH  ACCESS:          0  HIT:          0  MISS:          0
L1I WRITEBACK ACCESS:          0  HIT:          0  MISS:          0
L1I PREFETCH  REQUESTED:          0  ISSUED:          0  USEFUL:          0  USELESS:          0
L2C TOTAL     ACCESS:    1338523  HIT:     857959  MISS:     480564
L2C LOAD      ACCESS:     679216  HIT:     278570  MISS:     400646
L2C RFO       ACCESS:      96489  HIT:      60802  MISS:      35687
L2C PREFETCH  ACCESS:      69786  HIT:      26750  MISS:      43036
L2C WRITEBACK ACCESS:     493032  HIT:     491837  MISS:       1195
L2C PREFETCH  REQUESTED:     118323  ISSUED:     118323  USEFUL:      28780  USELESS:      44196
LLC TOTAL     ACCESS:     787869  HIT:     563052  MISS:     224817
LLC LOAD      ACCESS:     400486  HIT:     206439  MISS:     194047
LLC RFO       ACCESS:      35680  HIT:      17248  MISS:      18432
LLC PREFETCH  ACCESS:      43200  HIT:      32139  MISS:      11061
LLC WRITEBACK ACCESS:     308503  HIT:     307226  MISS:       1277
LLC PREFETCH  REQUESTED:          0  ISSUED:          0  USEFUL:    1056716  USELESS:    3198896
Major fault: 0 Minor fault: 7824

CPU 5 cumulative IPC: 0.913759 instructions: 100000000 cycles: 109437993
L1D TOTAL     ACCESS:   21278028  HIT:   19954647  MISS:    1323381
L1D LOAD      ACCESS:   14260857  HIT:   12939009  MISS:    1321848
L1D RFO       ACCESS:    7017171  HIT:    7015638  MISS:       1533
L1D PREFETCH  ACCESS:          0  HIT:          0  MISS:          0
L1D WRITEBACK ACCESS:          0  HIT:          0  MISS:          0
L1D PREFETCH  REQUESTED:          0  ISSUED:          0  USEFUL:          0  USELESS:          0
L1I TOTAL     ACCESS:   21018357  HIT:   21018357  MISS:          0
L1I LOAD      ACCESS:   21018357  HIT:   21018357  MISS:          0
L1I RFO       ACCESS:          0  HIT:          0  MISS:          0
L1I PREFETCH  ACCESS:          0  HIT:          0  MISS:          0
L1I WRITEBACK ACCESS:          0  HIT:          0  MISS:          0
L1I PREFETCH  REQUESTED:          0  ISSUED:          0  USEFUL:          0  USELESS:          0
L2C TOTAL     ACCESS:    2984853  HIT:    1670865  MISS:    1313988
L2C LOAD      ACCESS:    1321848  HIT:     778643  MISS:     543205
L2C RFO       ACCESS:       1533  HIT:        229  MISS:       1304
L2C PREFETCH  ACCESS:     782968  HIT:      13489  MISS:     769479
L2C WRITEBACK ACCESS:     878504  HIT:     878504  MISS:          0
L2C PREFETCH  REQUESTED:    2038826  ISSUED:    2038826  USEFUL:    1891560  USELESS:       2950
LLC TOTAL     ACCESS:    2191958  HIT:    1314903  MISS:     877055
LLC LOAD      ACCESS:     506845  HIT:     435634  MISS:      71211
LLC RFO       ACCESS:       1304  HIT:       1304  MISS:          0
LLC PREFETCH  ACCESS:     805840  HIT:          0  MISS:     805840
LLC WRITEBACK ACCESS:     877969  HIT:     877965  MISS:          4
LLC PREFETCH  REQUESTED:          0  ISSUED:          0  USEFUL:    1056716  USELESS:    3198896
Major fault: 0 Minor fault: 33540

CPU 6 cumulative IPC: 0.426201 instructions: 100000001 cycles: 234630902
L1D TOTAL     ACCESS:   33581719  HIT:   33336801  MISS:     244918
L1D LOAD      ACCESS:   21947711  HIT:   21729548  MISS:     218163
L1D RFO       ACCESS:   11634008  HIT:   11607253  MISS:      26755
L1D PREFETCH  ACCESS:          0  HIT:          0  MISS:          0
L1D WRITEBACK ACCESS:          0  HIT:          0  MISS:          0
L1D PREFETCH  REQUESTED:          0  ISSUED:          0  USEFUL:          0  USELESS:          0
L1I TOTAL     ACCESS:   22805375  HIT:   22799600  MISS:       5775
L1I LOAD      ACCESS:   22805375  HIT:   22799600  MISS:       5775
L1I RFO       ACCESS:          0  HIT:          0  MISS:          0
L1I PREFETCH  ACCESS:          0  HIT:          0  MISS:          0
L1I WRITEBACK ACCESS:          0  HIT:          0  MISS:          0
L1I PREFETCH  REQUESTED:          0  ISSUED:          0  USEFUL:          0  USELESS:          0
L2C TOTAL     ACCESS:     301185  HIT:     291661  MISS:       9524
L2C LOAD      ACCESS:     223938  HIT:     217350  MISS:       6588
L2C RFO       ACCESS:      26754  HIT:      25918  MISS:        836
L2C PREFETCH  ACCESS:       2929  HIT:        875  MISS:       2054
L2C WRITEBACK ACCESS:      47564  HIT:      47518  MISS:         46
L2C PREFETCH  REQUESTED:       6635  ISSUED:       6635  USEFUL:       2260  USELESS:       2295
LLC TOTAL     ACCESS:      10671  HIT:       1602  MISS:       9069
LLC LOAD      ACCESS:       6431  HIT:       1235  MISS:       5196
LLC RFO       ACCESS:        836  HIT:         96  MISS:        740
LLC PREFETCH  ACCESS:       2211  HIT:         12  MISS:       2199
LLC WRITEBACK ACCESS:       1193  HIT:        259  MISS:        934
LLC PREFETCH  REQUESTED:          0  ISSUED:          0  USEFUL:    1056716  USELESS:    3198896
Major fault: 0 Minor fault: 467

CPU 7 cumulative IPC: 1.48036 instructions: 100000000 cycles: 67551095
L1D TOTAL     ACCESS:   29132460  HIT:   29132460  MISS:          0
L1D LOAD      ACCESS:   12608808  HIT:   12608808  MISS:          0
L1D RFO       ACCESS:   16523652  HIT:   16523652  MISS:          0
L1D PREFETCH  ACCESS:          0  HIT:          0  MISS:          0
L1D WRITEBACK ACCESS:          0  HIT:          0  MISS:          0
L1D PREFETCH  REQUESTED:          0  ISSUED:          0  USEFUL:          0  USELESS:          0
L1I TOTAL     ACCESS:   21750959  HIT:   21749766  MISS:       1193
L1I LOAD      ACCESS:   21750959  HIT:   21749766  MISS:       1193
L1I RFO       ACCESS:          0  HIT:          0  MISS:          0
L1I PREFETCH  ACCESS:          0  HIT:          0  MISS:          0
L1I WRITEBACK ACCESS:          0  HIT:          0  MISS:          0
L1I PREFETCH  REQUESTED:          0  ISSUED:          0  USEFUL:          0  USELESS:          0
L2C TOTAL     ACCESS:       1294  HIT:       1193  MISS:        101
L2C LOAD      ACCESS:       1193  HIT:       1193  MISS:          0
L2C RFO       ACCESS:          0  HIT:          0  MISS:          0
L2C PREFETCH  ACCESS:        101  HIT:          0  MISS:        101
L2C WRITEBACK ACCESS:          0  HIT:          0  MISS:          0
L2C PREFETCH  REQUESTED:       1396  ISSUED:       1396  USEFUL:        996  USELESS:          0
LLC TOTAL     ACCESS:        101  HIT:          0  MISS:        101
LLC LOAD      ACCESS:          0  HIT:          0  MISS:          0
LLC RFO       ACCESS:          0  HIT:          0  MISS:          0
LLC PREFETCH  ACCESS:        101  HIT:          0  MISS:        101
LLC WRITEBACK ACCESS:          0  HIT:          0  MISS:          0
LLC PREFETCH  REQUESTED:          0  ISSUED:          0  USEFUL:    1056716  USELESS:    3198896
Major fault: 0 Minor fault: 46

L2C DA-AMPM prefetcher final stats

L2C DA-AMPM prefetcher final stats

L2C DA-AMPM prefetcher final stats

L2C DA-AMPM prefetcher final stats

L2C DA-AMPM prefetcher final stats

L2C DA-AMPM prefetcher final stats

L2C DA-AMPM prefetcher final stats

L2C DA-AMPM prefetcher final stats

DRAM Statistics
 CHANNEL 0
 RQ ROW_BUFFER_HIT:    1510611  ROW_BUFFER_MISS:    1148311
 DBUS_CONGESTED:    5143757
 WQ ROW_BUFFER_HIT:     246409  ROW_BUFFER_MISS:    1210681  FULL:          0

 CHANNEL 1
 RQ ROW_BUFFER_HIT:    1513500  ROW_BUFFER_MISS:    1144374
 DBUS_CONGESTED:    5143757
 WQ ROW_BUFFER_HIT:     246648  ROW_BUFFER_MISS:    1207769  FULL:          0

 AVG_CONGESTED_CYCLE: 14
