
*** ChampSim Multicore Out-of-Order Simulator ***

Warmup Instructions: 20000000
Simulation Instructions: 100000000
Number of CPUs: 8
LLC sets: 16384
LLC ways: 16
Off-chip DRAM Size: 8192 MB Channels: 2 Width: 64-bit Data Rate: 1600 MT/s

CPU 0 runs /scratch/user/djimenez/champsim-traces/speccpu2017/xz/627.cam4_s/627.cam4_s-490B.champsimtrace.xz
CPU 1 runs /scratch/user/djimenez/champsim-traces/speccpu2017/xz/641.leela_s/641.leela_s-149B.champsimtrace.xz
CPU 2 runs /scratch/user/djimenez/champsim-traces/speccpu2017/xz/600.perlbench_s/600.perlbench_s-570B.champsimtrace.xz
CPU 3 runs /scratch/user/djimenez/champsim-traces/speccpu2017/xz/623.xalancbmk_s/623.xalancbmk_s-592B.champsimtrace.xz
CPU 4 runs /scratch/user/djimenez/champsim-traces/speccpu2017/xz/654.roms_s/654.roms_s-1613B.champsimtrace.xz
CPU 5 runs /scratch/user/djimenez/champsim-traces/speccpu2017/xz/644.nab_s/644.nab_s-12521B.champsimtrace.xz
CPU 6 runs /scratch/user/djimenez/champsim-traces/speccpu2017/xz/648.exchange2_s/648.exchange2_s-1511B.champsimtrace.xz
CPU 7 runs /scratch/user/djimenez/champsim-traces/speccpu2017/xz/620.omnetpp_s/620.omnetpp_s-141B.champsimtrace.xz
L2C DA-AMPM prefetcher
L2C DA-AMPM prefetcher
L2C DA-AMPM prefetcher
L2C DA-AMPM prefetcher
L2C DA-AMPM prefetcher
L2C DA-AMPM prefetcher
L2C DA-AMPM prefetcher
L2C DA-AMPM prefetcher
Heartbeat CPU 0 instructions: 10000002 cycles: 3995368 heartbeat IPC: 2.5029 cumulative IPC: 2.5029 (Simulation time: 0 hr 3 min 46 sec) 
Heartbeat CPU 6 instructions: 10000001 cycles: 4340421 heartbeat IPC: 2.30392 cumulative IPC: 2.30392 (Simulation time: 0 hr 4 min 6 sec) 
Heartbeat CPU 5 instructions: 10000000 cycles: 4386616 heartbeat IPC: 2.27966 cumulative IPC: 2.27966 (Simulation time: 0 hr 4 min 9 sec) 
Heartbeat CPU 4 instructions: 10000003 cycles: 4454169 heartbeat IPC: 2.24509 cumulative IPC: 2.24509 (Simulation time: 0 hr 4 min 12 sec) 
Heartbeat CPU 3 instructions: 10000002 cycles: 5027613 heartbeat IPC: 1.98902 cumulative IPC: 1.98902 (Simulation time: 0 hr 4 min 42 sec) 
Heartbeat CPU 2 instructions: 10000000 cycles: 5689985 heartbeat IPC: 1.75747 cumulative IPC: 1.75747 (Simulation time: 0 hr 5 min 17 sec) 
Heartbeat CPU 1 instructions: 10000000 cycles: 6140126 heartbeat IPC: 1.62863 cumulative IPC: 1.62863 (Simulation time: 0 hr 5 min 39 sec) 
Heartbeat CPU 7 instructions: 10000000 cycles: 7402531 heartbeat IPC: 1.35089 cumulative IPC: 1.35089 (Simulation time: 0 hr 7 min 8 sec) 
Heartbeat CPU 0 instructions: 20000000 cycles: 7769880 heartbeat IPC: 2.64935 cumulative IPC: 2.57404 (Simulation time: 0 hr 7 min 30 sec) 
Heartbeat CPU 6 instructions: 20000000 cycles: 8622983 heartbeat IPC: 2.33505 cumulative IPC: 2.31938 (Simulation time: 0 hr 8 min 17 sec) 
Heartbeat CPU 5 instructions: 20000000 cycles: 8773905 heartbeat IPC: 2.27931 cumulative IPC: 2.27949 (Simulation time: 0 hr 8 min 27 sec) 
Heartbeat CPU 4 instructions: 20000000 cycles: 8908079 heartbeat IPC: 2.24522 cumulative IPC: 2.24515 (Simulation time: 0 hr 8 min 36 sec) 
Heartbeat CPU 3 instructions: 20000000 cycles: 10136675 heartbeat IPC: 1.95731 cumulative IPC: 1.97303 (Simulation time: 0 hr 9 min 52 sec) 
Heartbeat CPU 2 instructions: 20000000 cycles: 11556123 heartbeat IPC: 1.7047 cumulative IPC: 1.73068 (Simulation time: 0 hr 11 min 7 sec) 
Heartbeat CPU 0 instructions: 30000000 cycles: 11740197 heartbeat IPC: 2.51869 cumulative IPC: 0.851774 (Simulation time: 0 hr 11 min 18 sec) 
Heartbeat CPU 6 instructions: 30000000 cycles: 12762340 heartbeat IPC: 2.41583 cumulative IPC: 0.783555 (Simulation time: 0 hr 12 min 13 sec) 
Heartbeat CPU 5 instructions: 30000002 cycles: 13162074 heartbeat IPC: 2.27886 cumulative IPC: 0.759759 (Simulation time: 0 hr 12 min 32 sec) 
Heartbeat CPU 1 instructions: 20000000 cycles: 13349912 heartbeat IPC: 1.387 cumulative IPC: 1.49814 (Simulation time: 0 hr 12 min 41 sec) 
Heartbeat CPU 4 instructions: 30000001 cycles: 13361975 heartbeat IPC: 2.24523 cumulative IPC: 0.748392 (Simulation time: 0 hr 12 min 42 sec) 
Heartbeat CPU 7 instructions: 20000000 cycles: 14826140 heartbeat IPC: 1.34705 cumulative IPC: 1.34897 (Simulation time: 0 hr 13 min 57 sec) 

Warmup complete CPU 0 instructions: 38060252 cycles: 14826141 (Simulation time: 0 hr 13 min 57 sec) 
Warmup complete CPU 1 instructions: 22277947 cycles: 14826141 (Simulation time: 0 hr 13 min 57 sec) 
Warmup complete CPU 2 instructions: 25535673 cycles: 14826141 (Simulation time: 0 hr 13 min 57 sec) 
Warmup complete CPU 3 instructions: 27683915 cycles: 14826141 (Simulation time: 0 hr 13 min 57 sec) 
Warmup complete CPU 4 instructions: 33286717 cycles: 14826141 (Simulation time: 0 hr 13 min 57 sec) 
Warmup complete CPU 5 instructions: 33793603 cycles: 14826141 (Simulation time: 0 hr 13 min 57 sec) 
Warmup complete CPU 6 instructions: 34953617 cycles: 14826141 (Simulation time: 0 hr 13 min 57 sec) 
Warmup complete CPU 7 instructions: 20000002 cycles: 14826141 (Simulation time: 0 hr 13 min 57 sec) 

Heartbeat CPU 0 instructions: 40000000 cycles: 16525102 heartbeat IPC: 2.08991 cumulative IPC: 1.14173 (Simulation time: 0 hr 14 min 41 sec) 
Heartbeat CPU 6 instructions: 40000000 cycles: 17985183 heartbeat IPC: 1.91467 cumulative IPC: 1.59744 (Simulation time: 0 hr 15 min 18 sec) 
Heartbeat CPU 2 instructions: 30000000 cycles: 21320304 heartbeat IPC: 1.02415 cumulative IPC: 0.687437 (Simulation time: 0 hr 16 min 41 sec) 
Heartbeat CPU 5 instructions: 40000000 cycles: 21551019 heartbeat IPC: 1.19204 cumulative IPC: 0.922901 (Simulation time: 0 hr 16 min 47 sec) 
Heartbeat CPU 3 instructions: 30000000 cycles: 22089452 heartbeat IPC: 0.836626 cumulative IPC: 0.318875 (Simulation time: 0 hr 17 min 1 sec) 
Heartbeat CPU 4 instructions: 40000000 cycles: 24074411 heartbeat IPC: 0.933494 cumulative IPC: 0.725896 (Simulation time: 0 hr 17 min 51 sec) 
Heartbeat CPU 6 instructions: 50000002 cycles: 24359747 heartbeat IPC: 1.56874 cumulative IPC: 1.57825 (Simulation time: 0 hr 17 min 59 sec) 
Heartbeat CPU 0 instructions: 50000000 cycles: 25633098 heartbeat IPC: 1.09794 cumulative IPC: 1.10482 (Simulation time: 0 hr 18 min 31 sec) 
Heartbeat CPU 6 instructions: 60000000 cycles: 30784839 heartbeat IPC: 1.5564 cumulative IPC: 1.56945 (Simulation time: 0 hr 20 min 32 sec) 
Heartbeat CPU 5 instructions: 50000001 cycles: 32423805 heartbeat IPC: 0.919728 cumulative IPC: 0.92094 (Simulation time: 0 hr 21 min 11 sec) 
Heartbeat CPU 1 instructions: 30000001 cycles: 34320456 heartbeat IPC: 0.476859 cumulative IPC: 0.396118 (Simulation time: 0 hr 21 min 56 sec) 
Heartbeat CPU 2 instructions: 40000000 cycles: 35121147 heartbeat IPC: 0.724593 cumulative IPC: 0.712704 (Simulation time: 0 hr 22 min 15 sec) 
Heartbeat CPU 0 instructions: 60000000 cycles: 35155662 heartbeat IPC: 1.05014 cumulative IPC: 1.07921 (Simulation time: 0 hr 22 min 16 sec) 
Heartbeat CPU 6 instructions: 70000000 cycles: 37355323 heartbeat IPC: 1.52196 cumulative IPC: 1.5556 (Simulation time: 0 hr 23 min 9 sec) 
Heartbeat CPU 4 instructions: 50000000 cycles: 43231530 heartbeat IPC: 0.521999 cumulative IPC: 0.588384 (Simulation time: 0 hr 25 min 30 sec) 
Heartbeat CPU 5 instructions: 60000000 cycles: 43336970 heartbeat IPC: 0.916324 cumulative IPC: 0.919173 (Simulation time: 0 hr 25 min 33 sec) 
Heartbeat CPU 0 instructions: 70000000 cycles: 43986161 heartbeat IPC: 1.13244 cumulative IPC: 1.09533 (Simulation time: 0 hr 25 min 47 sec) 
Heartbeat CPU 6 instructions: 80000000 cycles: 44989085 heartbeat IPC: 1.30997 cumulative IPC: 1.49343 (Simulation time: 0 hr 26 min 11 sec) 
Heartbeat CPU 2 instructions: 50000002 cycles: 48122693 heartbeat IPC: 0.769139 cumulative IPC: 0.734741 (Simulation time: 0 hr 27 min 28 sec) 
Heartbeat CPU 6 instructions: 90000000 cycles: 51925462 heartbeat IPC: 1.44167 cumulative IPC: 1.48376 (Simulation time: 0 hr 29 min 1 sec) 
Heartbeat CPU 3 instructions: 40000000 cycles: 53123815 heartbeat IPC: 0.322223 cumulative IPC: 0.321588 (Simulation time: 0 hr 29 min 32 sec) 
Heartbeat CPU 0 instructions: 80000000 cycles: 53413081 heartbeat IPC: 1.06079 cumulative IPC: 1.08689 (Simulation time: 0 hr 29 min 39 sec) 
Heartbeat CPU 5 instructions: 70000001 cycles: 54221949 heartbeat IPC: 0.918697 cumulative IPC: 0.919042 (Simulation time: 0 hr 30 min 0 sec) 
Heartbeat CPU 4 instructions: 60000000 cycles: 56953287 heartbeat IPC: 0.72877 cumulative IPC: 0.634111 (Simulation time: 0 hr 31 min 8 sec) 
Heartbeat CPU 1 instructions: 40000000 cycles: 58319109 heartbeat IPC: 0.41669 cumulative IPC: 0.407469 (Simulation time: 0 hr 31 min 43 sec) 
Heartbeat CPU 7 instructions: 30000003 cycles: 58566830 heartbeat IPC: 0.22862 cumulative IPC: 0.22862 (Simulation time: 0 hr 31 min 50 sec) 
Heartbeat CPU 6 instructions: 100000000 cycles: 58788494 heartbeat IPC: 1.45708 cumulative IPC: 1.47959 (Simulation time: 0 hr 31 min 55 sec) 
Heartbeat CPU 2 instructions: 60000000 cycles: 60996054 heartbeat IPC: 0.776798 cumulative IPC: 0.746467 (Simulation time: 0 hr 32 min 53 sec) 
Heartbeat CPU 0 instructions: 90000002 cycles: 62319253 heartbeat IPC: 1.12282 cumulative IPC: 1.09363 (Simulation time: 0 hr 33 min 27 sec) 
Heartbeat CPU 5 instructions: 80000000 cycles: 65063482 heartbeat IPC: 0.922379 cumulative IPC: 0.919762 (Simulation time: 0 hr 34 min 32 sec) 
Heartbeat CPU 6 instructions: 110000001 cycles: 65659574 heartbeat IPC: 1.45538 cumulative IPC: 1.47632 (Simulation time: 0 hr 34 min 47 sec) 
Heartbeat CPU 4 instructions: 70000001 cycles: 70710340 heartbeat IPC: 0.7269 cumulative IPC: 0.656953 (Simulation time: 0 hr 36 min 50 sec) 
Heartbeat CPU 0 instructions: 100000000 cycles: 71648898 heartbeat IPC: 1.07185 cumulative IPC: 1.09005 (Simulation time: 0 hr 37 min 11 sec) 
Heartbeat CPU 6 instructions: 120000000 cycles: 72502988 heartbeat IPC: 1.46126 cumulative IPC: 1.47453 (Simulation time: 0 hr 37 min 33 sec) 
Heartbeat CPU 5 instructions: 90000003 cycles: 75924225 heartbeat IPC: 0.920748 cumulative IPC: 0.919937 (Simulation time: 0 hr 39 min 1 sec) 
Heartbeat CPU 6 instructions: 130000002 cycles: 78683309 heartbeat IPC: 1.61804 cumulative IPC: 1.48842 (Simulation time: 0 hr 40 min 8 sec) 
Heartbeat CPU 0 instructions: 110000001 cycles: 80797478 heartbeat IPC: 1.09307 cumulative IPC: 1.09047 (Simulation time: 0 hr 40 min 59 sec) 
Heartbeat CPU 3 instructions: 50000002 cycles: 81101690 heartbeat IPC: 0.357425 cumulative IPC: 0.336717 (Simulation time: 0 hr 41 min 6 sec) 
Heartbeat CPU 2 instructions: 70000002 cycles: 81107396 heartbeat IPC: 0.497232 cumulative IPC: 0.670843 (Simulation time: 0 hr 41 min 6 sec) 
Finished CPU 6 instructions: 100000000 cycles: 66890952 cumulative IPC: 1.49497 (Simulation time: 0 hr 41 min 21 sec) 
Heartbeat CPU 1 instructions: 50000000 cycles: 82118590 heartbeat IPC: 0.420177 cumulative IPC: 0.411964 (Simulation time: 0 hr 41 min 30 sec) 
Heartbeat CPU 4 instructions: 80000000 cycles: 84442819 heartbeat IPC: 0.728201 cumulative IPC: 0.671007 (Simulation time: 0 hr 42 min 27 sec) 
Heartbeat CPU 6 instructions: 140000000 cycles: 84871551 heartbeat IPC: 1.61597 cumulative IPC: 1.49969 (Simulation time: 0 hr 42 min 37 sec) 
Heartbeat CPU 5 instructions: 100000000 cycles: 86928788 heartbeat IPC: 0.908714 cumulative IPC: 0.918224 (Simulation time: 0 hr 43 min 28 sec) 
Heartbeat CPU 0 instructions: 120000000 cycles: 90285779 heartbeat IPC: 1.05393 cumulative IPC: 1.08588 (Simulation time: 0 hr 44 min 46 sec) 
Heartbeat CPU 6 instructions: 150000000 cycles: 92278204 heartbeat IPC: 1.35014 cumulative IPC: 1.48539 (Simulation time: 0 hr 45 min 35 sec) 
Heartbeat CPU 5 instructions: 110000001 cycles: 97776995 heartbeat IPC: 0.921811 cumulative IPC: 0.918693 (Simulation time: 0 hr 47 min 49 sec) 
Heartbeat CPU 4 instructions: 90000001 cycles: 98257669 heartbeat IPC: 0.723859 cumulative IPC: 0.679758 (Simulation time: 0 hr 48 min 1 sec) 
Heartbeat CPU 6 instructions: 160000000 cycles: 98465081 heartbeat IPC: 1.61632 cumulative IPC: 1.49507 (Simulation time: 0 hr 48 min 5 sec) 
Heartbeat CPU 0 instructions: 130000001 cycles: 99535890 heartbeat IPC: 1.08107 cumulative IPC: 1.08535 (Simulation time: 0 hr 48 min 29 sec) 
Heartbeat CPU 7 instructions: 40000000 cycles: 101811593 heartbeat IPC: 0.231242 cumulative IPC: 0.229923 (Simulation time: 0 hr 49 min 26 sec) 
Heartbeat CPU 2 instructions: 80000000 cycles: 102122696 heartbeat IPC: 0.475844 cumulative IPC: 0.6239 (Simulation time: 0 hr 49 min 33 sec) 
Heartbeat CPU 6 instructions: 170000003 cycles: 104631784 heartbeat IPC: 1.62161 cumulative IPC: 1.50376 (Simulation time: 0 hr 50 min 31 sec) 
Heartbeat CPU 1 instructions: 60000000 cycles: 105791636 heartbeat IPC: 0.422421 cumulative IPC: 0.414685 (Simulation time: 0 hr 50 min 57 sec) 
Finished CPU 0 instructions: 100000001 cycles: 92374667 cumulative IPC: 1.08255 (Simulation time: 0 hr 51 min 30 sec) 
Heartbeat CPU 3 instructions: 60000000 cycles: 107252073 heartbeat IPC: 0.382403 cumulative IPC: 0.349643 (Simulation time: 0 hr 51 min 31 sec) 
Heartbeat CPU 5 instructions: 120000000 cycles: 108583994 heartbeat IPC: 0.925326 cumulative IPC: 0.919458 (Simulation time: 0 hr 52 min 1 sec) 
Heartbeat CPU 0 instructions: 140000000 cycles: 109021248 heartbeat IPC: 1.05426 cumulative IPC: 1.08222 (Simulation time: 0 hr 52 min 12 sec) 
Heartbeat CPU 6 instructions: 180000000 cycles: 110810743 heartbeat IPC: 1.6184 cumulative IPC: 1.51114 (Simulation time: 0 hr 52 min 53 sec) 
Heartbeat CPU 4 instructions: 100000000 cycles: 112007468 heartbeat IPC: 0.727283 cumulative IPC: 0.686483 (Simulation time: 0 hr 53 min 20 sec) 
Heartbeat CPU 6 instructions: 190000000 cycles: 116986039 heartbeat IPC: 1.61936 cumulative IPC: 1.51768 (Simulation time: 0 hr 55 min 15 sec) 
Heartbeat CPU 0 instructions: 150000001 cycles: 118236050 heartbeat IPC: 1.08521 cumulative IPC: 1.08249 (Simulation time: 0 hr 55 min 44 sec) 
Heartbeat CPU 5 instructions: 130000000 cycles: 119432330 heartbeat IPC: 0.9218 cumulative IPC: 0.919701 (Simulation time: 0 hr 56 min 11 sec) 
Heartbeat CPU 6 instructions: 200000000 cycles: 123180406 heartbeat IPC: 1.61437 cumulative IPC: 1.52321 (Simulation time: 0 hr 57 min 38 sec) 
Finished CPU 5 instructions: 100000000 cycles: 108712984 cumulative IPC: 0.919853 (Simulation time: 0 hr 57 min 46 sec) 
Heartbeat CPU 4 instructions: 110000001 cycles: 125803528 heartbeat IPC: 0.724845 cumulative IPC: 0.691252 (Simulation time: 0 hr 58 min 37 sec) 
Heartbeat CPU 0 instructions: 160000000 cycles: 127776853 heartbeat IPC: 1.04813 cumulative IPC: 1.07958 (Simulation time: 0 hr 59 min 23 sec) 
Heartbeat CPU 2 instructions: 90000002 cycles: 127832188 heartbeat IPC: 0.388961 cumulative IPC: 0.57045 (Simulation time: 0 hr 59 min 24 sec) 
Heartbeat CPU 6 instructions: 210000001 cycles: 129376103 heartbeat IPC: 1.61402 cumulative IPC: 1.52812 (Simulation time: 1 hr 0 min 1 sec) 
Heartbeat CPU 1 instructions: 70000003 cycles: 129405621 heartbeat IPC: 0.423478 cumulative IPC: 0.416497 (Simulation time: 1 hr 0 min 2 sec) 
Heartbeat CPU 5 instructions: 140000000 cycles: 130265509 heartbeat IPC: 0.92309 cumulative IPC: 0.920019 (Simulation time: 1 hr 0 min 24 sec) 
Heartbeat CPU 3 instructions: 70000001 cycles: 132197007 heartbeat IPC: 0.400883 cumulative IPC: 0.360533 (Simulation time: 1 hr 1 min 14 sec) 
Heartbeat CPU 6 instructions: 220000000 cycles: 136193070 heartbeat IPC: 1.46693 cumulative IPC: 1.52469 (Simulation time: 1 hr 2 min 47 sec) 
Heartbeat CPU 0 instructions: 170000001 cycles: 137278677 heartbeat IPC: 1.05243 cumulative IPC: 1.07748 (Simulation time: 1 hr 3 min 12 sec) 
Heartbeat CPU 5 instructions: 150000002 cycles: 141128075 heartbeat IPC: 0.920593 cumulative IPC: 0.920068 (Simulation time: 1 hr 4 min 44 sec) 
Heartbeat CPU 2 instructions: 100000000 cycles: 141743927 heartbeat IPC: 0.718817 cumulative IPC: 0.586713 (Simulation time: 1 hr 5 min 0 sec) 
Heartbeat CPU 6 instructions: 230000000 cycles: 142324181 heartbeat IPC: 1.63103 cumulative IPC: 1.5298 (Simulation time: 1 hr 5 min 14 sec) 
Heartbeat CPU 4 instructions: 120000000 cycles: 145131960 heartbeat IPC: 0.517372 cumulative IPC: 0.66546 (Simulation time: 1 hr 6 min 26 sec) 
Heartbeat CPU 7 instructions: 50000001 cycles: 146124648 heartbeat IPC: 0.225667 cumulative IPC: 0.228487 (Simulation time: 1 hr 6 min 52 sec) 
Heartbeat CPU 0 instructions: 180000000 cycles: 146762831 heartbeat IPC: 1.05439 cumulative IPC: 1.07582 (Simulation time: 1 hr 7 min 9 sec) 
Heartbeat CPU 6 instructions: 240000000 cycles: 148517114 heartbeat IPC: 1.61474 cumulative IPC: 1.53373 (Simulation time: 1 hr 7 min 55 sec) 
Heartbeat CPU 3 instructions: 80000000 cycles: 150860436 heartbeat IPC: 0.535807 cumulative IPC: 0.38458 (Simulation time: 1 hr 8 min 56 sec) 
Heartbeat CPU 5 instructions: 160000000 cycles: 152090895 heartbeat IPC: 0.912174 cumulative IPC: 0.919438 (Simulation time: 1 hr 9 min 28 sec) 
Heartbeat CPU 1 instructions: 80000000 cycles: 153027801 heartbeat IPC: 0.423331 cumulative IPC: 0.417665 (Simulation time: 1 hr 9 min 52 sec) 
Heartbeat CPU 6 instructions: 250000002 cycles: 154721242 heartbeat IPC: 1.61183 cumulative IPC: 1.5372 (Simulation time: 1 hr 10 min 37 sec) 
Heartbeat CPU 2 instructions: 110000000 cycles: 155427090 heartbeat IPC: 0.730825 cumulative IPC: 0.600738 (Simulation time: 1 hr 10 min 54 sec) 
Heartbeat CPU 0 instructions: 190000000 cycles: 156533254 heartbeat IPC: 1.0235 cumulative IPC: 1.07221 (Simulation time: 1 hr 11 min 24 sec) 
Heartbeat CPU 4 instructions: 130000000 cycles: 158825092 heartbeat IPC: 0.730293 cumulative IPC: 0.671625 (Simulation time: 1 hr 12 min 21 sec) 
Heartbeat CPU 6 instructions: 260000000 cycles: 161479509 heartbeat IPC: 1.47967 cumulative IPC: 1.53455 (Simulation time: 1 hr 13 min 31 sec) 
Heartbeat CPU 5 instructions: 170000000 cycles: 162971173 heartbeat IPC: 0.919094 cumulative IPC: 0.919412 (Simulation time: 1 hr 14 min 10 sec) 
Finished CPU 4 instructions: 100000003 cycles: 148521989 cumulative IPC: 0.673301 (Simulation time: 1 hr 14 min 19 sec) 
Heartbeat CPU 0 instructions: 200000000 cycles: 165853342 heartbeat IPC: 1.07295 cumulative IPC: 1.07226 (Simulation time: 1 hr 15 min 24 sec) 
Heartbeat CPU 6 instructions: 270000002 cycles: 167637335 heartbeat IPC: 1.62395 cumulative IPC: 1.53815 (Simulation time: 1 hr 16 min 10 sec) 
Heartbeat CPU 3 instructions: 90000000 cycles: 168058887 heartbeat IPC: 0.581448 cumulative IPC: 0.406676 (Simulation time: 1 hr 16 min 21 sec) 
Heartbeat CPU 2 instructions: 120000000 cycles: 170137134 heartbeat IPC: 0.679808 cumulative IPC: 0.608227 (Simulation time: 1 hr 17 min 14 sec) 
Heartbeat CPU 4 instructions: 140000000 cycles: 172604078 heartbeat IPC: 0.725743 cumulative IPC: 0.676351 (Simulation time: 1 hr 18 min 17 sec) 
Heartbeat CPU 5 instructions: 180000000 cycles: 173735396 heartbeat IPC: 0.929003 cumulative IPC: 0.920062 (Simulation time: 1 hr 18 min 46 sec) 
Heartbeat CPU 6 instructions: 280000000 cycles: 173800013 heartbeat IPC: 1.62267 cumulative IPC: 1.54143 (Simulation time: 1 hr 18 min 48 sec) 
Heartbeat CPU 0 instructions: 210000003 cycles: 175523250 heartbeat IPC: 1.03414 cumulative IPC: 1.06996 (Simulation time: 1 hr 19 min 31 sec) 
Heartbeat CPU 1 instructions: 90000000 cycles: 176549778 heartbeat IPC: 0.425134 cumulative IPC: 0.418752 (Simulation time: 1 hr 19 min 56 sec) 
Finished CPU 2 instructions: 100000001 cycles: 163423526 cumulative IPC: 0.611907 (Simulation time: 1 hr 20 min 38 sec) 
Heartbeat CPU 6 instructions: 290000003 cycles: 181110034 heartbeat IPC: 1.36799 cumulative IPC: 1.5338 (Simulation time: 1 hr 21 min 51 sec) 
Heartbeat CPU 5 instructions: 190000000 cycles: 184521653 heartbeat IPC: 0.927106 cumulative IPC: 0.92051 (Simulation time: 1 hr 23 min 33 sec) 
Heartbeat CPU 2 instructions: 130000000 cycles: 184671286 heartbeat IPC: 0.688035 cumulative IPC: 0.615056 (Simulation time: 1 hr 23 min 38 sec) 
Heartbeat CPU 0 instructions: 220000000 cycles: 184924849 heartbeat IPC: 1.06365 cumulative IPC: 1.06961 (Simulation time: 1 hr 23 min 46 sec) 
Heartbeat CPU 4 instructions: 150000003 cycles: 186351375 heartbeat IPC: 0.727416 cumulative IPC: 0.680444 (Simulation time: 1 hr 24 min 24 sec) 
Heartbeat CPU 6 instructions: 300000000 cycles: 187313564 heartbeat IPC: 1.61198 cumulative IPC: 1.53661 (Simulation time: 1 hr 24 min 52 sec) 
Heartbeat CPU 3 instructions: 100000000 cycles: 188223639 heartbeat IPC: 0.495915 cumulative IPC: 0.417054 (Simulation time: 1 hr 25 min 21 sec) 
Heartbeat CPU 7 instructions: 60000000 cycles: 188533560 heartbeat IPC: 0.235799 cumulative IPC: 0.230272 (Simulation time: 1 hr 25 min 29 sec) 
Heartbeat CPU 6 instructions: 310000000 cycles: 194203145 heartbeat IPC: 1.45147 cumulative IPC: 1.53334 (Simulation time: 1 hr 28 min 7 sec) 
Heartbeat CPU 0 instructions: 230000000 cycles: 194864659 heartbeat IPC: 1.00606 cumulative IPC: 1.0661 (Simulation time: 1 hr 28 min 23 sec) 
Heartbeat CPU 5 instructions: 200000000 cycles: 195353483 heartbeat IPC: 0.923205 cumulative IPC: 0.920672 (Simulation time: 1 hr 28 min 36 sec) 
Heartbeat CPU 1 instructions: 100000000 cycles: 200122667 heartbeat IPC: 0.424216 cumulative IPC: 0.419447 (Simulation time: 1 hr 30 min 29 sec) 
Heartbeat CPU 4 instructions: 160000000 cycles: 200130129 heartbeat IPC: 0.725755 cumulative IPC: 0.683813 (Simulation time: 1 hr 30 min 29 sec) 
Heartbeat CPU 6 instructions: 320000000 cycles: 200586101 heartbeat IPC: 1.56667 cumulative IPC: 1.53449 (Simulation time: 1 hr 30 min 40 sec) 
Heartbeat CPU 0 instructions: 240000000 cycles: 204318381 heartbeat IPC: 1.05778 cumulative IPC: 1.06569 (Simulation time: 1 hr 32 min 10 sec) 
Heartbeat CPU 5 instructions: 210000001 cycles: 206202953 heartbeat IPC: 0.921704 cumulative IPC: 0.92073 (Simulation time: 1 hr 32 min 53 sec) 
Heartbeat CPU 6 instructions: 330000003 cycles: 207491299 heartbeat IPC: 1.44818 cumulative IPC: 1.53139 (Simulation time: 1 hr 33 min 22 sec) 
Heartbeat CPU 2 instructions: 140000000 cycles: 210857084 heartbeat IPC: 0.381886 cumulative IPC: 0.58391 (Simulation time: 1 hr 34 min 41 sec) 
Heartbeat CPU 6 instructions: 340000000 cycles: 213866093 heartbeat IPC: 1.56868 cumulative IPC: 1.53259 (Simulation time: 1 hr 35 min 54 sec) 
Heartbeat CPU 4 instructions: 170000003 cycles: 213912325 heartbeat IPC: 0.725574 cumulative IPC: 0.686704 (Simulation time: 1 hr 35 min 55 sec) 
Heartbeat CPU 0 instructions: 250000001 cycles: 214007076 heartbeat IPC: 1.03213 cumulative IPC: 1.06406 (Simulation time: 1 hr 35 min 57 sec) 
Heartbeat CPU 3 instructions: 110000001 cycles: 216874713 heartbeat IPC: 0.349027 cumulative IPC: 0.407407 (Simulation time: 1 hr 37 min 4 sec) 
Heartbeat CPU 5 instructions: 220000000 cycles: 217083706 heartbeat IPC: 0.919054 cumulative IPC: 0.92064 (Simulation time: 1 hr 37 min 9 sec) 
Heartbeat CPU 6 instructions: 350000000 cycles: 219964413 heartbeat IPC: 1.6398 cumulative IPC: 1.53578 (Simulation time: 1 hr 38 min 19 sec) 
Heartbeat CPU 0 instructions: 260000000 cycles: 223713072 heartbeat IPC: 1.03029 cumulative IPC: 1.06249 (Simulation time: 1 hr 40 min 1 sec) 
Heartbeat CPU 1 instructions: 110000000 cycles: 223820313 heartbeat IPC: 0.421983 cumulative IPC: 0.419734 (Simulation time: 1 hr 40 min 4 sec) 
Heartbeat CPU 6 instructions: 360000000 cycles: 226834059 heartbeat IPC: 1.45568 cumulative IPC: 1.53318 (Simulation time: 1 hr 41 min 21 sec) 
Heartbeat CPU 4 instructions: 180000000 cycles: 227664345 heartbeat IPC: 0.727166 cumulative IPC: 0.689318 (Simulation time: 1 hr 41 min 44 sec) 
Heartbeat CPU 5 instructions: 230000001 cycles: 227945592 heartbeat IPC: 0.920651 cumulative IPC: 0.920641 (Simulation time: 1 hr 41 min 52 sec) 
Heartbeat CPU 7 instructions: 70000000 cycles: 231402221 heartbeat IPC: 0.233271 cumulative IPC: 0.230866 (Simulation time: 1 hr 43 min 15 sec) 
Heartbeat CPU 6 instructions: 370000001 cycles: 233039487 heartbeat IPC: 1.61149 cumulative IPC: 1.53541 (Simulation time: 1 hr 43 min 53 sec) 
Heartbeat CPU 0 instructions: 270000000 cycles: 233110361 heartbeat IPC: 1.06414 cumulative IPC: 1.06256 (Simulation time: 1 hr 43 min 54 sec) 
Heartbeat CPU 2 instructions: 150000001 cycles: 235599890 heartbeat IPC: 0.404158 cumulative IPC: 0.563764 (Simulation time: 1 hr 44 min 52 sec) 
Heartbeat CPU 5 instructions: 240000000 cycles: 238845078 heartbeat IPC: 0.917474 cumulative IPC: 0.920486 (Simulation time: 1 hr 46 min 7 sec) 
Heartbeat CPU 6 instructions: 380000000 cycles: 239140923 heartbeat IPC: 1.63896 cumulative IPC: 1.53822 (Simulation time: 1 hr 46 min 14 sec) 
Heartbeat CPU 4 instructions: 190000003 cycles: 241471497 heartbeat IPC: 0.724263 cumulative IPC: 0.691447 (Simulation time: 1 hr 47 min 8 sec) 
Heartbeat CPU 0 instructions: 280000000 cycles: 243121495 heartbeat IPC: 0.998888 cumulative IPC: 1.05977 (Simulation time: 1 hr 47 min 43 sec) 
Heartbeat CPU 6 instructions: 390000002 cycles: 245239152 heartbeat IPC: 1.63982 cumulative IPC: 1.54091 (Simulation time: 1 hr 48 min 28 sec) 
Heartbeat CPU 3 instructions: 120000000 cycles: 247257937 heartbeat IPC: 0.329129 cumulative IPC: 0.397175 (Simulation time: 1 hr 49 min 11 sec) 
Heartbeat CPU 1 instructions: 120000000 cycles: 247412097 heartbeat IPC: 0.423876 cumulative IPC: 0.420155 (Simulation time: 1 hr 49 min 14 sec) 
Heartbeat CPU 5 instructions: 250000000 cycles: 249772764 heartbeat IPC: 0.915107 cumulative IPC: 0.920236 (Simulation time: 1 hr 50 min 7 sec) 
Heartbeat CPU 6 instructions: 400000000 cycles: 251637456 heartbeat IPC: 1.56291 cumulative IPC: 1.54151 (Simulation time: 1 hr 51 min 11 sec) 
Heartbeat CPU 0 instructions: 290000001 cycles: 252770439 heartbeat IPC: 1.03638 cumulative IPC: 1.05882 (Simulation time: 1 hr 52 min 2 sec) 
Finished CPU 1 instructions: 100000003 cycles: 237981161 cumulative IPC: 0.420201 (Simulation time: 1 hr 52 min 4 sec) 
Heartbeat CPU 2 instructions: 160000000 cycles: 256328201 heartbeat IPC: 0.482432 cumulative IPC: 0.556783 (Simulation time: 1 hr 54 min 54 sec) 
Heartbeat CPU 6 instructions: 410000002 cycles: 258364916 heartbeat IPC: 1.48645 cumulative IPC: 1.53999 (Simulation time: 1 hr 55 min 44 sec) 
Heartbeat CPU 4 instructions: 200000000 cycles: 260574019 heartbeat IPC: 0.523491 cumulative IPC: 0.678392 (Simulation time: 1 hr 56 min 38 sec) 
Heartbeat CPU 5 instructions: 260000000 cycles: 260625015 heartbeat IPC: 0.921468 cumulative IPC: 0.920291 (Simulation time: 1 hr 56 min 40 sec) 
Heartbeat CPU 0 instructions: 300000000 cycles: 262540491 heartbeat IPC: 1.02354 cumulative IPC: 1.05743 (Simulation time: 1 hr 57 min 27 sec) 
Heartbeat CPU 6 instructions: 420000000 cycles: 264555074 heartbeat IPC: 1.61547 cumulative IPC: 1.54186 (Simulation time: 1 hr 58 min 16 sec) 
Finished CPU 3 instructions: 100000001 cycles: 253910993 cumulative IPC: 0.393839 (Simulation time: 1 hr 59 min 57 sec) 
Heartbeat CPU 6 instructions: 430000000 cycles: 270788680 heartbeat IPC: 1.60421 cumulative IPC: 1.54338 (Simulation time: 2 hr 0 min 44 sec) 
Heartbeat CPU 1 instructions: 130000001 cycles: 271033758 heartbeat IPC: 0.42334 cumulative IPC: 0.420448 (Simulation time: 2 hr 0 min 50 sec) 
Heartbeat CPU 5 instructions: 270000003 cycles: 271531215 heartbeat IPC: 0.91691 cumulative IPC: 0.920147 (Simulation time: 2 hr 1 min 1 sec) 
Heartbeat CPU 2 instructions: 170000003 cycles: 271608988 heartbeat IPC: 0.654417 cumulative IPC: 0.562593 (Simulation time: 2 hr 1 min 3 sec) 
Heartbeat CPU 0 instructions: 310000002 cycles: 272039831 heartbeat IPC: 1.0527 cumulative IPC: 1.05725 (Simulation time: 2 hr 1 min 13 sec) 
Heartbeat CPU 4 instructions: 210000000 cycles: 274323149 heartbeat IPC: 0.727319 cumulative IPC: 0.680984 (Simulation time: 2 hr 2 min 5 sec) 
Heartbeat CPU 3 instructions: 130000002 cycles: 274963602 heartbeat IPC: 0.360937 cumulative IPC: 0.393315 (Simulation time: 2 hr 2 min 20 sec) 
Heartbeat CPU 7 instructions: 80000000 cycles: 275509642 heartbeat IPC: 0.226719 cumulative IPC: 0.230164 (Simulation time: 2 hr 2 min 32 sec) 
Heartbeat CPU 6 instructions: 440000000 cycles: 277093365 heartbeat IPC: 1.58612 cumulative IPC: 1.5444 (Simulation time: 2 hr 3 min 9 sec) 
Heartbeat CPU 0 instructions: 320000000 cycles: 281988979 heartbeat IPC: 1.00511 cumulative IPC: 1.05531 (Simulation time: 2 hr 5 min 3 sec) 
Heartbeat CPU 5 instructions: 280000000 cycles: 282482304 heartbeat IPC: 0.913151 cumulative IPC: 0.919861 (Simulation time: 2 hr 5 min 14 sec) 
Heartbeat CPU 6 instructions: 450000001 cycles: 283332879 heartbeat IPC: 1.60269 cumulative IPC: 1.54576 (Simulation time: 2 hr 5 min 32 sec) 
Heartbeat CPU 4 instructions: 220000000 cycles: 288100358 heartbeat IPC: 0.725836 cumulative IPC: 0.683245 (Simulation time: 2 hr 7 min 16 sec) 
Heartbeat CPU 6 instructions: 460000000 cycles: 289600116 heartbeat IPC: 1.5956 cumulative IPC: 1.54689 (Simulation time: 2 hr 7 min 51 sec) 
Heartbeat CPU 2 instructions: 180000000 cycles: 290734773 heartbeat IPC: 0.522854 cumulative IPC: 0.559839 (Simulation time: 2 hr 8 min 15 sec) 
Heartbeat CPU 0 instructions: 330000001 cycles: 291571712 heartbeat IPC: 1.04354 cumulative IPC: 1.0549 (Simulation time: 2 hr 8 min 32 sec) 
Heartbeat CPU 5 instructions: 290000001 cycles: 293400267 heartbeat IPC: 0.915922 cumulative IPC: 0.919706 (Simulation time: 2 hr 9 min 11 sec) 
Heartbeat CPU 1 instructions: 140000000 cycles: 294609004 heartbeat IPC: 0.424174 cumulative IPC: 0.420762 (Simulation time: 2 hr 9 min 37 sec) 
Heartbeat CPU 6 instructions: 470000003 cycles: 295745786 heartbeat IPC: 1.62716 cumulative IPC: 1.54865 (Simulation time: 2 hr 10 min 1 sec) 
Heartbeat CPU 3 instructions: 140000000 cycles: 300999641 heartbeat IPC: 0.384083 cumulative IPC: 0.392475 (Simulation time: 2 hr 11 min 55 sec) 
Heartbeat CPU 0 instructions: 340000000 cycles: 301208487 heartbeat IPC: 1.03769 cumulative IPC: 1.05432 (Simulation time: 2 hr 12 min 0 sec) 
Heartbeat CPU 4 instructions: 230000001 cycles: 301847875 heartbeat IPC: 0.727404 cumulative IPC: 0.68536 (Simulation time: 2 hr 12 min 14 sec) 
Heartbeat CPU 6 instructions: 480000000 cycles: 301942623 heartbeat IPC: 1.61373 cumulative IPC: 1.55006 (Simulation time: 2 hr 12 min 16 sec) 
Heartbeat CPU 5 instructions: 300000000 cycles: 304320130 heartbeat IPC: 0.915762 cumulative IPC: 0.919558 (Simulation time: 2 hr 13 min 7 sec) 
Heartbeat CPU 6 instructions: 490000001 cycles: 308123126 heartbeat IPC: 1.61799 cumulative IPC: 1.55149 (Simulation time: 2 hr 14 min 29 sec) 
Heartbeat CPU 0 instructions: 350000001 cycles: 310760467 heartbeat IPC: 1.0469 cumulative IPC: 1.05408 (Simulation time: 2 hr 15 min 25 sec) 
Heartbeat CPU 6 instructions: 500000000 cycles: 314312147 heartbeat IPC: 1.61576 cumulative IPC: 1.55282 (Simulation time: 2 hr 16 min 41 sec) 
Heartbeat CPU 5 instructions: 310000000 cycles: 315165142 heartbeat IPC: 0.922083 cumulative IPC: 0.919649 (Simulation time: 2 hr 16 min 59 sec) 
Heartbeat CPU 4 instructions: 240000000 cycles: 315660309 heartbeat IPC: 0.723985 cumulative IPC: 0.687134 (Simulation time: 2 hr 17 min 10 sec) 
Heartbeat CPU 2 instructions: 190000003 cycles: 317247488 heartbeat IPC: 0.377178 cumulative IPC: 0.543825 (Simulation time: 2 hr 17 min 46 sec) 
Heartbeat CPU 1 instructions: 150000003 cycles: 318038277 heartbeat IPC: 0.426817 cumulative IPC: 0.42123 (Simulation time: 2 hr 18 min 4 sec) 
Heartbeat CPU 7 instructions: 90000002 cycles: 318649217 heartbeat IPC: 0.231806 cumulative IPC: 0.230397 (Simulation time: 2 hr 18 min 18 sec) 
Heartbeat CPU 0 instructions: 360000000 cycles: 320323329 heartbeat IPC: 1.04571 cumulative IPC: 1.05382 (Simulation time: 2 hr 18 min 55 sec) 
Heartbeat CPU 6 instructions: 510000000 cycles: 320499042 heartbeat IPC: 1.61632 cumulative IPC: 1.5541 (Simulation time: 2 hr 18 min 59 sec) 
Heartbeat CPU 3 instructions: 150000000 cycles: 322575118 heartbeat IPC: 0.463489 cumulative IPC: 0.397454 (Simulation time: 2 hr 19 min 45 sec) 
Heartbeat CPU 5 instructions: 320000000 cycles: 325998936 heartbeat IPC: 0.923038 cumulative IPC: 0.919767 (Simulation time: 2 hr 21 min 2 sec) 
Heartbeat CPU 6 instructions: 520000000 cycles: 326684982 heartbeat IPC: 1.61657 cumulative IPC: 1.55534 (Simulation time: 2 hr 21 min 16 sec) 
Heartbeat CPU 4 instructions: 250000001 cycles: 329398466 heartbeat IPC: 0.7279 cumulative IPC: 0.688914 (Simulation time: 2 hr 22 min 17 sec) 
Heartbeat CPU 0 instructions: 370000000 cycles: 330212240 heartbeat IPC: 1.01123 cumulative IPC: 1.05249 (Simulation time: 2 hr 22 min 34 sec) 
Heartbeat CPU 6 instructions: 530000000 cycles: 332850080 heartbeat IPC: 1.62203 cumulative IPC: 1.55663 (Simulation time: 2 hr 23 min 33 sec) 
Heartbeat CPU 5 instructions: 330000001 cycles: 336852769 heartbeat IPC: 0.921334 cumulative IPC: 0.91982 (Simulation time: 2 hr 25 min 2 sec) 
Heartbeat CPU 6 instructions: 540000000 cycles: 339056706 heartbeat IPC: 1.61118 cumulative IPC: 1.55768 (Simulation time: 2 hr 25 min 50 sec) 
Heartbeat CPU 0 instructions: 380000000 cycles: 339446336 heartbeat IPC: 1.08294 cumulative IPC: 1.05335 (Simulation time: 2 hr 25 min 58 sec) 
Heartbeat CPU 3 instructions: 160000000 cycles: 339996139 heartbeat IPC: 0.574019 cumulative IPC: 0.406914 (Simulation time: 2 hr 26 min 10 sec) 
Heartbeat CPU 1 instructions: 160000000 cycles: 341472273 heartbeat IPC: 0.42673 cumulative IPC: 0.421625 (Simulation time: 2 hr 26 min 43 sec) 
Heartbeat CPU 2 instructions: 200000000 cycles: 342585482 heartbeat IPC: 0.394664 cumulative IPC: 0.532294 (Simulation time: 2 hr 27 min 7 sec) 
Heartbeat CPU 4 instructions: 260000000 cycles: 343196963 heartbeat IPC: 0.724717 cumulative IPC: 0.690418 (Simulation time: 2 hr 27 min 20 sec) 
Heartbeat CPU 6 instructions: 550000001 cycles: 345282270 heartbeat IPC: 1.60628 cumulative IPC: 1.55859 (Simulation time: 2 hr 28 min 6 sec) 
Heartbeat CPU 5 instructions: 340000000 cycles: 347828629 heartbeat IPC: 0.91109 cumulative IPC: 0.919532 (Simulation time: 2 hr 28 min 59 sec) 
Heartbeat CPU 6 instructions: 560000000 cycles: 351654554 heartbeat IPC: 1.5693 cumulative IPC: 1.55879 (Simulation time: 2 hr 30 min 10 sec) 
Heartbeat CPU 6 instructions: 570000003 cycles: 357984023 heartbeat IPC: 1.57991 cumulative IPC: 1.55918 (Simulation time: 2 hr 32 min 8 sec) 
Heartbeat CPU 5 instructions: 350000001 cycles: 358773201 heartbeat IPC: 0.913695 cumulative IPC: 0.919346 (Simulation time: 2 hr 32 min 24 sec) 
Heartbeat CPU 3 instructions: 170000000 cycles: 361431955 heartbeat IPC: 0.466509 cumulative IPC: 0.410599 (Simulation time: 2 hr 33 min 23 sec) 
Heartbeat CPU 0 instructions: 390000002 cycles: 362212473 heartbeat IPC: 0.439249 cumulative IPC: 1.01311 (Simulation time: 2 hr 33 min 41 sec) 
Heartbeat CPU 2 instructions: 210000002 cycles: 362233758 heartbeat IPC: 0.508951 cumulative IPC: 0.530974 (Simulation time: 2 hr 33 min 42 sec) 
Heartbeat CPU 4 instructions: 270000001 cycles: 362895208 heartbeat IPC: 0.507659 cumulative IPC: 0.680076 (Simulation time: 2 hr 33 min 58 sec) 
Heartbeat CPU 7 instructions: 100000000 cycles: 362953331 heartbeat IPC: 0.225713 cumulative IPC: 0.229801 (Simulation time: 2 hr 33 min 59 sec) 
Heartbeat CPU 6 instructions: 580000000 cycles: 364840892 heartbeat IPC: 1.45839 cumulative IPC: 1.55721 (Simulation time: 2 hr 34 min 41 sec) 
Heartbeat CPU 1 instructions: 170000002 cycles: 364993810 heartbeat IPC: 0.425142 cumulative IPC: 0.421861 (Simulation time: 2 hr 34 min 45 sec) 
Heartbeat CPU 5 instructions: 360000000 cycles: 369657297 heartbeat IPC: 0.918772 cumulative IPC: 0.919329 (Simulation time: 2 hr 36 min 31 sec) 
Heartbeat CPU 6 instructions: 590000000 cycles: 371050217 heartbeat IPC: 1.61048 cumulative IPC: 1.55814 (Simulation time: 2 hr 37 min 3 sec) 
Heartbeat CPU 0 instructions: 400000000 cycles: 373749585 heartbeat IPC: 0.866768 cumulative IPC: 1.0084 (Simulation time: 2 hr 38 min 5 sec) 
Heartbeat CPU 4 instructions: 280000000 cycles: 376602479 heartbeat IPC: 0.72954 cumulative IPC: 0.68195 (Simulation time: 2 hr 39 min 10 sec) 
Heartbeat CPU 2 instructions: 220000000 cycles: 376851938 heartbeat IPC: 0.68408 cumulative IPC: 0.537156 (Simulation time: 2 hr 39 min 16 sec) 
Heartbeat CPU 6 instructions: 600000000 cycles: 377166942 heartbeat IPC: 1.63486 cumulative IPC: 1.55943 (Simulation time: 2 hr 39 min 23 sec) 
Heartbeat CPU 5 instructions: 370000000 cycles: 380492117 heartbeat IPC: 0.92295 cumulative IPC: 0.919436 (Simulation time: 2 hr 40 min 40 sec) 
Heartbeat CPU 6 instructions: 610000002 cycles: 383200157 heartbeat IPC: 1.65749 cumulative IPC: 1.56104 (Simulation time: 2 hr 41 min 44 sec) 
Heartbeat CPU 0 instructions: 410000001 cycles: 385308118 heartbeat IPC: 0.865162 cumulative IPC: 1.00393 (Simulation time: 2 hr 42 min 35 sec) 
Heartbeat CPU 1 instructions: 180000000 cycles: 388532323 heartbeat IPC: 0.424836 cumulative IPC: 0.422048 (Simulation time: 2 hr 43 min 49 sec) 
Heartbeat CPU 6 instructions: 620000000 cycles: 389183981 heartbeat IPC: 1.67117 cumulative IPC: 1.5628 (Simulation time: 2 hr 44 min 5 sec) 
Heartbeat CPU 2 instructions: 230000002 cycles: 390151366 heartbeat IPC: 0.751912 cumulative IPC: 0.544766 (Simulation time: 2 hr 44 min 28 sec) 
Heartbeat CPU 4 instructions: 290000002 cycles: 390395861 heartbeat IPC: 0.724985 cumulative IPC: 0.68353 (Simulation time: 2 hr 44 min 34 sec) 
Heartbeat CPU 5 instructions: 380000000 cycles: 391471491 heartbeat IPC: 0.910799 cumulative IPC: 0.919184 (Simulation time: 2 hr 44 min 59 sec) 
Heartbeat CPU 3 instructions: 180000000 cycles: 392073067 heartbeat IPC: 0.326359 cumulative IPC: 0.403757 (Simulation time: 2 hr 45 min 13 sec) 
Heartbeat CPU 6 instructions: 630000001 cycles: 395579783 heartbeat IPC: 1.56353 cumulative IPC: 1.56281 (Simulation time: 2 hr 46 min 34 sec) 
Heartbeat CPU 0 instructions: 420000000 cycles: 396892320 heartbeat IPC: 0.863245 cumulative IPC: 0.999669 (Simulation time: 2 hr 47 min 4 sec) 
Heartbeat CPU 6 instructions: 640000000 cycles: 401846685 heartbeat IPC: 1.59568 cumulative IPC: 1.56334 (Simulation time: 2 hr 48 min 59 sec) 
Heartbeat CPU 5 instructions: 390000002 cycles: 402366801 heartbeat IPC: 0.917826 cumulative IPC: 0.919146 (Simulation time: 2 hr 49 min 11 sec) 
Heartbeat CPU 4 instructions: 300000000 cycles: 404139942 heartbeat IPC: 0.727586 cumulative IPC: 0.685086 (Simulation time: 2 hr 49 min 52 sec) 
Heartbeat CPU 2 instructions: 240000000 cycles: 404281782 heartbeat IPC: 0.707693 cumulative IPC: 0.550677 (Simulation time: 2 hr 49 min 55 sec) 
Heartbeat CPU 7 instructions: 110000002 cycles: 405986559 heartbeat IPC: 0.232379 cumulative IPC: 0.230085 (Simulation time: 2 hr 50 min 33 sec) 
Heartbeat CPU 0 instructions: 430000000 cycles: 408510944 heartbeat IPC: 0.860687 cumulative IPC: 0.995567 (Simulation time: 2 hr 51 min 33 sec) 
Heartbeat CPU 6 instructions: 650000000 cycles: 408738157 heartbeat IPC: 1.45107 cumulative IPC: 1.56138 (Simulation time: 2 hr 51 min 39 sec) 
Heartbeat CPU 1 instructions: 190000000 cycles: 411895391 heartbeat IPC: 0.428026 cumulative IPC: 0.4224 (Simulation time: 2 hr 52 min 52 sec) 
Heartbeat CPU 5 instructions: 400000000 cycles: 413228830 heartbeat IPC: 0.920638 cumulative IPC: 0.919187 (Simulation time: 2 hr 53 min 23 sec) 
Heartbeat CPU 6 instructions: 660000000 cycles: 414991170 heartbeat IPC: 1.59923 cumulative IPC: 1.56197 (Simulation time: 2 hr 54 min 4 sec) 
Heartbeat CPU 4 instructions: 310000003 cycles: 417940916 heartbeat IPC: 0.724587 cumulative IPC: 0.686438 (Simulation time: 2 hr 55 min 12 sec) 
Heartbeat CPU 2 instructions: 250000002 cycles: 419464104 heartbeat IPC: 0.658661 cumulative IPC: 0.554729 (Simulation time: 2 hr 55 min 47 sec) 
Heartbeat CPU 0 instructions: 440000000 cycles: 420091303 heartbeat IPC: 0.863531 cumulative IPC: 0.991794 (Simulation time: 2 hr 56 min 2 sec) 
Heartbeat CPU 6 instructions: 670000001 cycles: 421233074 heartbeat IPC: 1.60208 cumulative IPC: 1.56259 (Simulation time: 2 hr 56 min 28 sec) 
Heartbeat CPU 3 instructions: 190000000 cycles: 421251969 heartbeat IPC: 0.342713 cumulative IPC: 0.399374 (Simulation time: 2 hr 56 min 28 sec) 
Heartbeat CPU 5 instructions: 410000001 cycles: 424080178 heartbeat IPC: 0.921545 cumulative IPC: 0.919249 (Simulation time: 2 hr 57 min 35 sec) 
Heartbeat CPU 6 instructions: 680000000 cycles: 427445084 heartbeat IPC: 1.60978 cumulative IPC: 1.5633 (Simulation time: 2 hr 58 min 53 sec) 
Heartbeat CPU 4 instructions: 320000000 cycles: 431704191 heartbeat IPC: 0.726571 cumulative IPC: 0.687763 (Simulation time: 3 hr 0 min 31 sec) 
Heartbeat CPU 0 instructions: 450000002 cycles: 431715393 heartbeat IPC: 0.860283 cumulative IPC: 0.988128 (Simulation time: 3 hr 0 min 32 sec) 
Heartbeat CPU 2 instructions: 260000000 cycles: 434278169 heartbeat IPC: 0.675034 cumulative IPC: 0.558978 (Simulation time: 3 hr 1 min 32 sec) 
Heartbeat CPU 6 instructions: 690000002 cycles: 434395301 heartbeat IPC: 1.4388 cumulative IPC: 1.56124 (Simulation time: 3 hr 1 min 34 sec) 
Heartbeat CPU 5 instructions: 420000000 cycles: 434924171 heartbeat IPC: 0.922169 cumulative IPC: 0.919324 (Simulation time: 3 hr 1 min 47 sec) 
Heartbeat CPU 1 instructions: 200000000 cycles: 435282427 heartbeat IPC: 0.427587 cumulative IPC: 0.422689 (Simulation time: 3 hr 1 min 55 sec) 
Heartbeat CPU 6 instructions: 700000000 cycles: 440619448 heartbeat IPC: 1.60665 cumulative IPC: 1.5619 (Simulation time: 3 hr 4 min 1 sec) 
Heartbeat CPU 0 instructions: 460000000 cycles: 443305767 heartbeat IPC: 0.862785 cumulative IPC: 0.984737 (Simulation time: 3 hr 5 min 4 sec) 
Heartbeat CPU 3 instructions: 200000000 cycles: 444113540 heartbeat IPC: 0.437415 cumulative IPC: 0.4014 (Simulation time: 3 hr 5 min 23 sec) 
Heartbeat CPU 4 instructions: 330000003 cycles: 445467977 heartbeat IPC: 0.726544 cumulative IPC: 0.689002 (Simulation time: 3 hr 5 min 56 sec) 
Heartbeat CPU 5 instructions: 430000003 cycles: 445782484 heartbeat IPC: 0.920954 cumulative IPC: 0.919366 (Simulation time: 3 hr 6 min 3 sec) 
Heartbeat CPU 6 instructions: 710000001 cycles: 446852332 heartbeat IPC: 1.60439 cumulative IPC: 1.56251 (Simulation time: 3 hr 6 min 28 sec) 
Heartbeat CPU 7 instructions: 120000000 cycles: 448573049 heartbeat IPC: 0.234816 cumulative IPC: 0.230549 (Simulation time: 3 hr 7 min 8 sec) 
Finished CPU 7 instructions: 100000000 cycles: 433746918 cumulative IPC: 0.230549 (Simulation time: 3 hr 7 min 8 sec) 

CPU 0 Branch Prediction Accuracy: 95.0826% MPKI: 4.30597

CPU 1 Branch Prediction Accuracy: 84.392% MPKI: 16.6694

CPU 2 Branch Prediction Accuracy: 96.9077% MPKI: 4.30923

CPU 3 Branch Prediction Accuracy: 99.3019% MPKI: 1.75897

CPU 4 Branch Prediction Accuracy: 99.9695% MPKI: 0.0216557

CPU 5 Branch Prediction Accuracy: 99.9241% MPKI: 0.0742898

CPU 6 Branch Prediction Accuracy: 96.8755% MPKI: 4.20075

CPU 7 Branch Prediction Accuracy: 96.0991% MPKI: 5.8203

ChampSim completed all CPUs

Total Simulation Statistics (not including warmup)

CPU 0 cumulative IPC: 0.98324 instructions: 426477364 cycles: 433746918
L1D TOTAL     ACCESS:   71411696  HIT:   64550154  MISS:    6861542
L1D LOAD      ACCESS:   46190527  HIT:   41471066  MISS:    4719461
L1D RFO       ACCESS:   25221169  HIT:   23079088  MISS:    2142081
L1D PREFETCH  ACCESS:          0  HIT:          0  MISS:          0
L1D WRITEBACK ACCESS:          0  HIT:          0  MISS:          0
L1I TOTAL     ACCESS:  102411648  HIT:  102403341  MISS:       8307
L1I LOAD      ACCESS:  102411648  HIT:  102403341  MISS:       8307
L1I RFO       ACCESS:          0  HIT:          0  MISS:          0
L1I PREFETCH  ACCESS:          0  HIT:          0  MISS:          0
L1I WRITEBACK ACCESS:          0  HIT:          0  MISS:          0
L2C TOTAL     ACCESS:   12360686  HIT:    6098435  MISS:    6262251
L2C LOAD      ACCESS:    4727768  HIT:    2742553  MISS:    1985215
L2C RFO       ACCESS:    2142081  HIT:      69106  MISS:    2072975
L2C PREFETCH  ACCESS:    2508302  HIT:     313415  MISS:    2194887
L2C WRITEBACK ACCESS:    2982535  HIT:    2973361  MISS:       9174

L2C DA-AMPM prefetcher final stats
LLC TOTAL     ACCESS:    9034556  HIT:    8268502  MISS:     766054
LLC LOAD      ACCESS:    1918618  HIT:    1872378  MISS:      46240
LLC RFO       ACCESS:    2072948  HIT:    1863251  MISS:     209697
LLC PREFETCH  ACCESS:    2261493  HIT:    1751381  MISS:     510112
LLC WRITEBACK ACCESS:    2781497  HIT:    2781492  MISS:          5

CPU 1 cumulative IPC: 0.422859 instructions: 183413769 cycles: 433746918
L1D TOTAL     ACCESS:   61045194  HIT:   60582612  MISS:     462582
L1D LOAD      ACCESS:   39021782  HIT:   38652018  MISS:     369764
L1D RFO       ACCESS:   22023412  HIT:   21930594  MISS:      92818
L1D PREFETCH  ACCESS:          0  HIT:          0  MISS:          0
L1D WRITEBACK ACCESS:          0  HIT:          0  MISS:          0
L1I TOTAL     ACCESS:   42233339  HIT:   42196300  MISS:      37039
L1I LOAD      ACCESS:   42233339  HIT:   42196300  MISS:      37039
L1I RFO       ACCESS:          0  HIT:          0  MISS:          0
L1I PREFETCH  ACCESS:          0  HIT:          0  MISS:          0
L1I WRITEBACK ACCESS:          0  HIT:          0  MISS:          0
L2C TOTAL     ACCESS:     666599  HIT:     630002  MISS:      36597
L2C LOAD      ACCESS:     406799  HIT:     390584  MISS:      16215
L2C RFO       ACCESS:      92818  HIT:      87418  MISS:       5400
L2C PREFETCH  ACCESS:      16503  HIT:       1753  MISS:      14750
L2C WRITEBACK ACCESS:     150479  HIT:     150247  MISS:        232

L2C DA-AMPM prefetcher final stats
LLC TOTAL     ACCESS:      56811  HIT:      24792  MISS:      32019
LLC LOAD      ACCESS:      14489  HIT:       5304  MISS:       9185
LLC RFO       ACCESS:       5399  HIT:        515  MISS:       4884
LLC PREFETCH  ACCESS:      16477  HIT:       1722  MISS:      14755
LLC WRITEBACK ACCESS:      20446  HIT:      17251  MISS:       3195

CPU 2 cumulative IPC: 0.562679 instructions: 244060418 cycles: 433746918
L1D TOTAL     ACCESS:   91369623  HIT:   90630838  MISS:     738785
L1D LOAD      ACCESS:   42722148  HIT:   42049975  MISS:     672173
L1D RFO       ACCESS:   48647475  HIT:   48580863  MISS:      66612
L1D PREFETCH  ACCESS:          0  HIT:          0  MISS:          0
L1D WRITEBACK ACCESS:          0  HIT:          0  MISS:          0
L1I TOTAL     ACCESS:   66749414  HIT:   65872143  MISS:     877271
L1I LOAD      ACCESS:   66749414  HIT:   65872143  MISS:     877271
L1I RFO       ACCESS:          0  HIT:          0  MISS:          0
L1I PREFETCH  ACCESS:          0  HIT:          0  MISS:          0
L1I WRITEBACK ACCESS:          0  HIT:          0  MISS:          0
L2C TOTAL     ACCESS:    2218120  HIT:    1504049  MISS:     714071
L2C LOAD      ACCESS:    1549429  HIT:    1160200  MISS:     389229
L2C RFO       ACCESS:      66608  HIT:      39258  MISS:      27350
L2C PREFETCH  ACCESS:     397031  HIT:     105711  MISS:     291320
L2C WRITEBACK ACCESS:     205052  HIT:     198880  MISS:       6172

L2C DA-AMPM prefetcher final stats
LLC TOTAL     ACCESS:     803399  HIT:     493288  MISS:     310111
LLC LOAD      ACCESS:     384711  HIT:     221128  MISS:     163583
LLC RFO       ACCESS:      27347  HIT:      15836  MISS:      11511
LLC PREFETCH  ACCESS:     295838  HIT:     162293  MISS:     133545
LLC WRITEBACK ACCESS:      95503  HIT:      94031  MISS:       1472

CPU 3 cumulative IPC: 0.401379 instructions: 174096736 cycles: 433746918
L1D TOTAL     ACCESS:   40683697  HIT:   31936397  MISS:    8747300
L1D LOAD      ACCESS:   29628385  HIT:   21190562  MISS:    8437823
L1D RFO       ACCESS:   11055312  HIT:   10745835  MISS:     309477
L1D PREFETCH  ACCESS:          0  HIT:          0  MISS:          0
L1D WRITEBACK ACCESS:          0  HIT:          0  MISS:          0
L1I TOTAL     ACCESS:   76500802  HIT:   76104438  MISS:     396364
L1I LOAD      ACCESS:   76500802  HIT:   76104438  MISS:     396364
L1I RFO       ACCESS:          0  HIT:          0  MISS:          0
L1I PREFETCH  ACCESS:          0  HIT:          0  MISS:          0
L1I WRITEBACK ACCESS:          0  HIT:          0  MISS:          0
L2C TOTAL     ACCESS:   11140616  HIT:    6412229  MISS:    4728387
L2C LOAD      ACCESS:    8834135  HIT:    5142208  MISS:    3691927
L2C RFO       ACCESS:     309467  HIT:      59623  MISS:     249844
L2C PREFETCH  ACCESS:    1501716  HIT:     715201  MISS:     786515
L2C WRITEBACK ACCESS:     495298  HIT:     495197  MISS:        101

L2C DA-AMPM prefetcher final stats
LLC TOTAL     ACCESS:    5072340  HIT:    4771150  MISS:     301190
LLC LOAD      ACCESS:    3666510  HIT:    3624248  MISS:      42262
LLC RFO       ACCESS:     249489  HIT:      23944  MISS:     225545
LLC PREFETCH  ACCESS:     812286  HIT:     780299  MISS:      31987
LLC WRITEBACK ACCESS:     344055  HIT:     342659  MISS:       1396

CPU 4 cumulative IPC: 0.689258 instructions: 298963563 cycles: 433746918
L1D TOTAL     ACCESS:   75431719  HIT:   74431159  MISS:    1000560
L1D LOAD      ACCESS:   46565663  HIT:   45964732  MISS:     600931
L1D RFO       ACCESS:   28866056  HIT:   28466427  MISS:     399629
L1D PREFETCH  ACCESS:          0  HIT:          0  MISS:          0
L1D WRITEBACK ACCESS:          0  HIT:          0  MISS:          0
L1I TOTAL     ACCESS:  120999968  HIT:  120999791  MISS:        177
L1I LOAD      ACCESS:  120999968  HIT:  120999791  MISS:        177
L1I RFO       ACCESS:          0  HIT:          0  MISS:          0
L1I PREFETCH  ACCESS:          0  HIT:          0  MISS:          0
L1I WRITEBACK ACCESS:          0  HIT:          0  MISS:          0
L2C TOTAL     ACCESS:    1958914  HIT:     897882  MISS:    1061032
L2C LOAD      ACCESS:     601108  HIT:     495299  MISS:     105809
L2C RFO       ACCESS:     399627  HIT:         18  MISS:     399609
L2C PREFETCH  ACCESS:     558516  HIT:       3729  MISS:     554787
L2C WRITEBACK ACCESS:     399663  HIT:     398836  MISS:        827

L2C DA-AMPM prefetcher final stats
LLC TOTAL     ACCESS:    1459751  HIT:     440805  MISS:    1018946
LLC LOAD      ACCESS:      65121  HIT:       3231  MISS:      61890
LLC RFO       ACCESS:     399609  HIT:       5077  MISS:     394532
LLC PREFETCH  ACCESS:     595475  HIT:      33781  MISS:     561694
LLC WRITEBACK ACCESS:     399546  HIT:     398716  MISS:        830

CPU 5 cumulative IPC: 0.919384 instructions: 398779925 cycles: 433746918
L1D TOTAL     ACCESS:  105770517  HIT:  102472702  MISS:    3297815
L1D LOAD      ACCESS:   94699500  HIT:   91408272  MISS:    3291228
L1D RFO       ACCESS:   11071017  HIT:   11064430  MISS:       6587
L1D PREFETCH  ACCESS:          0  HIT:          0  MISS:          0
L1D WRITEBACK ACCESS:          0  HIT:          0  MISS:          0
L1I TOTAL     ACCESS:  134155949  HIT:  134155949  MISS:          0
L1I LOAD      ACCESS:  134155949  HIT:  134155949  MISS:          0
L1I RFO       ACCESS:          0  HIT:          0  MISS:          0
L1I PREFETCH  ACCESS:          0  HIT:          0  MISS:          0
L1I WRITEBACK ACCESS:          0  HIT:          0  MISS:          0
L2C TOTAL     ACCESS:    4655368  HIT:    4320495  MISS:     334873
L2C LOAD      ACCESS:    3291219  HIT:    3227668  MISS:      63551
L2C RFO       ACCESS:       6587  HIT:       6580  MISS:          7
L2C PREFETCH  ACCESS:     271950  HIT:       1282  MISS:     270668
L2C WRITEBACK ACCESS:    1085612  HIT:    1084965  MISS:        647

L2C DA-AMPM prefetcher final stats
LLC TOTAL     ACCESS:     343321  HIT:      16822  MISS:     326499
LLC LOAD      ACCESS:      63424  HIT:       9804  MISS:      53620
LLC RFO       ACCESS:          7  HIT:          3  MISS:          4
LLC PREFETCH  ACCESS:     270795  HIT:        701  MISS:     270094
LLC WRITEBACK ACCESS:       9095  HIT:       6314  MISS:       2781

CPU 6 cumulative IPC: 1.56267 instructions: 677801649 cycles: 433746918
L1D TOTAL     ACCESS:  182766409  HIT:  182766253  MISS:        156
L1D LOAD      ACCESS:   78722716  HIT:   78722636  MISS:         80
L1D RFO       ACCESS:  104043693  HIT:  104043617  MISS:         76
L1D PREFETCH  ACCESS:          0  HIT:          0  MISS:          0
L1D WRITEBACK ACCESS:          0  HIT:          0  MISS:          0
L1I TOTAL     ACCESS:  149449027  HIT:  149427681  MISS:      21346
L1I LOAD      ACCESS:  149449027  HIT:  149427681  MISS:      21346
L1I RFO       ACCESS:          0  HIT:          0  MISS:          0
L1I PREFETCH  ACCESS:          0  HIT:          0  MISS:          0
L1I WRITEBACK ACCESS:          0  HIT:          0  MISS:          0
L2C TOTAL     ACCESS:      22450  HIT:      21018  MISS:       1432
L2C LOAD      ACCESS:      21426  HIT:      20988  MISS:        438
L2C RFO       ACCESS:         76  HIT:         19  MISS:         57
L2C PREFETCH  ACCESS:        945  HIT:          8  MISS:        937
L2C WRITEBACK ACCESS:          3  HIT:          3  MISS:          0

L2C DA-AMPM prefetcher final stats
LLC TOTAL     ACCESS:       1432  HIT:          0  MISS:       1432
LLC LOAD      ACCESS:        391  HIT:          0  MISS:        391
LLC RFO       ACCESS:         57  HIT:          0  MISS:         57
LLC PREFETCH  ACCESS:        984  HIT:          0  MISS:        984
LLC WRITEBACK ACCESS:          0  HIT:          0  MISS:          0

CPU 7 cumulative IPC: 0.230549 instructions: 100000000 cycles: 433746918
L1D TOTAL     ACCESS:   44735974  HIT:   42681284  MISS:    2054690
L1D LOAD      ACCESS:   26697274  HIT:   24891927  MISS:    1805347
L1D RFO       ACCESS:   18038700  HIT:   17789357  MISS:     249343
L1D PREFETCH  ACCESS:          0  HIT:          0  MISS:          0
L1D WRITEBACK ACCESS:          0  HIT:          0  MISS:          0
L1I TOTAL     ACCESS:   35102093  HIT:   35039976  MISS:      62117
L1I LOAD      ACCESS:   35102093  HIT:   35039976  MISS:      62117
L1I RFO       ACCESS:          0  HIT:          0  MISS:          0
L1I PREFETCH  ACCESS:          0  HIT:          0  MISS:          0
L1I WRITEBACK ACCESS:          0  HIT:          0  MISS:          0
L2C TOTAL     ACCESS:    3426145  HIT:    1629882  MISS:    1796263
L2C LOAD      ACCESS:    1867400  HIT:     595447  MISS:    1271953
L2C RFO       ACCESS:     249331  HIT:      40299  MISS:     209032
L2C PREFETCH  ACCESS:     334134  HIT:      22867  MISS:     311267
L2C WRITEBACK ACCESS:     975280  HIT:     971269  MISS:       4011

L2C DA-AMPM prefetcher final stats
LLC TOTAL     ACCESS:    2555751  HIT:    1408421  MISS:    1147330
LLC LOAD      ACCESS:    1268544  HIT:     468615  MISS:     799929
LLC RFO       ACCESS:     208601  HIT:      98113  MISS:     110488
LLC PREFETCH  ACCESS:     315104  HIT:      78591  MISS:     236513
LLC WRITEBACK ACCESS:     763502  HIT:     763102  MISS:        400

Region of Interest Statistics

CPU 0 cumulative IPC: 1.08255 instructions: 100000001 cycles: 92374667
L1D TOTAL     ACCESS:   15580073  HIT:   13754309  MISS:    1825764
L1D LOAD      ACCESS:   10307006  HIT:    9034658  MISS:    1272348
L1D RFO       ACCESS:    5273067  HIT:    4719651  MISS:     553416
L1D PREFETCH  ACCESS:          0  HIT:          0  MISS:          0
L1D WRITEBACK ACCESS:          0  HIT:          0  MISS:          0
L1D PREFETCH  REQUESTED:          0  ISSUED:          0  USEFUL:          0  USELESS:          0
L1I TOTAL     ACCESS:   21166663  HIT:   21164278  MISS:       2385
L1I LOAD      ACCESS:   21166663  HIT:   21164278  MISS:       2385
L1I RFO       ACCESS:          0  HIT:          0  MISS:          0
L1I PREFETCH  ACCESS:          0  HIT:          0  MISS:          0
L1I WRITEBACK ACCESS:          0  HIT:          0  MISS:          0
L1I PREFETCH  REQUESTED:          0  ISSUED:          0  USEFUL:          0  USELESS:          0
L2C TOTAL     ACCESS:    3266884  HIT:    1592721  MISS:    1674163
L2C LOAD      ACCESS:    1274733  HIT:     728434  MISS:     546299
L2C RFO       ACCESS:     553416  HIT:      11846  MISS:     541570
L2C PREFETCH  ACCESS:     658161  HIT:      74182  MISS:     583979
L2C WRITEBACK ACCESS:     780574  HIT:     778259  MISS:       2315
L2C PREFETCH  REQUESTED:    2909230  ISSUED:    2908534  USEFUL:    2343796  USELESS:      78291
LLC TOTAL     ACCESS:    2410066  HIT:    2283017  MISS:     127049
LLC LOAD      ACCESS:     528906  HIT:     518104  MISS:      10802
LLC RFO       ACCESS:     541564  HIT:     528191  MISS:      13373
LLC PREFETCH  ACCESS:     601376  HIT:     498502  MISS:     102874
LLC WRITEBACK ACCESS:     738220  HIT:     738220  MISS:          0
LLC PREFETCH  REQUESTED:          0  ISSUED:          0  USEFUL:     302252  USELESS:    1551804
Major fault: 0 Minor fault: 10255

CPU 1 cumulative IPC: 0.420201 instructions: 100000003 cycles: 237981161
L1D TOTAL     ACCESS:   33568971  HIT:   33331962  MISS:     237009
L1D LOAD      ACCESS:   21397945  HIT:   21207569  MISS:     190376
L1D RFO       ACCESS:   12171026  HIT:   12124393  MISS:      46633
L1D PREFETCH  ACCESS:          0  HIT:          0  MISS:          0
L1D WRITEBACK ACCESS:          0  HIT:          0  MISS:          0
L1D PREFETCH  REQUESTED:          0  ISSUED:          0  USEFUL:          0  USELESS:          0
L1I TOTAL     ACCESS:   23037687  HIT:   23018171  MISS:      19516
L1I LOAD      ACCESS:   23037687  HIT:   23018171  MISS:      19516
L1I RFO       ACCESS:          0  HIT:          0  MISS:          0
L1I PREFETCH  ACCESS:          0  HIT:          0  MISS:          0
L1I WRITEBACK ACCESS:          0  HIT:          0  MISS:          0
L1I PREFETCH  REQUESTED:          0  ISSUED:          0  USEFUL:          0  USELESS:          0
L2C TOTAL     ACCESS:     351963  HIT:     320652  MISS:      31311
L2C LOAD      ACCESS:     209889  HIT:     197701  MISS:      12188
L2C RFO       ACCESS:      46633  HIT:      41760  MISS:       4873
L2C PREFETCH  ACCESS:      15299  HIT:       1161  MISS:      14138
L2C WRITEBACK ACCESS:      80142  HIT:      80030  MISS:        112
L2C PREFETCH  REQUESTED:      51292  ISSUED:      51292  USEFUL:      39565  USELESS:       5676
LLC TOTAL     ACCESS:      50771  HIT:      23222  MISS:      27549
LLC LOAD      ACCESS:      10481  HIT:       3929  MISS:       6552
LLC RFO       ACCESS:       4872  HIT:        508  MISS:       4364
LLC PREFETCH  ACCESS:      15846  HIT:       1701  MISS:      14145
LLC WRITEBACK ACCESS:      19572  HIT:      17084  MISS:       2488
LLC PREFETCH  REQUESTED:          0  ISSUED:          0  USEFUL:     302252  USELESS:    1551804
Major fault: 0 Minor fault: 1127

CPU 2 cumulative IPC: 0.611907 instructions: 100000001 cycles: 163423526
L1D TOTAL     ACCESS:   37256771  HIT:   37028112  MISS:     228659
L1D LOAD      ACCESS:   16868357  HIT:   16664505  MISS:     203852
L1D RFO       ACCESS:   20388414  HIT:   20363607  MISS:      24807
L1D PREFETCH  ACCESS:          0  HIT:          0  MISS:          0
L1D WRITEBACK ACCESS:          0  HIT:          0  MISS:          0
L1D PREFETCH  REQUESTED:          0  ISSUED:          0  USEFUL:          0  USELESS:          0
L1I TOTAL     ACCESS:   27416657  HIT:   27152735  MISS:     263922
L1I LOAD      ACCESS:   27416657  HIT:   27152735  MISS:     263922
L1I RFO       ACCESS:          0  HIT:          0  MISS:          0
L1I PREFETCH  ACCESS:          0  HIT:          0  MISS:          0
L1I WRITEBACK ACCESS:          0  HIT:          0  MISS:          0
L1I PREFETCH  REQUESTED:          0  ISSUED:          0  USEFUL:          0  USELESS:          0
L2C TOTAL     ACCESS:     673525  HIT:     458499  MISS:     215026
L2C LOAD      ACCESS:     467773  HIT:     350752  MISS:     117021
L2C RFO       ACCESS:      24805  HIT:      15512  MISS:       9293
L2C PREFETCH  ACCESS:     113569  HIT:      26678  MISS:      86891
L2C WRITEBACK ACCESS:      67378  HIT:      65557  MISS:       1821
L2C PREFETCH  REQUESTED:     418666  ISSUED:     418665  USEFUL:     103598  USELESS:     188941
LLC TOTAL     ACCESS:     243407  HIT:     140130  MISS:     103277
LLC LOAD      ACCESS:     115754  HIT:      61428  MISS:      54326
LLC RFO       ACCESS:       9293  HIT:       5282  MISS:       4011
LLC PREFETCH  ACCESS:      88158  HIT:      43871  MISS:      44287
LLC WRITEBACK ACCESS:      30202  HIT:      29549  MISS:        653
LLC PREFETCH  REQUESTED:          0  ISSUED:          0  USEFUL:     302252  USELESS:    1551804
Major fault: 0 Minor fault: 5816

CPU 3 cumulative IPC: 0.393839 instructions: 100000001 cycles: 253910993
L1D TOTAL     ACCESS:   24203454  HIT:   19169889  MISS:    5033565
L1D LOAD      ACCESS:   17288846  HIT:   12466619  MISS:    4822227
L1D RFO       ACCESS:    6914608  HIT:    6703270  MISS:     211338
L1D PREFETCH  ACCESS:          0  HIT:          0  MISS:          0
L1D WRITEBACK ACCESS:          0  HIT:          0  MISS:          0
L1D PREFETCH  REQUESTED:          0  ISSUED:          0  USEFUL:          0  USELESS:          0
L1I TOTAL     ACCESS:   43638540  HIT:   43386136  MISS:     252404
L1I LOAD      ACCESS:   43638540  HIT:   43386136  MISS:     252404
L1I RFO       ACCESS:          0  HIT:          0  MISS:          0
L1I PREFETCH  ACCESS:          0  HIT:          0  MISS:          0
L1I WRITEBACK ACCESS:          0  HIT:          0  MISS:          0
L1I PREFETCH  REQUESTED:          0  ISSUED:          0  USEFUL:          0  USELESS:          0
L2C TOTAL     ACCESS:    6464283  HIT:    3711257  MISS:    2753026
L2C LOAD      ACCESS:    5074590  HIT:    2950279  MISS:    2124311
L2C RFO       ACCESS:     211332  HIT:      36893  MISS:     174439
L2C PREFETCH  ACCESS:     854640  HIT:     400440  MISS:     454200
L2C WRITEBACK ACCESS:     323721  HIT:     323645  MISS:         76
L2C PREFETCH  REQUESTED:    1851985  ISSUED:    1851985  USEFUL:     381063  USELESS:     531287
LLC TOTAL     ACCESS:    2982701  HIT:    2782099  MISS:     200602
LLC LOAD      ACCESS:    2109354  HIT:    2086962  MISS:      22392
LLC RFO       ACCESS:     174220  HIT:      14982  MISS:     159238
LLC PREFETCH  ACCESS:     469374  HIT:     451032  MISS:      18342
LLC WRITEBACK ACCESS:     229753  HIT:     229123  MISS:        630
LLC PREFETCH  REQUESTED:          0  ISSUED:          0  USEFUL:     302252  USELESS:    1551804
Major fault: 0 Minor fault: 4263

CPU 4 cumulative IPC: 0.673301 instructions: 100000003 cycles: 148521989
L1D TOTAL     ACCESS:   25161990  HIT:   24719009  MISS:     442981
L1D LOAD      ACCESS:   15616021  HIT:   15350043  MISS:     265978
L1D RFO       ACCESS:    9545969  HIT:    9368966  MISS:     177003
L1D PREFETCH  ACCESS:          0  HIT:          0  MISS:          0
L1D WRITEBACK ACCESS:          0  HIT:          0  MISS:          0
L1D PREFETCH  REQUESTED:          0  ISSUED:          0  USEFUL:          0  USELESS:          0
L1I TOTAL     ACCESS:   40234202  HIT:   40234025  MISS:        177
L1I LOAD      ACCESS:   40234202  HIT:   40234025  MISS:        177
L1I RFO       ACCESS:          0  HIT:          0  MISS:          0
L1I PREFETCH  ACCESS:          0  HIT:          0  MISS:          0
L1I WRITEBACK ACCESS:          0  HIT:          0  MISS:          0
L1I PREFETCH  REQUESTED:          0  ISSUED:          0  USEFUL:          0  USELESS:          0
L2C TOTAL     ACCESS:     867201  HIT:     397233  MISS:     469968
L2C LOAD      ACCESS:     266155  HIT:     219040  MISS:      47115
L2C RFO       ACCESS:     177001  HIT:         15  MISS:     176986
L2C PREFETCH  ACCESS:     247032  HIT:       1583  MISS:     245449
L2C WRITEBACK ACCESS:     177013  HIT:     176595  MISS:        418
L2C PREFETCH  REQUESTED:     637255  ISSUED:     637255  USEFUL:     516090  USELESS:      61391
LLC TOTAL     ACCESS:     646555  HIT:     199808  MISS:     446747
LLC LOAD      ACCESS:      28742  HIT:       1717  MISS:      27025
LLC RFO       ACCESS:     176986  HIT:       3249  MISS:     173737
LLC PREFETCH  ACCESS:     263822  HIT:      18252  MISS:     245570
LLC WRITEBACK ACCESS:     177005  HIT:     176590  MISS:        415
LLC PREFETCH  REQUESTED:          0  ISSUED:          0  USEFUL:     302252  USELESS:    1551804
Major fault: 0 Minor fault: 9055

CPU 5 cumulative IPC: 0.919853 instructions: 100000000 cycles: 108712984
L1D TOTAL     ACCESS:   26505512  HIT:   25565404  MISS:     940108
L1D LOAD      ACCESS:   23734396  HIT:   22795978  MISS:     938418
L1D RFO       ACCESS:    2771116  HIT:    2769426  MISS:       1690
L1D PREFETCH  ACCESS:          0  HIT:          0  MISS:          0
L1D WRITEBACK ACCESS:          0  HIT:          0  MISS:          0
L1D PREFETCH  REQUESTED:          0  ISSUED:          0  USEFUL:          0  USELESS:          0
L1I TOTAL     ACCESS:   33631336  HIT:   33631336  MISS:          0
L1I LOAD      ACCESS:   33631336  HIT:   33631336  MISS:          0
L1I RFO       ACCESS:          0  HIT:          0  MISS:          0
L1I PREFETCH  ACCESS:          0  HIT:          0  MISS:          0
L1I WRITEBACK ACCESS:          0  HIT:          0  MISS:          0
L1I PREFETCH  REQUESTED:          0  ISSUED:          0  USEFUL:          0  USELESS:          0
L2C TOTAL     ACCESS:    1321733  HIT:    1240625  MISS:      81108
L2C LOAD      ACCESS:     938418  HIT:     923669  MISS:      14749
L2C RFO       ACCESS:       1690  HIT:       1689  MISS:          1
L2C PREFETCH  ACCESS:      66602  HIT:        325  MISS:      66277
L2C WRITEBACK ACCESS:     315023  HIT:     314942  MISS:         81
L2C PREFETCH  REQUESTED:     309956  ISSUED:     309956  USEFUL:     225171  USELESS:      71184
LLC TOTAL     ACCESS:      83347  HIT:       4510  MISS:      78837
LLC LOAD      ACCESS:      14732  HIT:       2526  MISS:      12206
LLC RFO       ACCESS:          1  HIT:          1  MISS:          0
LLC PREFETCH  ACCESS:      66294  HIT:        472  MISS:      65822
LLC WRITEBACK ACCESS:       2320  HIT:       1511  MISS:        809
LLC PREFETCH  REQUESTED:          0  ISSUED:          0  USEFUL:     302252  USELESS:    1551804
Major fault: 0 Minor fault: 11568

CPU 6 cumulative IPC: 1.49497 instructions: 100000000 cycles: 66890952
L1D TOTAL     ACCESS:   27028349  HIT:   27028193  MISS:        156
L1D LOAD      ACCESS:   11849571  HIT:   11849491  MISS:         80
L1D RFO       ACCESS:   15178778  HIT:   15178702  MISS:         76
L1D PREFETCH  ACCESS:          0  HIT:          0  MISS:          0
L1D WRITEBACK ACCESS:          0  HIT:          0  MISS:          0
L1D PREFETCH  REQUESTED:          0  ISSUED:          0  USEFUL:          0  USELESS:          0
L1I TOTAL     ACCESS:   22149899  HIT:   22142940  MISS:       6959
L1I LOAD      ACCESS:   22149899  HIT:   22142940  MISS:       6959
L1I RFO       ACCESS:          0  HIT:          0  MISS:          0
L1I PREFETCH  ACCESS:          0  HIT:          0  MISS:          0
L1I WRITEBACK ACCESS:          0  HIT:          0  MISS:          0
L1I PREFETCH  REQUESTED:          0  ISSUED:          0  USEFUL:          0  USELESS:          0
L2C TOTAL     ACCESS:       8063  HIT:       6631  MISS:       1432
L2C LOAD      ACCESS:       7039  HIT:       6601  MISS:        438
L2C RFO       ACCESS:         76  HIT:         19  MISS:         57
L2C PREFETCH  ACCESS:        945  HIT:          8  MISS:        937
L2C WRITEBACK ACCESS:          3  HIT:          3  MISS:          0
L2C PREFETCH  REQUESTED:       1447  ISSUED:       1447  USEFUL:        870  USELESS:          0
LLC TOTAL     ACCESS:       1432  HIT:          0  MISS:       1432
LLC LOAD      ACCESS:        391  HIT:          0  MISS:        391
LLC RFO       ACCESS:         57  HIT:          0  MISS:         57
LLC PREFETCH  ACCESS:        984  HIT:          0  MISS:        984
LLC WRITEBACK ACCESS:          0  HIT:          0  MISS:          0
LLC PREFETCH  REQUESTED:          0  ISSUED:          0  USEFUL:     302252  USELESS:    1551804
Major fault: 0 Minor fault: 50

CPU 7 cumulative IPC: 0.230549 instructions: 100000000 cycles: 433746918
L1D TOTAL     ACCESS:   44735974  HIT:   42681284  MISS:    2054690
L1D LOAD      ACCESS:   26697274  HIT:   24891927  MISS:    1805347
L1D RFO       ACCESS:   18038700  HIT:   17789357  MISS:     249343
L1D PREFETCH  ACCESS:          0  HIT:          0  MISS:          0
L1D WRITEBACK ACCESS:          0  HIT:          0  MISS:          0
L1D PREFETCH  REQUESTED:          0  ISSUED:          0  USEFUL:          0  USELESS:          0
L1I TOTAL     ACCESS:   35102093  HIT:   35039976  MISS:      62117
L1I LOAD      ACCESS:   35102093  HIT:   35039976  MISS:      62117
L1I RFO       ACCESS:          0  HIT:          0  MISS:          0
L1I PREFETCH  ACCESS:          0  HIT:          0  MISS:          0
L1I WRITEBACK ACCESS:          0  HIT:          0  MISS:          0
L1I PREFETCH  REQUESTED:          0  ISSUED:          0  USEFUL:          0  USELESS:          0
L2C TOTAL     ACCESS:    3426145  HIT:    1629882  MISS:    1796263
L2C LOAD      ACCESS:    1867400  HIT:     595447  MISS:    1271953
L2C RFO       ACCESS:     249331  HIT:      40299  MISS:     209032
L2C PREFETCH  ACCESS:     334134  HIT:      22867  MISS:     311267
L2C WRITEBACK ACCESS:     975280  HIT:     971269  MISS:       4011
L2C PREFETCH  REQUESTED:     462655  ISSUED:     462655  USEFUL:      84586  USELESS:     290843
LLC TOTAL     ACCESS:    2555751  HIT:    1408421  MISS:    1147330
LLC LOAD      ACCESS:    1268544  HIT:     468615  MISS:     799929
LLC RFO       ACCESS:     208601  HIT:      98113  MISS:     110488
LLC PREFETCH  ACCESS:     315104  HIT:      78591  MISS:     236513
LLC WRITEBACK ACCESS:     763502  HIT:     763102  MISS:        400
LLC PREFETCH  REQUESTED:          0  ISSUED:          0  USEFUL:     302252  USELESS:    1551804
Major fault: 0 Minor fault: 50067

L2C DA-AMPM prefetcher final stats

L2C DA-AMPM prefetcher final stats

L2C DA-AMPM prefetcher final stats

L2C DA-AMPM prefetcher final stats

L2C DA-AMPM prefetcher final stats

L2C DA-AMPM prefetcher final stats

L2C DA-AMPM prefetcher final stats

L2C DA-AMPM prefetcher final stats

DRAM Statistics
 CHANNEL 0
 RQ ROW_BUFFER_HIT:     625418  ROW_BUFFER_MISS:    1319941
 DBUS_CONGESTED:    2743223
 WQ ROW_BUFFER_HIT:      79256  ROW_BUFFER_MISS:     796928  FULL:          0

 CHANNEL 1
 RQ ROW_BUFFER_HIT:     625055  ROW_BUFFER_MISS:    1322853
 DBUS_CONGESTED:    2743223
 WQ ROW_BUFFER_HIT:      79466  ROW_BUFFER_MISS:     796189  FULL:          0

 AVG_CONGESTED_CYCLE: 13
