
*** ChampSim Multicore Out-of-Order Simulator ***

Warmup Instructions: 20000000
Simulation Instructions: 100000000
Number of CPUs: 8
LLC sets: 16384
LLC ways: 16
Off-chip DRAM Size: 8192 MB Channels: 2 Width: 64-bit Data Rate: 1600 MT/s

CPU 0 runs /scratch/user/djimenez/champsim-traces/speccpu2017/xz/619.lbm_s/619.lbm_s-3766B.champsimtrace.xz
CPU 1 runs /scratch/user/djimenez/champsim-traces/speccpu2017/xz/641.leela_s/641.leela_s-334B.champsimtrace.xz
CPU 2 runs /scratch/user/djimenez/champsim-traces/speccpu2017/xz/602.gcc_s/602.gcc_s-2375B.champsimtrace.xz
CPU 3 runs /scratch/user/djimenez/champsim-traces/speccpu2017/xz/621.wrf_s/621.wrf_s-6673B.champsimtrace.xz
CPU 4 runs /scratch/user/djimenez/champsim-traces/speccpu2017/xz/620.omnetpp_s/620.omnetpp_s-141B.champsimtrace.xz
CPU 5 runs /scratch/user/djimenez/champsim-traces/speccpu2017/xz/641.leela_s/641.leela_s-149B.champsimtrace.xz
CPU 6 runs /scratch/user/djimenez/champsim-traces/speccpu2017/xz/644.nab_s/644.nab_s-12459B.champsimtrace.xz
CPU 7 runs /scratch/user/djimenez/champsim-traces/speccpu2017/xz/603.bwaves_s/603.bwaves_s-2609B.champsimtrace.xz
L2C DA-AMPM prefetcher
L2C DA-AMPM prefetcher
L2C DA-AMPM prefetcher
L2C DA-AMPM prefetcher
L2C DA-AMPM prefetcher
L2C DA-AMPM prefetcher
L2C DA-AMPM prefetcher
L2C DA-AMPM prefetcher
Heartbeat CPU 0 instructions: 10000000 cycles: 4279060 heartbeat IPC: 2.33696 cumulative IPC: 2.33696 (Simulation time: 0 hr 3 min 25 sec) 
Heartbeat CPU 6 instructions: 10000000 cycles: 4636435 heartbeat IPC: 2.15683 cumulative IPC: 2.15683 (Simulation time: 0 hr 3 min 41 sec) 
Heartbeat CPU 7 instructions: 10000001 cycles: 5273897 heartbeat IPC: 1.89613 cumulative IPC: 1.89613 (Simulation time: 0 hr 4 min 10 sec) 
Heartbeat CPU 3 instructions: 10000001 cycles: 5374824 heartbeat IPC: 1.86053 cumulative IPC: 1.86053 (Simulation time: 0 hr 4 min 14 sec) 
Heartbeat CPU 5 instructions: 10000000 cycles: 6140328 heartbeat IPC: 1.62858 cumulative IPC: 1.62858 (Simulation time: 0 hr 4 min 50 sec) 
Heartbeat CPU 1 instructions: 10000001 cycles: 6392703 heartbeat IPC: 1.56428 cumulative IPC: 1.56428 (Simulation time: 0 hr 5 min 2 sec) 
Heartbeat CPU 2 instructions: 10000002 cycles: 6787038 heartbeat IPC: 1.4734 cumulative IPC: 1.4734 (Simulation time: 0 hr 5 min 20 sec) 
Heartbeat CPU 4 instructions: 10000000 cycles: 7405287 heartbeat IPC: 1.35039 cumulative IPC: 1.35039 (Simulation time: 0 hr 5 min 48 sec) 
Heartbeat CPU 0 instructions: 20000000 cycles: 8567050 heartbeat IPC: 2.33209 cumulative IPC: 2.33453 (Simulation time: 0 hr 6 min 43 sec) 
Heartbeat CPU 6 instructions: 20000000 cycles: 9299160 heartbeat IPC: 2.14467 cumulative IPC: 2.15073 (Simulation time: 0 hr 7 min 21 sec) 
Heartbeat CPU 3 instructions: 20000000 cycles: 9444907 heartbeat IPC: 2.45695 cumulative IPC: 2.11754 (Simulation time: 0 hr 7 min 28 sec) 
Heartbeat CPU 7 instructions: 20000000 cycles: 10549240 heartbeat IPC: 1.89561 cumulative IPC: 1.89587 (Simulation time: 0 hr 8 min 36 sec) 
Heartbeat CPU 1 instructions: 20000000 cycles: 12789956 heartbeat IPC: 1.56317 cumulative IPC: 1.56373 (Simulation time: 0 hr 10 min 27 sec) 
Heartbeat CPU 0 instructions: 30000001 cycles: 12845903 heartbeat IPC: 2.33708 cumulative IPC: 0.778458 (Simulation time: 0 hr 10 min 30 sec) 
Heartbeat CPU 3 instructions: 30000000 cycles: 13181169 heartbeat IPC: 2.67647 cumulative IPC: 0.758658 (Simulation time: 0 hr 10 min 47 sec) 
Heartbeat CPU 2 instructions: 20000000 cycles: 13332059 heartbeat IPC: 1.52788 cumulative IPC: 1.50014 (Simulation time: 0 hr 10 min 54 sec) 
Heartbeat CPU 5 instructions: 20000000 cycles: 13349260 heartbeat IPC: 1.38717 cumulative IPC: 1.49821 (Simulation time: 0 hr 10 min 55 sec) 
Heartbeat CPU 6 instructions: 30000001 cycles: 13993972 heartbeat IPC: 2.13001 cumulative IPC: 0.714593 (Simulation time: 0 hr 11 min 31 sec) 
Heartbeat CPU 4 instructions: 20000000 cycles: 14834169 heartbeat IPC: 1.3461 cumulative IPC: 1.34824 (Simulation time: 0 hr 12 min 9 sec) 

Warmup complete CPU 0 instructions: 34625704 cycles: 14834170 (Simulation time: 0 hr 12 min 9 sec) 
Warmup complete CPU 1 instructions: 23220901 cycles: 14834170 (Simulation time: 0 hr 12 min 9 sec) 
Warmup complete CPU 2 instructions: 22164118 cycles: 14834170 (Simulation time: 0 hr 12 min 9 sec) 
Warmup complete CPU 3 instructions: 34286357 cycles: 14834170 (Simulation time: 0 hr 12 min 9 sec) 
Warmup complete CPU 4 instructions: 20000002 cycles: 14834170 (Simulation time: 0 hr 12 min 9 sec) 
Warmup complete CPU 5 instructions: 22289283 cycles: 14834169 (Simulation time: 0 hr 12 min 9 sec) 
Warmup complete CPU 6 instructions: 31862875 cycles: 14834169 (Simulation time: 0 hr 12 min 9 sec) 
Warmup complete CPU 7 instructions: 28129071 cycles: 14834169 (Simulation time: 0 hr 12 min 9 sec) 

Heartbeat CPU 7 instructions: 30000000 cycles: 16789249 heartbeat IPC: 1.60256 cumulative IPC: 0.956958 (Simulation time: 0 hr 12 min 48 sec) 
Heartbeat CPU 0 instructions: 40000000 cycles: 21709128 heartbeat IPC: 1.12826 cumulative IPC: 0.781721 (Simulation time: 0 hr 14 min 37 sec) 
Heartbeat CPU 3 instructions: 40000000 cycles: 23838993 heartbeat IPC: 0.938278 cumulative IPC: 0.634509 (Simulation time: 0 hr 15 min 23 sec) 
Heartbeat CPU 7 instructions: 40000000 cycles: 26851521 heartbeat IPC: 0.993811 cumulative IPC: 0.987816 (Simulation time: 0 hr 16 min 29 sec) 
Heartbeat CPU 6 instructions: 40000000 cycles: 27365674 heartbeat IPC: 0.747848 cumulative IPC: 0.649333 (Simulation time: 0 hr 16 min 39 sec) 
Heartbeat CPU 1 instructions: 30000000 cycles: 30517593 heartbeat IPC: 0.564091 cumulative IPC: 0.432246 (Simulation time: 0 hr 17 min 46 sec) 
Heartbeat CPU 0 instructions: 50000003 cycles: 33856381 heartbeat IPC: 0.823232 cumulative IPC: 0.808229 (Simulation time: 0 hr 18 min 55 sec) 
Heartbeat CPU 5 instructions: 30000001 cycles: 34989811 heartbeat IPC: 0.462095 cumulative IPC: 0.382559 (Simulation time: 0 hr 19 min 20 sec) 
Heartbeat CPU 3 instructions: 50000000 cycles: 35548312 heartbeat IPC: 0.854021 cumulative IPC: 0.758595 (Simulation time: 0 hr 19 min 32 sec) 
Heartbeat CPU 7 instructions: 50000001 cycles: 36403968 heartbeat IPC: 1.04685 cumulative IPC: 1.01396 (Simulation time: 0 hr 19 min 50 sec) 
Heartbeat CPU 2 instructions: 30000001 cycles: 40656246 heartbeat IPC: 0.365976 cumulative IPC: 0.303457 (Simulation time: 0 hr 21 min 24 sec) 
Heartbeat CPU 6 instructions: 50000002 cycles: 42324444 heartbeat IPC: 0.668504 cumulative IPC: 0.659765 (Simulation time: 0 hr 22 min 2 sec) 
Heartbeat CPU 0 instructions: 60000000 cycles: 44910817 heartbeat IPC: 0.904614 cumulative IPC: 0.843654 (Simulation time: 0 hr 22 min 56 sec) 
Heartbeat CPU 7 instructions: 60000000 cycles: 45206935 heartbeat IPC: 1.13598 cumulative IPC: 1.04933 (Simulation time: 0 hr 23 min 3 sec) 
Heartbeat CPU 3 instructions: 60000000 cycles: 47350247 heartbeat IPC: 0.847319 cumulative IPC: 0.790798 (Simulation time: 0 hr 23 min 47 sec) 
Heartbeat CPU 1 instructions: 40000000 cycles: 53593948 heartbeat IPC: 0.433344 cumulative IPC: 0.4329 (Simulation time: 0 hr 25 min 55 sec) 
Heartbeat CPU 7 instructions: 70000003 cycles: 54314943 heartbeat IPC: 1.09794 cumulative IPC: 1.06054 (Simulation time: 0 hr 26 min 9 sec) 
Heartbeat CPU 0 instructions: 70000003 cycles: 56255383 heartbeat IPC: 0.88148 cumulative IPC: 0.854014 (Simulation time: 0 hr 26 min 47 sec) 
Heartbeat CPU 6 instructions: 60000000 cycles: 57721046 heartbeat IPC: 0.649494 cumulative IPC: 0.656078 (Simulation time: 0 hr 27 min 17 sec) 
Heartbeat CPU 5 instructions: 40000000 cycles: 59163501 heartbeat IPC: 0.413673 cumulative IPC: 0.399526 (Simulation time: 0 hr 27 min 45 sec) 
Heartbeat CPU 3 instructions: 70000003 cycles: 61860986 heartbeat IPC: 0.689145 cumulative IPC: 0.759432 (Simulation time: 0 hr 28 min 37 sec) 
Heartbeat CPU 7 instructions: 80000000 cycles: 63734686 heartbeat IPC: 1.0616 cumulative IPC: 1.06074 (Simulation time: 0 hr 29 min 17 sec) 
Heartbeat CPU 0 instructions: 80000000 cycles: 67780691 heartbeat IPC: 0.867656 cumulative IPC: 0.856984 (Simulation time: 0 hr 30 min 44 sec) 
Heartbeat CPU 2 instructions: 40000000 cycles: 70370438 heartbeat IPC: 0.336539 cumulative IPC: 0.321157 (Simulation time: 0 hr 31 min 41 sec) 
Heartbeat CPU 4 instructions: 30000003 cycles: 70835476 heartbeat IPC: 0.178567 cumulative IPC: 0.178567 (Simulation time: 0 hr 31 min 52 sec) 
Heartbeat CPU 7 instructions: 90000002 cycles: 72740425 heartbeat IPC: 1.1104 cumulative IPC: 1.06847 (Simulation time: 0 hr 32 min 34 sec) 
Heartbeat CPU 3 instructions: 80000000 cycles: 72894831 heartbeat IPC: 0.906302 cumulative IPC: 0.787343 (Simulation time: 0 hr 32 min 37 sec) 
Heartbeat CPU 6 instructions: 70000002 cycles: 73120925 heartbeat IPC: 0.649356 cumulative IPC: 0.654302 (Simulation time: 0 hr 32 min 42 sec) 
Heartbeat CPU 1 instructions: 50000000 cycles: 76889848 heartbeat IPC: 0.42926 cumulative IPC: 0.431533 (Simulation time: 0 hr 34 min 3 sec) 
Heartbeat CPU 0 instructions: 90000000 cycles: 79046322 heartbeat IPC: 0.887656 cumulative IPC: 0.862365 (Simulation time: 0 hr 34 min 51 sec) 
Heartbeat CPU 7 instructions: 100000000 cycles: 81716565 heartbeat IPC: 1.11406 cumulative IPC: 1.07459 (Simulation time: 0 hr 35 min 52 sec) 
Heartbeat CPU 5 instructions: 50000000 cycles: 83103394 heartbeat IPC: 0.417713 cumulative IPC: 0.405903 (Simulation time: 0 hr 36 min 23 sec) 
Heartbeat CPU 3 instructions: 90000003 cycles: 84778958 heartbeat IPC: 0.841459 cumulative IPC: 0.796538 (Simulation time: 0 hr 37 min 0 sec) 
Heartbeat CPU 6 instructions: 80000000 cycles: 88290403 heartbeat IPC: 0.659218 cumulative IPC: 0.655317 (Simulation time: 0 hr 38 min 20 sec) 
Heartbeat CPU 0 instructions: 100000000 cycles: 90212410 heartbeat IPC: 0.895569 cumulative IPC: 0.867283 (Simulation time: 0 hr 39 min 0 sec) 
Heartbeat CPU 7 instructions: 110000002 cycles: 90799197 heartbeat IPC: 1.101 cumulative IPC: 1.07775 (Simulation time: 0 hr 39 min 13 sec) 
Heartbeat CPU 2 instructions: 50000000 cycles: 95218676 heartbeat IPC: 0.402443 cumulative IPC: 0.346284 (Simulation time: 0 hr 40 min 45 sec) 
Heartbeat CPU 1 instructions: 60000000 cycles: 99927696 heartbeat IPC: 0.434068 cumulative IPC: 0.43222 (Simulation time: 0 hr 42 min 20 sec) 
Heartbeat CPU 7 instructions: 120000000 cycles: 100604078 heartbeat IPC: 1.0199 cumulative IPC: 1.07113 (Simulation time: 0 hr 42 min 33 sec) 
Heartbeat CPU 3 instructions: 100000000 cycles: 101460337 heartbeat IPC: 0.599471 cumulative IPC: 0.758589 (Simulation time: 0 hr 42 min 56 sec) 
Heartbeat CPU 0 instructions: 110000001 cycles: 102668832 heartbeat IPC: 0.802799 cumulative IPC: 0.858138 (Simulation time: 0 hr 43 min 26 sec) 
Heartbeat CPU 6 instructions: 90000000 cycles: 103600999 heartbeat IPC: 0.653142 cumulative IPC: 0.654942 (Simulation time: 0 hr 43 min 49 sec) 
Heartbeat CPU 5 instructions: 60000000 cycles: 106840629 heartbeat IPC: 0.421279 cumulative IPC: 0.40987 (Simulation time: 0 hr 45 min 3 sec) 
Finished CPU 7 instructions: 100000002 cycles: 93073244 cumulative IPC: 1.07442 (Simulation time: 0 hr 45 min 29 sec) 
Heartbeat CPU 3 instructions: 110000001 cycles: 109297056 heartbeat IPC: 1.27604 cumulative IPC: 0.801517 (Simulation time: 0 hr 46 min 1 sec) 
Heartbeat CPU 7 instructions: 130000002 cycles: 109511906 heartbeat IPC: 1.12261 cumulative IPC: 1.07598 (Simulation time: 0 hr 46 min 6 sec) 
Heartbeat CPU 0 instructions: 120000000 cycles: 114243549 heartbeat IPC: 0.863952 cumulative IPC: 0.858815 (Simulation time: 0 hr 47 min 59 sec) 
Heartbeat CPU 2 instructions: 60000000 cycles: 118157000 heartbeat IPC: 0.435952 cumulative IPC: 0.366191 (Simulation time: 0 hr 49 min 29 sec) 
Heartbeat CPU 7 instructions: 140000000 cycles: 118284844 heartbeat IPC: 1.13987 cumulative IPC: 1.08139 (Simulation time: 0 hr 49 min 36 sec) 
Heartbeat CPU 3 instructions: 120000000 cycles: 118431475 heartbeat IPC: 1.09476 cumulative IPC: 0.827373 (Simulation time: 0 hr 49 min 43 sec) 
Heartbeat CPU 6 instructions: 100000000 cycles: 118968237 heartbeat IPC: 0.650735 cumulative IPC: 0.654321 (Simulation time: 0 hr 50 min 9 sec) 
Heartbeat CPU 1 instructions: 70000000 cycles: 122753460 heartbeat IPC: 0.438101 cumulative IPC: 0.433464 (Simulation time: 0 hr 51 min 52 sec) 
Heartbeat CPU 3 instructions: 130000001 cycles: 126050020 heartbeat IPC: 1.31259 cumulative IPC: 0.860612 (Simulation time: 0 hr 54 min 2 sec) 
Heartbeat CPU 7 instructions: 150000002 cycles: 127061748 heartbeat IPC: 1.13935 cumulative IPC: 1.08593 (Simulation time: 0 hr 54 min 44 sec) 
Heartbeat CPU 4 instructions: 40000000 cycles: 127147273 heartbeat IPC: 0.177583 cumulative IPC: 0.178074 (Simulation time: 0 hr 54 min 46 sec) 
Heartbeat CPU 0 instructions: 130000000 cycles: 127726781 heartbeat IPC: 0.741662 cumulative IPC: 0.844823 (Simulation time: 0 hr 54 min 59 sec) 
Heartbeat CPU 5 instructions: 70000003 cycles: 130503690 heartbeat IPC: 0.4226 cumulative IPC: 0.412474 (Simulation time: 0 hr 55 min 59 sec) 
Finished CPU 3 instructions: 100000003 cycles: 116172176 cumulative IPC: 0.860791 (Simulation time: 0 hr 56 min 9 sec) 
Finished CPU 0 instructions: 100000000 cycles: 119303510 cumulative IPC: 0.838198 (Simulation time: 0 hr 57 min 22 sec) 
Heartbeat CPU 6 instructions: 110000001 cycles: 134670054 heartbeat IPC: 0.636869 cumulative IPC: 0.652034 (Simulation time: 0 hr 57 min 34 sec) 
Heartbeat CPU 3 instructions: 140000000 cycles: 135465821 heartbeat IPC: 1.06204 cumulative IPC: 0.876334 (Simulation time: 0 hr 57 min 53 sec) 
Heartbeat CPU 7 instructions: 160000000 cycles: 136139185 heartbeat IPC: 1.10163 cumulative IPC: 1.0871 (Simulation time: 0 hr 58 min 8 sec) 
Heartbeat CPU 0 instructions: 140000000 cycles: 142588507 heartbeat IPC: 0.672869 cumulative IPC: 0.82482 (Simulation time: 1 hr 0 min 33 sec) 
Heartbeat CPU 3 instructions: 150000001 cycles: 143622883 heartbeat IPC: 1.22593 cumulative IPC: 0.898477 (Simulation time: 1 hr 0 min 55 sec) 
Heartbeat CPU 7 instructions: 170000002 cycles: 145063717 heartbeat IPC: 1.12051 cumulative IPC: 1.08939 (Simulation time: 1 hr 1 min 24 sec) 
Heartbeat CPU 1 instructions: 80000000 cycles: 145708537 heartbeat IPC: 0.435633 cumulative IPC: 0.433844 (Simulation time: 1 hr 1 min 37 sec) 
Heartbeat CPU 6 instructions: 120000000 cycles: 150808510 heartbeat IPC: 0.619638 cumulative IPC: 0.648189 (Simulation time: 1 hr 3 min 32 sec) 
Heartbeat CPU 2 instructions: 70000000 cycles: 150872860 heartbeat IPC: 0.305662 cumulative IPC: 0.351634 (Simulation time: 1 hr 3 min 34 sec) 
Heartbeat CPU 3 instructions: 160000000 cycles: 152364579 heartbeat IPC: 1.14394 cumulative IPC: 0.914079 (Simulation time: 1 hr 4 min 8 sec) 
Heartbeat CPU 7 instructions: 180000000 cycles: 153946907 heartbeat IPC: 1.12572 cumulative IPC: 1.09171 (Simulation time: 1 hr 4 min 43 sec) 
Heartbeat CPU 5 instructions: 80000000 cycles: 154191852 heartbeat IPC: 0.422152 cumulative IPC: 0.414119 (Simulation time: 1 hr 4 min 49 sec) 
Heartbeat CPU 0 instructions: 150000001 cycles: 159347810 heartbeat IPC: 0.596684 cumulative IPC: 0.798363 (Simulation time: 1 hr 6 min 39 sec) 
Heartbeat CPU 3 instructions: 170000000 cycles: 161658342 heartbeat IPC: 1.07599 cumulative IPC: 0.924328 (Simulation time: 1 hr 7 min 29 sec) 
Heartbeat CPU 7 instructions: 190000000 cycles: 162915883 heartbeat IPC: 1.11495 cumulative IPC: 1.09312 (Simulation time: 1 hr 7 min 58 sec) 
Heartbeat CPU 6 instructions: 130000000 cycles: 166518870 heartbeat IPC: 0.636523 cumulative IPC: 0.646981 (Simulation time: 1 hr 9 min 17 sec) 
Heartbeat CPU 1 instructions: 90000000 cycles: 168795906 heartbeat IPC: 0.433137 cumulative IPC: 0.433738 (Simulation time: 1 hr 10 min 9 sec) 
Heartbeat CPU 3 instructions: 180000000 cycles: 169222364 heartbeat IPC: 1.32205 cumulative IPC: 0.943813 (Simulation time: 1 hr 10 min 18 sec) 
Finished CPU 6 instructions: 100000000 cycles: 154598000 cumulative IPC: 0.646839 (Simulation time: 1 hr 10 min 23 sec) 
Heartbeat CPU 7 instructions: 200000000 cycles: 171741164 heartbeat IPC: 1.13311 cumulative IPC: 1.09537 (Simulation time: 1 hr 11 min 15 sec) 
Heartbeat CPU 2 instructions: 80000000 cycles: 172637257 heartbeat IPC: 0.459466 cumulative IPC: 0.366507 (Simulation time: 1 hr 11 min 34 sec) 
Heartbeat CPU 5 instructions: 90000000 cycles: 177774305 heartbeat IPC: 0.424044 cumulative IPC: 0.415556 (Simulation time: 1 hr 13 min 17 sec) 
Heartbeat CPU 0 instructions: 160000000 cycles: 179090674 heartbeat IPC: 0.506512 cumulative IPC: 0.763284 (Simulation time: 1 hr 13 min 43 sec) 
Heartbeat CPU 7 instructions: 210000002 cycles: 180766039 heartbeat IPC: 1.10805 cumulative IPC: 1.09606 (Simulation time: 1 hr 14 min 17 sec) 
Heartbeat CPU 6 instructions: 140000000 cycles: 181995629 heartbeat IPC: 0.64613 cumulative IPC: 0.646902 (Simulation time: 1 hr 14 min 43 sec) 
Heartbeat CPU 3 instructions: 190000002 cycles: 182374455 heartbeat IPC: 0.760336 cumulative IPC: 0.92941 (Simulation time: 1 hr 14 min 51 sec) 
Heartbeat CPU 4 instructions: 50000001 cycles: 183100590 heartbeat IPC: 0.17872 cumulative IPC: 0.178289 (Simulation time: 1 hr 15 min 6 sec) 
Heartbeat CPU 7 instructions: 220000000 cycles: 189447496 heartbeat IPC: 1.15188 cumulative IPC: 1.09883 (Simulation time: 1 hr 17 min 20 sec) 
Heartbeat CPU 2 instructions: 90000003 cycles: 191831009 heartbeat IPC: 0.521003 cumulative IPC: 0.38326 (Simulation time: 1 hr 18 min 8 sec) 
Heartbeat CPU 1 instructions: 100000000 cycles: 192179496 heartbeat IPC: 0.42765 cumulative IPC: 0.432936 (Simulation time: 1 hr 18 min 15 sec) 
Heartbeat CPU 6 instructions: 150000000 cycles: 196988629 heartbeat IPC: 0.666978 cumulative IPC: 0.648555 (Simulation time: 1 hr 19 min 52 sec) 
Heartbeat CPU 3 instructions: 200000000 cycles: 197330453 heartbeat IPC: 0.668628 cumulative IPC: 0.908038 (Simulation time: 1 hr 19 min 59 sec) 
Heartbeat CPU 7 instructions: 230000001 cycles: 198170295 heartbeat IPC: 1.14642 cumulative IPC: 1.1011 (Simulation time: 1 hr 20 min 17 sec) 
Heartbeat CPU 5 instructions: 100000000 cycles: 201415041 heartbeat IPC: 0.422999 cumulative IPC: 0.416499 (Simulation time: 1 hr 21 min 24 sec) 
Heartbeat CPU 0 instructions: 170000002 cycles: 201456023 heartbeat IPC: 0.44712 cumulative IPC: 0.725394 (Simulation time: 1 hr 21 min 25 sec) 
Heartbeat CPU 7 instructions: 240000000 cycles: 206968242 heartbeat IPC: 1.13663 cumulative IPC: 1.10272 (Simulation time: 1 hr 23 min 16 sec) 
Heartbeat CPU 3 instructions: 210000003 cycles: 212297346 heartbeat IPC: 0.668142 cumulative IPC: 0.889855 (Simulation time: 1 hr 25 min 10 sec) 
Heartbeat CPU 6 instructions: 160000000 cycles: 212407641 heartbeat IPC: 0.64855 cumulative IPC: 0.648554 (Simulation time: 1 hr 25 min 13 sec) 
Heartbeat CPU 1 instructions: 110000002 cycles: 215621493 heartbeat IPC: 0.426585 cumulative IPC: 0.432194 (Simulation time: 1 hr 26 min 26 sec) 
Heartbeat CPU 7 instructions: 250000001 cycles: 215835528 heartbeat IPC: 1.12774 cumulative IPC: 1.10383 (Simulation time: 1 hr 26 min 32 sec) 
Heartbeat CPU 2 instructions: 100000000 cycles: 220526511 heartbeat IPC: 0.348487 cumulative IPC: 0.378409 (Simulation time: 1 hr 28 min 19 sec) 
Heartbeat CPU 7 instructions: 260000000 cycles: 224636365 heartbeat IPC: 1.13626 cumulative IPC: 1.10519 (Simulation time: 1 hr 29 min 45 sec) 
Heartbeat CPU 5 instructions: 110000000 cycles: 225174720 heartbeat IPC: 0.420881 cumulative IPC: 0.416994 (Simulation time: 1 hr 29 min 55 sec) 
Heartbeat CPU 0 instructions: 180000000 cycles: 225738332 heartbeat IPC: 0.411822 cumulative IPC: 0.689291 (Simulation time: 1 hr 30 min 7 sec) 
Heartbeat CPU 3 instructions: 220000000 cycles: 227473902 heartbeat IPC: 0.658911 cumulative IPC: 0.873372 (Simulation time: 1 hr 30 min 40 sec) 
Heartbeat CPU 6 instructions: 170000003 cycles: 227888487 heartbeat IPC: 0.64596 cumulative IPC: 0.648366 (Simulation time: 1 hr 30 min 47 sec) 
Heartbeat CPU 7 instructions: 270000003 cycles: 234250950 heartbeat IPC: 1.04009 cumulative IPC: 1.10234 (Simulation time: 1 hr 32 min 49 sec) 
Heartbeat CPU 4 instructions: 60000000 cycles: 237226154 heartbeat IPC: 0.184756 cumulative IPC: 0.179863 (Simulation time: 1 hr 33 min 50 sec) 
Heartbeat CPU 1 instructions: 120000000 cycles: 238987000 heartbeat IPC: 0.427981 cumulative IPC: 0.431755 (Simulation time: 1 hr 34 min 25 sec) 
Heartbeat CPU 3 instructions: 230000003 cycles: 239603682 heartbeat IPC: 0.824418 cumulative IPC: 0.87073 (Simulation time: 1 hr 34 min 38 sec) 
Heartbeat CPU 6 instructions: 180000000 cycles: 243262017 heartbeat IPC: 0.650469 cumulative IPC: 0.648507 (Simulation time: 1 hr 35 min 51 sec) 
Heartbeat CPU 7 instructions: 280000000 cycles: 244033903 heartbeat IPC: 1.02219 cumulative IPC: 1.09891 (Simulation time: 1 hr 36 min 5 sec) 
Finished CPU 1 instructions: 100000002 cycles: 231664447 cumulative IPC: 0.431659 (Simulation time: 1 hr 36 min 53 sec) 
Heartbeat CPU 5 instructions: 120000000 cycles: 248826956 heartbeat IPC: 0.422793 cumulative IPC: 0.41758 (Simulation time: 1 hr 37 min 34 sec) 
Heartbeat CPU 2 instructions: 110000000 cycles: 249196025 heartbeat IPC: 0.348803 cumulative IPC: 0.374787 (Simulation time: 1 hr 37 min 41 sec) 
Heartbeat CPU 3 instructions: 240000000 cycles: 253514379 heartbeat IPC: 0.718871 cumulative IPC: 0.86188 (Simulation time: 1 hr 39 min 16 sec) 
Heartbeat CPU 7 instructions: 290000003 cycles: 254252643 heartbeat IPC: 0.978595 cumulative IPC: 1.09378 (Simulation time: 1 hr 39 min 35 sec) 
Finished CPU 5 instructions: 100000000 cycles: 239425778 cumulative IPC: 0.417666 (Simulation time: 1 hr 39 min 35 sec) 
Heartbeat CPU 0 instructions: 190000000 cycles: 254561151 heartbeat IPC: 0.346947 cumulative IPC: 0.64813 (Simulation time: 1 hr 39 min 43 sec) 
Heartbeat CPU 6 instructions: 190000000 cycles: 259019829 heartbeat IPC: 0.634606 cumulative IPC: 0.64761 (Simulation time: 1 hr 41 min 38 sec) 
Heartbeat CPU 3 instructions: 250000003 cycles: 261910186 heartbeat IPC: 1.19107 cumulative IPC: 0.873066 (Simulation time: 1 hr 42 min 47 sec) 
Heartbeat CPU 1 instructions: 130000000 cycles: 262195995 heartbeat IPC: 0.430867 cumulative IPC: 0.431672 (Simulation time: 1 hr 42 min 53 sec) 
Heartbeat CPU 7 instructions: 300000000 cycles: 263116922 heartbeat IPC: 1.12812 cumulative IPC: 1.09501 (Simulation time: 1 hr 43 min 14 sec) 
Heartbeat CPU 3 instructions: 260000000 cycles: 270596120 heartbeat IPC: 1.15129 cumulative IPC: 0.882515 (Simulation time: 1 hr 45 min 52 sec) 
Heartbeat CPU 7 instructions: 310000001 cycles: 272023354 heartbeat IPC: 1.12278 cumulative IPC: 1.09597 (Simulation time: 1 hr 46 min 24 sec) 
Heartbeat CPU 5 instructions: 130000001 cycles: 272501602 heartbeat IPC: 0.422393 cumulative IPC: 0.418022 (Simulation time: 1 hr 46 min 35 sec) 
Heartbeat CPU 6 instructions: 200000000 cycles: 274232908 heartbeat IPC: 0.657329 cumulative IPC: 0.64818 (Simulation time: 1 hr 47 min 11 sec) 
Heartbeat CPU 0 instructions: 200000000 cycles: 278342188 heartbeat IPC: 0.420503 cumulative IPC: 0.627587 (Simulation time: 1 hr 48 min 38 sec) 
Heartbeat CPU 3 instructions: 270000000 cycles: 279336504 heartbeat IPC: 1.14411 cumulative IPC: 0.891159 (Simulation time: 1 hr 49 min 0 sec) 
Heartbeat CPU 7 instructions: 320000000 cycles: 280897078 heartbeat IPC: 1.12692 cumulative IPC: 1.097 (Simulation time: 1 hr 49 min 33 sec) 
Heartbeat CPU 2 instructions: 120000000 cycles: 284582557 heartbeat IPC: 0.282593 cumulative IPC: 0.362693 (Simulation time: 1 hr 50 min 49 sec) 
Heartbeat CPU 1 instructions: 140000000 cycles: 285126063 heartbeat IPC: 0.436109 cumulative IPC: 0.432048 (Simulation time: 1 hr 51 min 0 sec) 
Heartbeat CPU 3 instructions: 280000000 cycles: 287212011 heartbeat IPC: 1.26976 cumulative IPC: 0.902106 (Simulation time: 1 hr 51 min 42 sec) 
Heartbeat CPU 6 instructions: 210000000 cycles: 289376173 heartbeat IPC: 0.66036 cumulative IPC: 0.648852 (Simulation time: 1 hr 52 min 27 sec) 
Heartbeat CPU 7 instructions: 330000002 cycles: 289758866 heartbeat IPC: 1.12844 cumulative IPC: 1.09801 (Simulation time: 1 hr 52 min 35 sec) 
Finished CPU 2 instructions: 100000000 cycles: 277779522 cumulative IPC: 0.359998 (Simulation time: 1 hr 53 min 33 sec) 
Heartbeat CPU 4 instructions: 70000000 cycles: 293553096 heartbeat IPC: 0.177535 cumulative IPC: 0.179392 (Simulation time: 1 hr 53 min 52 sec) 
Heartbeat CPU 3 instructions: 290000003 cycles: 295753016 heartbeat IPC: 1.17082 cumulative IPC: 0.910276 (Simulation time: 1 hr 54 min 38 sec) 
Heartbeat CPU 5 instructions: 140000000 cycles: 296129437 heartbeat IPC: 0.42323 cumulative IPC: 0.41846 (Simulation time: 1 hr 54 min 46 sec) 
Heartbeat CPU 7 instructions: 340000000 cycles: 298639923 heartbeat IPC: 1.12599 cumulative IPC: 1.09889 (Simulation time: 1 hr 55 min 37 sec) 
Heartbeat CPU 0 instructions: 210000002 cycles: 300763119 heartbeat IPC: 0.446012 cumulative IPC: 0.613349 (Simulation time: 1 hr 56 min 21 sec) 
Heartbeat CPU 6 instructions: 220000000 cycles: 304822095 heartbeat IPC: 0.64742 cumulative IPC: 0.648776 (Simulation time: 1 hr 57 min 41 sec) 
Heartbeat CPU 3 instructions: 300000000 cycles: 304932676 heartbeat IPC: 1.08936 cumulative IPC: 0.915943 (Simulation time: 1 hr 57 min 43 sec) 
Heartbeat CPU 7 instructions: 350000000 cycles: 307590205 heartbeat IPC: 1.11728 cumulative IPC: 1.09945 (Simulation time: 1 hr 58 min 38 sec) 
Heartbeat CPU 1 instructions: 150000000 cycles: 307815539 heartbeat IPC: 0.440733 cumulative IPC: 0.432721 (Simulation time: 1 hr 58 min 42 sec) 
Heartbeat CPU 3 instructions: 310000001 cycles: 314804319 heartbeat IPC: 1.013 cumulative IPC: 0.919137 (Simulation time: 2 hr 1 min 4 sec) 
Heartbeat CPU 2 instructions: 130000003 cycles: 316713592 heartbeat IPC: 0.311226 cumulative IPC: 0.357215 (Simulation time: 2 hr 1 min 41 sec) 
Heartbeat CPU 7 instructions: 360000000 cycles: 316956871 heartbeat IPC: 1.06762 cumulative IPC: 1.09846 (Simulation time: 2 hr 1 min 46 sec) 
Heartbeat CPU 5 instructions: 150000003 cycles: 319645785 heartbeat IPC: 0.425236 cumulative IPC: 0.418982 (Simulation time: 2 hr 2 min 38 sec) 
Heartbeat CPU 6 instructions: 230000003 cycles: 319936093 heartbeat IPC: 0.661638 cumulative IPC: 0.649413 (Simulation time: 2 hr 2 min 44 sec) 
Heartbeat CPU 0 instructions: 220000000 cycles: 321689648 heartbeat IPC: 0.477862 cumulative IPC: 0.604109 (Simulation time: 2 hr 3 min 20 sec) 
Heartbeat CPU 7 instructions: 370000000 cycles: 325647564 heartbeat IPC: 1.15066 cumulative IPC: 1.09992 (Simulation time: 2 hr 4 min 38 sec) 
Heartbeat CPU 3 instructions: 320000000 cycles: 328951290 heartbeat IPC: 0.706865 cumulative IPC: 0.909577 (Simulation time: 2 hr 5 min 44 sec) 
Heartbeat CPU 1 instructions: 160000000 cycles: 330581000 heartbeat IPC: 0.439262 cumulative IPC: 0.433192 (Simulation time: 2 hr 6 min 16 sec) 
Heartbeat CPU 7 instructions: 380000000 cycles: 334775541 heartbeat IPC: 1.09553 cumulative IPC: 1.0998 (Simulation time: 2 hr 7 min 38 sec) 
Heartbeat CPU 6 instructions: 240000000 cycles: 335216417 heartbeat IPC: 0.654436 cumulative IPC: 0.649652 (Simulation time: 2 hr 7 min 46 sec) 
Heartbeat CPU 3 instructions: 330000000 cycles: 338667803 heartbeat IPC: 1.02918 cumulative IPC: 0.913165 (Simulation time: 2 hr 8 min 55 sec) 
Heartbeat CPU 0 instructions: 230000003 cycles: 342701063 heartbeat IPC: 0.475932 cumulative IPC: 0.595895 (Simulation time: 2 hr 10 min 13 sec) 
Heartbeat CPU 5 instructions: 160000000 cycles: 343144403 heartbeat IPC: 0.425557 cumulative IPC: 0.419453 (Simulation time: 2 hr 10 min 22 sec) 
Heartbeat CPU 7 instructions: 390000003 cycles: 344052651 heartbeat IPC: 1.07792 cumulative IPC: 1.09918 (Simulation time: 2 hr 10 min 40 sec) 
Heartbeat CPU 3 instructions: 340000000 cycles: 348471030 heartbeat IPC: 1.02007 cumulative IPC: 0.916307 (Simulation time: 2 hr 12 min 8 sec) 
Heartbeat CPU 4 instructions: 80000000 cycles: 349898559 heartbeat IPC: 0.177477 cumulative IPC: 0.17907 (Simulation time: 2 hr 12 min 37 sec) 
Heartbeat CPU 2 instructions: 140000000 cycles: 350175681 heartbeat IPC: 0.298846 cumulative IPC: 0.351391 (Simulation time: 2 hr 12 min 42 sec) 
Heartbeat CPU 6 instructions: 250000001 cycles: 350430248 heartbeat IPC: 0.657297 cumulative IPC: 0.649999 (Simulation time: 2 hr 12 min 47 sec) 
Heartbeat CPU 7 instructions: 400000000 cycles: 353298787 heartbeat IPC: 1.08153 cumulative IPC: 1.0987 (Simulation time: 2 hr 13 min 40 sec) 
Heartbeat CPU 1 instructions: 170000003 cycles: 353420256 heartbeat IPC: 0.437843 cumulative IPC: 0.433506 (Simulation time: 2 hr 13 min 43 sec) 
Heartbeat CPU 3 instructions: 350000000 cycles: 363537277 heartbeat IPC: 0.663735 cumulative IPC: 0.905394 (Simulation time: 2 hr 16 min 49 sec) 
Heartbeat CPU 7 instructions: 410000000 cycles: 364106750 heartbeat IPC: 0.925244 cumulative IPC: 1.09333 (Simulation time: 2 hr 17 min 0 sec) 
Heartbeat CPU 0 instructions: 240000000 cycles: 364619052 heartbeat IPC: 0.456246 cumulative IPC: 0.587145 (Simulation time: 2 hr 17 min 11 sec) 
Heartbeat CPU 6 instructions: 260000000 cycles: 366158770 heartbeat IPC: 0.635788 cumulative IPC: 0.649363 (Simulation time: 2 hr 17 min 40 sec) 
Heartbeat CPU 5 instructions: 170000002 cycles: 366721220 heartbeat IPC: 0.424146 cumulative IPC: 0.419767 (Simulation time: 2 hr 17 min 50 sec) 
Heartbeat CPU 7 instructions: 420000000 cycles: 373816698 heartbeat IPC: 1.02987 cumulative IPC: 1.09162 (Simulation time: 2 hr 20 min 8 sec) 
Heartbeat CPU 3 instructions: 360000000 cycles: 375505423 heartbeat IPC: 0.835551 cumulative IPC: 0.903076 (Simulation time: 2 hr 20 min 42 sec) 
Heartbeat CPU 1 instructions: 180000000 cycles: 376189816 heartbeat IPC: 0.439183 cumulative IPC: 0.433864 (Simulation time: 2 hr 20 min 56 sec) 
Heartbeat CPU 2 instructions: 150000000 cycles: 378847830 heartbeat IPC: 0.34877 cumulative IPC: 0.351184 (Simulation time: 2 hr 21 min 48 sec) 
Heartbeat CPU 6 instructions: 270000002 cycles: 381398433 heartbeat IPC: 0.656183 cumulative IPC: 0.649646 (Simulation time: 2 hr 22 min 41 sec) 
Heartbeat CPU 7 instructions: 430000000 cycles: 382992168 heartbeat IPC: 1.08986 cumulative IPC: 1.09157 (Simulation time: 2 hr 23 min 12 sec) 
Heartbeat CPU 0 instructions: 250000001 cycles: 385455803 heartbeat IPC: 0.479921 cumulative IPC: 0.581116 (Simulation time: 2 hr 23 min 58 sec) 
Heartbeat CPU 3 instructions: 370000001 cycles: 387762807 heartbeat IPC: 0.815835 cumulative IPC: 0.900209 (Simulation time: 2 hr 24 min 43 sec) 
Heartbeat CPU 5 instructions: 180000000 cycles: 390330049 heartbeat IPC: 0.42357 cumulative IPC: 0.420007 (Simulation time: 2 hr 25 min 35 sec) 
Heartbeat CPU 7 instructions: 440000000 cycles: 392226588 heartbeat IPC: 1.08291 cumulative IPC: 1.09136 (Simulation time: 2 hr 26 min 14 sec) 
Heartbeat CPU 6 instructions: 280000000 cycles: 396911816 heartbeat IPC: 0.644605 cumulative IPC: 0.649442 (Simulation time: 2 hr 27 min 45 sec) 
Heartbeat CPU 1 instructions: 190000002 cycles: 398992057 heartbeat IPC: 0.438553 cumulative IPC: 0.434142 (Simulation time: 2 hr 28 min 25 sec) 
Heartbeat CPU 7 instructions: 450000002 cycles: 401950915 heartbeat IPC: 1.02835 cumulative IPC: 1.08978 (Simulation time: 2 hr 29 min 21 sec) 
Heartbeat CPU 3 instructions: 380000000 cycles: 402734703 heartbeat IPC: 0.667918 cumulative IPC: 0.891243 (Simulation time: 2 hr 29 min 37 sec) 
Heartbeat CPU 2 instructions: 160000000 cycles: 406270872 heartbeat IPC: 0.364657 cumulative IPC: 0.352128 (Simulation time: 2 hr 30 min 43 sec) 
Heartbeat CPU 0 instructions: 260000000 cycles: 406366748 heartbeat IPC: 0.478218 cumulative IPC: 0.575621 (Simulation time: 2 hr 30 min 44 sec) 
Heartbeat CPU 4 instructions: 90000002 cycles: 408110909 heartbeat IPC: 0.171785 cumulative IPC: 0.177992 (Simulation time: 2 hr 31 min 17 sec) 
Heartbeat CPU 7 instructions: 460000000 cycles: 411466495 heartbeat IPC: 1.05091 cumulative IPC: 1.08884 (Simulation time: 2 hr 32 min 23 sec) 
Heartbeat CPU 6 instructions: 290000001 cycles: 412606133 heartbeat IPC: 0.637173 cumulative IPC: 0.648958 (Simulation time: 2 hr 32 min 44 sec) 
Heartbeat CPU 5 instructions: 190000000 cycles: 413762589 heartbeat IPC: 0.426757 cumulative IPC: 0.420403 (Simulation time: 2 hr 33 min 7 sec) 
Heartbeat CPU 3 instructions: 390000000 cycles: 414281356 heartbeat IPC: 0.866052 cumulative IPC: 0.890515 (Simulation time: 2 hr 33 min 17 sec) 
Heartbeat CPU 7 instructions: 470000000 cycles: 420681775 heartbeat IPC: 1.08515 cumulative IPC: 1.08876 (Simulation time: 2 hr 35 min 21 sec) 
Heartbeat CPU 1 instructions: 200000000 cycles: 422881330 heartbeat IPC: 0.418598 cumulative IPC: 0.433232 (Simulation time: 2 hr 36 min 2 sec) 
Heartbeat CPU 0 instructions: 270000000 cycles: 426418081 heartbeat IPC: 0.49872 cumulative IPC: 0.571874 (Simulation time: 2 hr 37 min 7 sec) 
Heartbeat CPU 3 instructions: 400000000 cycles: 426880200 heartbeat IPC: 0.793724 cumulative IPC: 0.887555 (Simulation time: 2 hr 37 min 16 sec) 
Heartbeat CPU 6 instructions: 300000000 cycles: 428171631 heartbeat IPC: 0.642446 cumulative IPC: 0.648712 (Simulation time: 2 hr 37 min 40 sec) 
Heartbeat CPU 7 instructions: 480000000 cycles: 430451995 heartbeat IPC: 1.02352 cumulative IPC: 1.08723 (Simulation time: 2 hr 38 min 23 sec) 
Heartbeat CPU 5 instructions: 200000000 cycles: 437234258 heartbeat IPC: 0.426046 cumulative IPC: 0.420717 (Simulation time: 2 hr 40 min 23 sec) 
Heartbeat CPU 2 instructions: 170000000 cycles: 437819013 heartbeat IPC: 0.316976 cumulative IPC: 0.349506 (Simulation time: 2 hr 40 min 35 sec) 
Heartbeat CPU 7 instructions: 490000001 cycles: 440364912 heartbeat IPC: 1.00878 cumulative IPC: 1.0854 (Simulation time: 2 hr 41 min 24 sec) 
Heartbeat CPU 3 instructions: 410000001 cycles: 441068994 heartbeat IPC: 0.704782 cumulative IPC: 0.881471 (Simulation time: 2 hr 41 min 37 sec) 
Heartbeat CPU 6 instructions: 310000002 cycles: 444359152 heartbeat IPC: 0.61776 cumulative IPC: 0.647546 (Simulation time: 2 hr 42 min 40 sec) 
Heartbeat CPU 0 instructions: 280000000 cycles: 447052310 heartbeat IPC: 0.484632 cumulative IPC: 0.567709 (Simulation time: 2 hr 43 min 31 sec) 
Heartbeat CPU 1 instructions: 210000000 cycles: 447664115 heartbeat IPC: 0.403506 cumulative IPC: 0.43153 (Simulation time: 2 hr 43 min 44 sec) 
Heartbeat CPU 7 instructions: 500000000 cycles: 449564311 heartbeat IPC: 1.08703 cumulative IPC: 1.08543 (Simulation time: 2 hr 44 min 22 sec) 
Heartbeat CPU 3 instructions: 420000000 cycles: 453369629 heartbeat IPC: 0.812966 cumulative IPC: 0.87955 (Simulation time: 2 hr 45 min 34 sec) 
Heartbeat CPU 7 instructions: 510000001 cycles: 458864190 heartbeat IPC: 1.07528 cumulative IPC: 1.08522 (Simulation time: 2 hr 47 min 17 sec) 
Heartbeat CPU 6 instructions: 320000000 cycles: 460104111 heartbeat IPC: 0.635124 cumulative IPC: 0.647107 (Simulation time: 2 hr 47 min 41 sec) 
Heartbeat CPU 5 instructions: 210000001 cycles: 460652929 heartbeat IPC: 0.42701 cumulative IPC: 0.421047 (Simulation time: 2 hr 47 min 51 sec) 
Heartbeat CPU 2 instructions: 180000000 cycles: 464205081 heartbeat IPC: 0.378988 cumulative IPC: 0.351237 (Simulation time: 2 hr 48 min 58 sec) 
Heartbeat CPU 4 instructions: 100000000 cycles: 465021419 heartbeat IPC: 0.175714 cumulative IPC: 0.177704 (Simulation time: 2 hr 49 min 13 sec) 
Heartbeat CPU 0 instructions: 290000002 cycles: 467192938 heartbeat IPC: 0.496509 cumulative IPC: 0.564539 (Simulation time: 2 hr 49 min 50 sec) 
Heartbeat CPU 3 instructions: 430000000 cycles: 467354794 heartbeat IPC: 0.715043 cumulative IPC: 0.874465 (Simulation time: 2 hr 49 min 53 sec) 
Heartbeat CPU 7 instructions: 520000000 cycles: 468467590 heartbeat IPC: 1.0413 cumulative IPC: 1.08429 (Simulation time: 2 hr 50 min 13 sec) 
Heartbeat CPU 1 instructions: 220000000 cycles: 470735112 heartbeat IPC: 0.433445 cumulative IPC: 0.431627 (Simulation time: 2 hr 50 min 53 sec) 
Heartbeat CPU 6 instructions: 330000003 cycles: 475818090 heartbeat IPC: 0.636376 cumulative IPC: 0.646741 (Simulation time: 2 hr 52 min 29 sec) 
Heartbeat CPU 7 instructions: 530000002 cycles: 478183122 heartbeat IPC: 1.02928 cumulative IPC: 1.08314 (Simulation time: 2 hr 53 min 14 sec) 
Heartbeat CPU 3 instructions: 440000000 cycles: 479821043 heartbeat IPC: 0.802166 cumulative IPC: 0.872527 (Simulation time: 2 hr 53 min 45 sec) 
Heartbeat CPU 5 instructions: 220000000 cycles: 484124632 heartbeat IPC: 0.426045 cumulative IPC: 0.421297 (Simulation time: 2 hr 55 min 7 sec) 
Heartbeat CPU 7 instructions: 540000000 cycles: 487458849 heartbeat IPC: 1.07808 cumulative IPC: 1.08304 (Simulation time: 2 hr 56 min 10 sec) 
Heartbeat CPU 0 instructions: 300000000 cycles: 488038491 heartbeat IPC: 0.479719 cumulative IPC: 0.560803 (Simulation time: 2 hr 56 min 21 sec) 
Heartbeat CPU 6 instructions: 340000000 cycles: 491459880 heartbeat IPC: 0.639313 cumulative IPC: 0.646497 (Simulation time: 2 hr 57 min 26 sec) 
Heartbeat CPU 3 instructions: 450000000 cycles: 492214185 heartbeat IPC: 0.806898 cumulative IPC: 0.870823 (Simulation time: 2 hr 57 min 40 sec) 
Heartbeat CPU 1 instructions: 230000001 cycles: 494110749 heartbeat IPC: 0.427796 cumulative IPC: 0.43144 (Simulation time: 2 hr 58 min 15 sec) 
Heartbeat CPU 7 instructions: 550000000 cycles: 496611021 heartbeat IPC: 1.09264 cumulative IPC: 1.08322 (Simulation time: 2 hr 59 min 3 sec) 
Heartbeat CPU 2 instructions: 190000001 cycles: 497274416 heartbeat IPC: 0.302395 cumulative IPC: 0.347889 (Simulation time: 2 hr 59 min 15 sec) 
Heartbeat CPU 7 instructions: 560000000 cycles: 506400312 heartbeat IPC: 1.02152 cumulative IPC: 1.08199 (Simulation time: 3 hr 2 min 1 sec) 
Heartbeat CPU 6 instructions: 350000003 cycles: 506983851 heartbeat IPC: 0.644165 cumulative IPC: 0.646424 (Simulation time: 3 hr 2 min 11 sec) 
Heartbeat CPU 5 instructions: 230000000 cycles: 507557420 heartbeat IPC: 0.426752 cumulative IPC: 0.421557 (Simulation time: 3 hr 2 min 21 sec) 
Heartbeat CPU 3 instructions: 460000000 cycles: 507620583 heartbeat IPC: 0.649081 cumulative IPC: 0.863891 (Simulation time: 3 hr 2 min 23 sec) 
Heartbeat CPU 0 instructions: 310000002 cycles: 509770488 heartbeat IPC: 0.460151 cumulative IPC: 0.556383 (Simulation time: 3 hr 3 min 1 sec) 
Heartbeat CPU 7 instructions: 570000003 cycles: 516415213 heartbeat IPC: 0.998512 cumulative IPC: 1.08033 (Simulation time: 3 hr 4 min 58 sec) 
Heartbeat CPU 1 instructions: 240000000 cycles: 517647259 heartbeat IPC: 0.424872 cumulative IPC: 0.431133 (Simulation time: 3 hr 5 min 20 sec) 
Heartbeat CPU 6 instructions: 360000000 cycles: 522675742 heartbeat IPC: 0.637272 cumulative IPC: 0.646141 (Simulation time: 3 hr 6 min 48 sec) 
Heartbeat CPU 4 instructions: 110000002 cycles: 523557850 heartbeat IPC: 0.170834 cumulative IPC: 0.176913 (Simulation time: 3 hr 7 min 4 sec) 
Heartbeat CPU 3 instructions: 470000001 cycles: 524684443 heartbeat IPC: 0.586034 cumulative IPC: 0.854591 (Simulation time: 3 hr 7 min 26 sec) 
Heartbeat CPU 7 instructions: 580000000 cycles: 526228005 heartbeat IPC: 1.01908 cumulative IPC: 1.07915 (Simulation time: 3 hr 7 min 57 sec) 
Heartbeat CPU 2 instructions: 200000000 cycles: 529777956 heartbeat IPC: 0.307659 cumulative IPC: 0.34535 (Simulation time: 3 hr 9 min 8 sec) 
Heartbeat CPU 5 instructions: 240000000 cycles: 530856421 heartbeat IPC: 0.429203 cumulative IPC: 0.421902 (Simulation time: 3 hr 9 min 30 sec) 
Heartbeat CPU 0 instructions: 320000000 cycles: 532267801 heartbeat IPC: 0.444497 cumulative IPC: 0.551519 (Simulation time: 3 hr 9 min 58 sec) 
Heartbeat CPU 3 instructions: 480000000 cycles: 533460331 heartbeat IPC: 1.13949 cumulative IPC: 0.859412 (Simulation time: 3 hr 10 min 22 sec) 
Heartbeat CPU 7 instructions: 590000003 cycles: 535204893 heartbeat IPC: 1.11397 cumulative IPC: 1.07975 (Simulation time: 3 hr 10 min 56 sec) 
Heartbeat CPU 6 instructions: 370000001 cycles: 538328204 heartbeat IPC: 0.638877 cumulative IPC: 0.645924 (Simulation time: 3 hr 11 min 58 sec) 
Heartbeat CPU 1 instructions: 250000000 cycles: 541016087 heartbeat IPC: 0.42792 cumulative IPC: 0.43099 (Simulation time: 3 hr 12 min 52 sec) 
Heartbeat CPU 3 instructions: 490000003 cycles: 542973570 heartbeat IPC: 1.05117 cumulative IPC: 0.862866 (Simulation time: 3 hr 13 min 31 sec) 
Heartbeat CPU 7 instructions: 600000000 cycles: 544090023 heartbeat IPC: 1.12548 cumulative IPC: 1.08052 (Simulation time: 3 hr 13 min 53 sec) 
Heartbeat CPU 3 instructions: 500000000 cycles: 552553595 heartbeat IPC: 1.04384 cumulative IPC: 0.86609 (Simulation time: 3 hr 16 min 42 sec) 
Heartbeat CPU 0 instructions: 330000003 cycles: 552764097 heartbeat IPC: 0.487893 cumulative IPC: 0.549094 (Simulation time: 3 hr 16 min 46 sec) 
Heartbeat CPU 7 instructions: 610000002 cycles: 553050814 heartbeat IPC: 1.11597 cumulative IPC: 1.08111 (Simulation time: 3 hr 16 min 52 sec) 
Heartbeat CPU 6 instructions: 380000000 cycles: 554179918 heartbeat IPC: 0.630847 cumulative IPC: 0.64548 (Simulation time: 3 hr 17 min 15 sec) 
Heartbeat CPU 5 instructions: 250000000 cycles: 554256898 heartbeat IPC: 0.427342 cumulative IPC: 0.422138 (Simulation time: 3 hr 17 min 16 sec) 
Heartbeat CPU 2 instructions: 210000000 cycles: 558998074 heartbeat IPC: 0.34223 cumulative IPC: 0.345183 (Simulation time: 3 hr 18 min 43 sec) 
Heartbeat CPU 7 instructions: 620000000 cycles: 562213296 heartbeat IPC: 1.09141 cumulative IPC: 1.08128 (Simulation time: 3 hr 19 min 42 sec) 
Heartbeat CPU 3 instructions: 510000001 cycles: 563673829 heartbeat IPC: 0.899262 cumulative IPC: 0.866763 (Simulation time: 3 hr 20 min 11 sec) 
Heartbeat CPU 1 instructions: 260000000 cycles: 563778851 heartbeat IPC: 0.439314 cumulative IPC: 0.431335 (Simulation time: 3 hr 20 min 13 sec) 
Heartbeat CPU 6 instructions: 390000000 cycles: 569920533 heartbeat IPC: 0.635299 cumulative IPC: 0.645192 (Simulation time: 3 hr 22 min 15 sec) 
Heartbeat CPU 7 instructions: 630000000 cycles: 571160543 heartbeat IPC: 1.11766 cumulative IPC: 1.08187 (Simulation time: 3 hr 22 min 41 sec) 
Heartbeat CPU 3 instructions: 520000000 cycles: 572524220 heartbeat IPC: 1.12989 cumulative IPC: 0.870938 (Simulation time: 3 hr 23 min 7 sec) 
Heartbeat CPU 0 instructions: 340000000 cycles: 572924076 heartbeat IPC: 0.496032 cumulative IPC: 0.547178 (Simulation time: 3 hr 23 min 14 sec) 
Heartbeat CPU 5 instructions: 260000000 cycles: 577743874 heartbeat IPC: 0.425768 cumulative IPC: 0.422289 (Simulation time: 3 hr 24 min 47 sec) 
Heartbeat CPU 4 instructions: 120000000 cycles: 579176038 heartbeat IPC: 0.179797 cumulative IPC: 0.177198 (Simulation time: 3 hr 25 min 15 sec) 
Finished CPU 4 instructions: 100000000 cycles: 564341878 cumulative IPC: 0.177198 (Simulation time: 3 hr 25 min 15 sec) 

CPU 0 Branch Prediction Accuracy: 97.5095% MPKI: 0.380871

CPU 1 Branch Prediction Accuracy: 86.2459% MPKI: 15.6995

CPU 2 Branch Prediction Accuracy: 92.9174% MPKI: 12.6749

CPU 3 Branch Prediction Accuracy: 99.2911% MPKI: 0.342333

CPU 4 Branch Prediction Accuracy: 96.0991% MPKI: 5.8203

CPU 5 Branch Prediction Accuracy: 84.3937% MPKI: 16.7189

CPU 6 Branch Prediction Accuracy: 96.6079% MPKI: 4.37563

CPU 7 Branch Prediction Accuracy: 99.9708% MPKI: 0.00719794

ChampSim completed all CPUs

Total Simulation Statistics (not including warmup)

CPU 0 cumulative IPC: 0.546434 instructions: 308375842 cycles: 564341878
L1D TOTAL     ACCESS:   85271800  HIT:   64584050  MISS:   20687750
L1D LOAD      ACCESS:   31747992  HIT:   28611309  MISS:    3136683
L1D RFO       ACCESS:   53523808  HIT:   35972741  MISS:   17551067
L1D PREFETCH  ACCESS:          0  HIT:          0  MISS:          0
L1D WRITEBACK ACCESS:          0  HIT:          0  MISS:          0
L1I TOTAL     ACCESS:   73464411  HIT:   73464411  MISS:          0
L1I LOAD      ACCESS:   73464411  HIT:   73464411  MISS:          0
L1I RFO       ACCESS:          0  HIT:          0  MISS:          0
L1I PREFETCH  ACCESS:          0  HIT:          0  MISS:          0
L1I WRITEBACK ACCESS:          0  HIT:          0  MISS:          0
L2C TOTAL     ACCESS:   40830462  HIT:   25596113  MISS:   15234349
L2C LOAD      ACCESS:    3136683  HIT:    2575608  MISS:     561075
L2C RFO       ACCESS:   17551051  HIT:    5455384  MISS:   12095667
L2C PREFETCH  ACCESS:    2591655  HIT:      17971  MISS:    2573684
L2C WRITEBACK ACCESS:   17551073  HIT:   17547150  MISS:       3923

L2C DA-AMPM prefetcher final stats
LLC TOTAL     ACCESS:   27322885  HIT:   14791294  MISS:   12531591
LLC LOAD      ACCESS:     435022  HIT:       1921  MISS:     433101
LLC RFO       ACCESS:   12088789  HIT:    2690498  MISS:    9398291
LLC PREFETCH  ACCESS:    2699737  HIT:          1  MISS:    2699736
LLC WRITEBACK ACCESS:   12099337  HIT:   12098874  MISS:        463

CPU 1 cumulative IPC: 0.431425 instructions: 243471334 cycles: 564341878
L1D TOTAL     ACCESS:   80168386  HIT:   79130275  MISS:    1038111
L1D LOAD      ACCESS:   50587928  HIT:   49850960  MISS:     736968
L1D RFO       ACCESS:   29580458  HIT:   29279315  MISS:     301143
L1D PREFETCH  ACCESS:          0  HIT:          0  MISS:          0
L1D WRITEBACK ACCESS:          0  HIT:          0  MISS:          0
L1I TOTAL     ACCESS:   57846704  HIT:   57757569  MISS:      89135
L1I LOAD      ACCESS:   57846704  HIT:   57757569  MISS:      89135
L1I RFO       ACCESS:          0  HIT:          0  MISS:          0
L1I PREFETCH  ACCESS:          0  HIT:          0  MISS:          0
L1I WRITEBACK ACCESS:          0  HIT:          0  MISS:          0
L2C TOTAL     ACCESS:    1596176  HIT:    1539513  MISS:      56663
L2C LOAD      ACCESS:     826099  HIT:     813924  MISS:      12175
L2C RFO       ACCESS:     301134  HIT:     278740  MISS:      22394
L2C PREFETCH  ACCESS:      25769  HIT:       3778  MISS:      21991
L2C WRITEBACK ACCESS:     443174  HIT:     443071  MISS:        103

L2C DA-AMPM prefetcher final stats
LLC TOTAL     ACCESS:      82122  HIT:      32934  MISS:      49188
LLC LOAD      ACCESS:      10899  HIT:       2330  MISS:       8569
LLC RFO       ACCESS:      22392  HIT:        326  MISS:      22066
LLC PREFETCH  ACCESS:      23269  HIT:       9712  MISS:      13557
LLC WRITEBACK ACCESS:      25562  HIT:      20566  MISS:       4996

CPU 2 cumulative IPC: 0.344779 instructions: 194573431 cycles: 564341878
L1D TOTAL     ACCESS:   64434480  HIT:   62381910  MISS:    2052570
L1D LOAD      ACCESS:   39825396  HIT:   37981495  MISS:    1843901
L1D RFO       ACCESS:   24609084  HIT:   24400415  MISS:     208669
L1D PREFETCH  ACCESS:          0  HIT:          0  MISS:          0
L1D WRITEBACK ACCESS:          0  HIT:          0  MISS:          0
L1I TOTAL     ACCESS:   52722075  HIT:   51959922  MISS:     762153
L1I LOAD      ACCESS:   52722075  HIT:   51959922  MISS:     762153
L1I RFO       ACCESS:          0  HIT:          0  MISS:          0
L1I PREFETCH  ACCESS:          0  HIT:          0  MISS:          0
L1I WRITEBACK ACCESS:          0  HIT:          0  MISS:          0
L2C TOTAL     ACCESS:    4016179  HIT:    2645941  MISS:    1370238
L2C LOAD      ACCESS:    2606027  HIT:    1986028  MISS:     619999
L2C RFO       ACCESS:     208663  HIT:      77204  MISS:     131459
L2C PREFETCH  ACCESS:     702183  HIT:      88079  MISS:     614104
L2C WRITEBACK ACCESS:     499306  HIT:     494630  MISS:       4676

L2C DA-AMPM prefetcher final stats
LLC TOTAL     ACCESS:    1655626  HIT:     860219  MISS:     795407
LLC LOAD      ACCESS:     599876  HIT:     327794  MISS:     272082
LLC RFO       ACCESS:     131284  HIT:      28644  MISS:     102640
LLC PREFETCH  ACCESS:     634395  HIT:     250099  MISS:     384296
LLC WRITEBACK ACCESS:     290071  HIT:     253682  MISS:      36389

CPU 3 cumulative IPC: 0.873118 instructions: 492736807 cycles: 564341878
L1D TOTAL     ACCESS:  126910799  HIT:  116158441  MISS:   10752358
L1D LOAD      ACCESS:  106441142  HIT:   97425763  MISS:    9015379
L1D RFO       ACCESS:   20469657  HIT:   18732678  MISS:    1736979
L1D PREFETCH  ACCESS:          0  HIT:          0  MISS:          0
L1D WRITEBACK ACCESS:          0  HIT:          0  MISS:          0
L1I TOTAL     ACCESS:  127683179  HIT:  127666168  MISS:      17011
L1I LOAD      ACCESS:  127683179  HIT:  127666168  MISS:      17011
L1I RFO       ACCESS:          0  HIT:          0  MISS:          0
L1I PREFETCH  ACCESS:          0  HIT:          0  MISS:          0
L1I WRITEBACK ACCESS:          0  HIT:          0  MISS:          0
L2C TOTAL     ACCESS:   20126917  HIT:   11965207  MISS:    8161710
L2C LOAD      ACCESS:    9032026  HIT:    7611371  MISS:    1420655
L2C RFO       ACCESS:    1736965  HIT:     501369  MISS:    1235596
L2C PREFETCH  ACCESS:    5542191  HIT:      42544  MISS:    5499647
L2C WRITEBACK ACCESS:    3815735  HIT:    3809923  MISS:       5812

L2C DA-AMPM prefetcher final stats
LLC TOTAL     ACCESS:   11148531  HIT:    5014287  MISS:    6134244
LLC LOAD      ACCESS:     943520  HIT:     411236  MISS:     532284
LLC RFO       ACCESS:    1227381  HIT:     199868  MISS:    1027513
LLC PREFETCH  ACCESS:    5984955  HIT:    1419385  MISS:    4565570
LLC WRITEBACK ACCESS:    2992675  HIT:    2983798  MISS:       8877

CPU 4 cumulative IPC: 0.177198 instructions: 100000000 cycles: 564341878
L1D TOTAL     ACCESS:   44515376  HIT:   42460739  MISS:    2054637
L1D LOAD      ACCESS:   26565999  HIT:   24760235  MISS:    1805764
L1D RFO       ACCESS:   17949377  HIT:   17700504  MISS:     248873
L1D PREFETCH  ACCESS:          0  HIT:          0  MISS:          0
L1D WRITEBACK ACCESS:          0  HIT:          0  MISS:          0
L1I TOTAL     ACCESS:   34708217  HIT:   34646162  MISS:      62055
L1I LOAD      ACCESS:   34708217  HIT:   34646162  MISS:      62055
L1I RFO       ACCESS:          0  HIT:          0  MISS:          0
L1I PREFETCH  ACCESS:          0  HIT:          0  MISS:          0
L1I WRITEBACK ACCESS:          0  HIT:          0  MISS:          0
L2C TOTAL     ACCESS:    3424776  HIT:    1630311  MISS:    1794465
L2C LOAD      ACCESS:    1867757  HIT:     596029  MISS:    1271728
L2C RFO       ACCESS:     248860  HIT:      40038  MISS:     208822
L2C PREFETCH  ACCESS:     332962  HIT:      22971  MISS:     309991
L2C WRITEBACK ACCESS:     975197  HIT:     971273  MISS:       3924

L2C DA-AMPM prefetcher final stats
LLC TOTAL     ACCESS:    2553442  HIT:    1083260  MISS:    1470182
LLC LOAD      ACCESS:    1267133  HIT:     241086  MISS:    1026047
LLC RFO       ACCESS:     208191  HIT:      46885  MISS:     161306
LLC PREFETCH  ACCESS:     315212  HIT:      44976  MISS:     270236
LLC WRITEBACK ACCESS:     762906  HIT:     750313  MISS:      12593

CPU 5 cumulative IPC: 0.422291 instructions: 238316444 cycles: 564341879
L1D TOTAL     ACCESS:   78985176  HIT:   78355231  MISS:     629945
L1D LOAD      ACCESS:   50524181  HIT:   50020976  MISS:     503205
L1D RFO       ACCESS:   28460995  HIT:   28334255  MISS:     126740
L1D PREFETCH  ACCESS:          0  HIT:          0  MISS:          0
L1D WRITEBACK ACCESS:          0  HIT:          0  MISS:          0
L1I TOTAL     ACCESS:   54907124  HIT:   54858398  MISS:      48726
L1I LOAD      ACCESS:   54907124  HIT:   54858398  MISS:      48726
L1I RFO       ACCESS:          0  HIT:          0  MISS:          0
L1I PREFETCH  ACCESS:          0  HIT:          0  MISS:          0
L1I WRITEBACK ACCESS:          0  HIT:          0  MISS:          0
L2C TOTAL     ACCESS:     899540  HIT:     861677  MISS:      37863
L2C LOAD      ACCESS:     551925  HIT:     534251  MISS:      17674
L2C RFO       ACCESS:     126740  HIT:     121048  MISS:       5692
L2C PREFETCH  ACCESS:      16470  HIT:       2088  MISS:      14382
L2C WRITEBACK ACCESS:     204405  HIT:     204290  MISS:        115

L2C DA-AMPM prefetcher final stats
LLC TOTAL     ACCESS:      58625  HIT:      18419  MISS:      40206
LLC LOAD      ACCESS:      15163  HIT:       2176  MISS:      12987
LLC RFO       ACCESS:       5691  HIT:        486  MISS:       5205
LLC PREFETCH  ACCESS:      16894  HIT:        195  MISS:      16699
LLC WRITEBACK ACCESS:      20877  HIT:      15562  MISS:       5315

CPU 6 cumulative IPC: 0.645034 instructions: 364019688 cycles: 564341879
L1D TOTAL     ACCESS:   94328246  HIT:   91821380  MISS:    2506866
L1D LOAD      ACCESS:   57344935  HIT:   54953840  MISS:    2391095
L1D RFO       ACCESS:   36983311  HIT:   36867540  MISS:     115771
L1D PREFETCH  ACCESS:          0  HIT:          0  MISS:          0
L1D WRITEBACK ACCESS:          0  HIT:          0  MISS:          0
L1I TOTAL     ACCESS:   79951880  HIT:   79951880  MISS:          0
L1I LOAD      ACCESS:   79951880  HIT:   79951880  MISS:          0
L1I RFO       ACCESS:          0  HIT:          0  MISS:          0
L1I PREFETCH  ACCESS:          0  HIT:          0  MISS:          0
L1I WRITEBACK ACCESS:          0  HIT:          0  MISS:          0
L2C TOTAL     ACCESS:    2782959  HIT:     865720  MISS:    1917239
L2C LOAD      ACCESS:    2391095  HIT:     628205  MISS:    1762890
L2C RFO       ACCESS:     115766  HIT:      53331  MISS:      62435
L2C PREFETCH  ACCESS:      93774  HIT:       3803  MISS:      89971
L2C WRITEBACK ACCESS:     182324  HIT:     180381  MISS:       1943

L2C DA-AMPM prefetcher final stats
LLC TOTAL     ACCESS:    2002623  HIT:    1835613  MISS:     167010
LLC LOAD      ACCESS:    1761969  HIT:    1675553  MISS:      86416
LLC RFO       ACCESS:      62435  HIT:       9747  MISS:      52688
LLC PREFETCH  ACCESS:      90892  HIT:      69670  MISS:      21222
LLC WRITEBACK ACCESS:      87327  HIT:      80643  MISS:       6684

CPU 7 cumulative IPC: 1.08256 instructions: 610936521 cycles: 564341879
L1D TOTAL     ACCESS:  233162999  HIT:  220489230  MISS:   12673769
L1D LOAD      ACCESS:  199581292  HIT:  187285251  MISS:   12296041
L1D RFO       ACCESS:   33581707  HIT:   33203979  MISS:     377728
L1D PREFETCH  ACCESS:          0  HIT:          0  MISS:          0
L1D WRITEBACK ACCESS:          0  HIT:          0  MISS:          0
L1I TOTAL     ACCESS:  150321205  HIT:  150321205  MISS:          0
L1I LOAD      ACCESS:  150321205  HIT:  150321205  MISS:          0
L1I RFO       ACCESS:          0  HIT:          0  MISS:          0
L1I PREFETCH  ACCESS:          0  HIT:          0  MISS:          0
L1I WRITEBACK ACCESS:          0  HIT:          0  MISS:          0
L2C TOTAL     ACCESS:   23249209  HIT:   11595350  MISS:   11653859
L2C LOAD      ACCESS:   12292320  HIT:   11112110  MISS:    1180210
L2C RFO       ACCESS:     370167  HIT:      72492  MISS:     297675
L2C PREFETCH  ACCESS:   10173847  HIT:       1017  MISS:   10172830
L2C WRITEBACK ACCESS:     412875  HIT:     409731  MISS:       3144

L2C DA-AMPM prefetcher final stats
LLC TOTAL     ACCESS:   11951928  HIT:     341989  MISS:   11609939
LLC LOAD      ACCESS:     784725  HIT:      41304  MISS:     743421
LLC RFO       ACCESS:     297675  HIT:          0  MISS:     297675
LLC PREFETCH  ACCESS:   10568314  HIT:          0  MISS:   10568314
LLC WRITEBACK ACCESS:     301214  HIT:     300685  MISS:        529

Region of Interest Statistics

CPU 0 cumulative IPC: 0.838198 instructions: 100000000 cycles: 119303510
L1D TOTAL     ACCESS:   25735202  HIT:   21956918  MISS:    3778284
L1D LOAD      ACCESS:   10716765  HIT:   10144290  MISS:     572475
L1D RFO       ACCESS:   15018437  HIT:   11812628  MISS:    3205809
L1D PREFETCH  ACCESS:          0  HIT:          0  MISS:          0
L1D WRITEBACK ACCESS:          0  HIT:          0  MISS:          0
L1D PREFETCH  REQUESTED:          0  ISSUED:          0  USEFUL:          0  USELESS:          0
L1I TOTAL     ACCESS:   23444285  HIT:   23444285  MISS:          0
L1I LOAD      ACCESS:   23444285  HIT:   23444285  MISS:          0
L1I RFO       ACCESS:          0  HIT:          0  MISS:          0
L1I PREFETCH  ACCESS:          0  HIT:          0  MISS:          0
L1I WRITEBACK ACCESS:          0  HIT:          0  MISS:          0
L1I PREFETCH  REQUESTED:          0  ISSUED:          0  USEFUL:          0  USELESS:          0
L2C TOTAL     ACCESS:    7476192  HIT:    4663089  MISS:    2813103
L2C LOAD      ACCESS:     572475  HIT:     488539  MISS:      83936
L2C RFO       ACCESS:    3205809  HIT:     965210  MISS:    2240599
L2C PREFETCH  ACCESS:     492096  HIT:       3558  MISS:     488538
L2C WRITEBACK ACCESS:    3205812  HIT:    3205782  MISS:         30
L2C PREFETCH  REQUESTED:    2973998  ISSUED:    2973998  USEFUL:    2738025  USELESS:         29
LLC TOTAL     ACCESS:    5052143  HIT:    2762259  MISS:    2289884
LLC LOAD      ACCESS:      71473  HIT:          0  MISS:      71473
LLC RFO       ACCESS:    2239157  HIT:     521777  MISS:    1717380
LLC PREFETCH  ACCESS:     501001  HIT:          0  MISS:     501001
LLC WRITEBACK ACCESS:    2240512  HIT:    2240482  MISS:         30
LLC PREFETCH  REQUESTED:          0  ISSUED:          0  USEFUL:     376628  USELESS:   19125797
Major fault: 0 Minor fault: 106886

CPU 1 cumulative IPC: 0.431659 instructions: 100000002 cycles: 231664447
L1D TOTAL     ACCESS:   32888397  HIT:   32479099  MISS:     409298
L1D LOAD      ACCESS:   20762595  HIT:   20468856  MISS:     293739
L1D RFO       ACCESS:   12125802  HIT:   12010243  MISS:     115559
L1D PREFETCH  ACCESS:          0  HIT:          0  MISS:          0
L1D WRITEBACK ACCESS:          0  HIT:          0  MISS:          0
L1D PREFETCH  REQUESTED:          0  ISSUED:          0  USEFUL:          0  USELESS:          0
L1I TOTAL     ACCESS:   23673002  HIT:   23637750  MISS:      35252
L1I LOAD      ACCESS:   23673002  HIT:   23637750  MISS:      35252
L1I RFO       ACCESS:          0  HIT:          0  MISS:          0
L1I PREFETCH  ACCESS:          0  HIT:          0  MISS:          0
L1I WRITEBACK ACCESS:          0  HIT:          0  MISS:          0
L1I PREFETCH  REQUESTED:          0  ISSUED:          0  USEFUL:          0  USELESS:          0
L2C TOTAL     ACCESS:     621965  HIT:     617479  MISS:       4486
L2C LOAD      ACCESS:     328990  HIT:     326095  MISS:       2895
L2C RFO       ACCESS:     115552  HIT:     114967  MISS:        585
L2C PREFETCH  ACCESS:       2388  HIT:       1409  MISS:        979
L2C WRITEBACK ACCESS:     175035  HIT:     175008  MISS:         27
L2C PREFETCH  REQUESTED:      30165  ISSUED:      30165  USEFUL:      19460  USELESS:       3803
LLC TOTAL     ACCESS:       5488  HIT:        239  MISS:       5249
LLC LOAD      ACCESS:       2815  HIT:        179  MISS:       2636
LLC RFO       ACCESS:        585  HIT:          9  MISS:        576
LLC PREFETCH  ACCESS:       1059  HIT:          6  MISS:       1053
LLC WRITEBACK ACCESS:       1029  HIT:         45  MISS:        984
LLC PREFETCH  REQUESTED:          0  ISSUED:          0  USEFUL:     376628  USELESS:   19125797
Major fault: 0 Minor fault: 1489

CPU 2 cumulative IPC: 0.359998 instructions: 100000000 cycles: 277779522
L1D TOTAL     ACCESS:   31614025  HIT:   30597947  MISS:    1016078
L1D LOAD      ACCESS:   19648755  HIT:   18737087  MISS:     911668
L1D RFO       ACCESS:   11965270  HIT:   11860860  MISS:     104410
L1D PREFETCH  ACCESS:          0  HIT:          0  MISS:          0
L1D WRITEBACK ACCESS:          0  HIT:          0  MISS:          0
L1D PREFETCH  REQUESTED:          0  ISSUED:          0  USEFUL:          0  USELESS:          0
L1I TOTAL     ACCESS:   27039143  HIT:   26704465  MISS:     334678
L1I LOAD      ACCESS:   27039143  HIT:   26704465  MISS:     334678
L1I RFO       ACCESS:          0  HIT:          0  MISS:          0
L1I PREFETCH  ACCESS:          0  HIT:          0  MISS:          0
L1I WRITEBACK ACCESS:          0  HIT:          0  MISS:          0
L1I PREFETCH  REQUESTED:          0  ISSUED:          0  USEFUL:          0  USELESS:          0
L2C TOTAL     ACCESS:    1960198  HIT:    1214587  MISS:     745611
L2C LOAD      ACCESS:    1246339  HIT:     916404  MISS:     329935
L2C RFO       ACCESS:     104405  HIT:      32641  MISS:      71764
L2C PREFETCH  ACCESS:     367821  HIT:      26131  MISS:     341690
L2C WRITEBACK ACCESS:     241633  HIT:     239411  MISS:       2222
L2C PREFETCH  REQUESTED:     874617  ISSUED:     874617  USEFUL:     427821  USELESS:     308146
LLC TOTAL     ACCESS:     903873  HIT:     467932  MISS:     435941
LLC LOAD      ACCESS:     318614  HIT:     174910  MISS:     143704
LLC RFO       ACCESS:      71660  HIT:      12251  MISS:      59409
LLC PREFETCH  ACCESS:     353111  HIT:     134124  MISS:     218987
LLC WRITEBACK ACCESS:     160488  HIT:     146647  MISS:      13841
LLC PREFETCH  REQUESTED:          0  ISSUED:          0  USEFUL:     376628  USELESS:   19125797
Major fault: 0 Minor fault: 7926

CPU 3 cumulative IPC: 0.860791 instructions: 100000003 cycles: 116172176
L1D TOTAL     ACCESS:   26307545  HIT:   23466917  MISS:    2840628
L1D LOAD      ACCESS:   21508751  HIT:   19173198  MISS:    2335553
L1D RFO       ACCESS:    4798794  HIT:    4293719  MISS:     505075
L1D PREFETCH  ACCESS:          0  HIT:          0  MISS:          0
L1D WRITEBACK ACCESS:          0  HIT:          0  MISS:          0
L1D PREFETCH  REQUESTED:          0  ISSUED:          0  USEFUL:          0  USELESS:          0
L1I TOTAL     ACCESS:   23565409  HIT:   23560968  MISS:       4441
L1I LOAD      ACCESS:   23565409  HIT:   23560968  MISS:       4441
L1I RFO       ACCESS:          0  HIT:          0  MISS:          0
L1I PREFETCH  ACCESS:          0  HIT:          0  MISS:          0
L1I WRITEBACK ACCESS:          0  HIT:          0  MISS:          0
L1I PREFETCH  REQUESTED:          0  ISSUED:          0  USEFUL:          0  USELESS:          0
L2C TOTAL     ACCESS:    5380434  HIT:    3189294  MISS:    2191140
L2C LOAD      ACCESS:    2339894  HIT:    1951563  MISS:     388331
L2C RFO       ACCESS:     505075  HIT:     146892  MISS:     358183
L2C PREFETCH  ACCESS:    1457487  HIT:      14261  MISS:    1443226
L2C WRITEBACK ACCESS:    1077978  HIT:    1076578  MISS:       1400
L2C PREFETCH  REQUESTED:    6987383  ISSUED:    6590694  USEFUL:    5560016  USELESS:     360232
LLC TOTAL     ACCESS:    3021282  HIT:    1365304  MISS:    1655978
LLC LOAD      ACCESS:     257669  HIT:     118555  MISS:     139114
LLC RFO       ACCESS:     356273  HIT:      55370  MISS:     300903
LLC PREFETCH  ACCESS:    1575782  HIT:     361234  MISS:    1214548
LLC WRITEBACK ACCESS:     831558  HIT:     830145  MISS:       1413
LLC PREFETCH  REQUESTED:          0  ISSUED:          0  USEFUL:     376628  USELESS:   19125797
Major fault: 0 Minor fault: 11454

CPU 4 cumulative IPC: 0.177198 instructions: 100000000 cycles: 564341878
L1D TOTAL     ACCESS:   44515376  HIT:   42460739  MISS:    2054637
L1D LOAD      ACCESS:   26565999  HIT:   24760235  MISS:    1805764
L1D RFO       ACCESS:   17949377  HIT:   17700504  MISS:     248873
L1D PREFETCH  ACCESS:          0  HIT:          0  MISS:          0
L1D WRITEBACK ACCESS:          0  HIT:          0  MISS:          0
L1D PREFETCH  REQUESTED:          0  ISSUED:          0  USEFUL:          0  USELESS:          0
L1I TOTAL     ACCESS:   34708217  HIT:   34646162  MISS:      62055
L1I LOAD      ACCESS:   34708217  HIT:   34646162  MISS:      62055
L1I RFO       ACCESS:          0  HIT:          0  MISS:          0
L1I PREFETCH  ACCESS:          0  HIT:          0  MISS:          0
L1I WRITEBACK ACCESS:          0  HIT:          0  MISS:          0
L1I PREFETCH  REQUESTED:          0  ISSUED:          0  USEFUL:          0  USELESS:          0
L2C TOTAL     ACCESS:    3424776  HIT:    1630311  MISS:    1794465
L2C LOAD      ACCESS:    1867757  HIT:     596029  MISS:    1271728
L2C RFO       ACCESS:     248860  HIT:      40038  MISS:     208822
L2C PREFETCH  ACCESS:     332962  HIT:      22971  MISS:     309991
L2C WRITEBACK ACCESS:     975197  HIT:     971273  MISS:       3924
L2C PREFETCH  REQUESTED:     462797  ISSUED:     462797  USEFUL:      83418  USELESS:     290702
LLC TOTAL     ACCESS:    2553442  HIT:    1083260  MISS:    1470182
LLC LOAD      ACCESS:    1267133  HIT:     241086  MISS:    1026047
LLC RFO       ACCESS:     208191  HIT:      46885  MISS:     161306
LLC PREFETCH  ACCESS:     315212  HIT:      44976  MISS:     270236
LLC WRITEBACK ACCESS:     762906  HIT:     750313  MISS:      12593
LLC PREFETCH  REQUESTED:          0  ISSUED:          0  USEFUL:     376628  USELESS:   19125797
Major fault: 0 Minor fault: 50067

CPU 5 cumulative IPC: 0.417666 instructions: 100000000 cycles: 239425778
L1D TOTAL     ACCESS:   33564082  HIT:   33327142  MISS:     236940
L1D LOAD      ACCESS:   21394526  HIT:   21204193  MISS:     190333
L1D RFO       ACCESS:   12169556  HIT:   12122949  MISS:      46607
L1D PREFETCH  ACCESS:          0  HIT:          0  MISS:          0
L1D WRITEBACK ACCESS:          0  HIT:          0  MISS:          0
L1D PREFETCH  REQUESTED:          0  ISSUED:          0  USEFUL:          0  USELESS:          0
L1I TOTAL     ACCESS:   23035062  HIT:   23015545  MISS:      19517
L1I LOAD      ACCESS:   23035062  HIT:   23015545  MISS:      19517
L1I RFO       ACCESS:          0  HIT:          0  MISS:          0
L1I PREFETCH  ACCESS:          0  HIT:          0  MISS:          0
L1I WRITEBACK ACCESS:          0  HIT:          0  MISS:          0
L1I PREFETCH  REQUESTED:          0  ISSUED:          0  USEFUL:          0  USELESS:          0
L2C TOTAL     ACCESS:     351151  HIT:     320564  MISS:      30587
L2C LOAD      ACCESS:     209847  HIT:     197780  MISS:      12067
L2C RFO       ACCESS:      46607  HIT:      41654  MISS:       4953
L2C PREFETCH  ACCESS:      14565  HIT:       1073  MISS:      13492
L2C WRITEBACK ACCESS:      80132  HIT:      80057  MISS:         75
L2C PREFETCH  REQUESTED:      52044  ISSUED:      52044  USEFUL:      38767  USELESS:       6009
LLC TOTAL     ACCESS:      49973  HIT:      18123  MISS:      31850
LLC LOAD      ACCESS:       9638  HIT:       1915  MISS:       7723
LLC RFO       ACCESS:       4952  HIT:        473  MISS:       4479
LLC PREFETCH  ACCESS:      15922  HIT:        190  MISS:      15732
LLC WRITEBACK ACCESS:      19461  HIT:      15545  MISS:       3916
LLC PREFETCH  REQUESTED:          0  ISSUED:          0  USEFUL:     376628  USELESS:   19125797
Major fault: 0 Minor fault: 1185

CPU 6 cumulative IPC: 0.646839 instructions: 100000000 cycles: 154598000
L1D TOTAL     ACCESS:   25886303  HIT:   25209281  MISS:     677022
L1D LOAD      ACCESS:   15710073  HIT:   15065309  MISS:     644764
L1D RFO       ACCESS:   10176230  HIT:   10143972  MISS:      32258
L1D PREFETCH  ACCESS:          0  HIT:          0  MISS:          0
L1D WRITEBACK ACCESS:          0  HIT:          0  MISS:          0
L1D PREFETCH  REQUESTED:          0  ISSUED:          0  USEFUL:          0  USELESS:          0
L1I TOTAL     ACCESS:   21766107  HIT:   21766107  MISS:          0
L1I LOAD      ACCESS:   21766107  HIT:   21766107  MISS:          0
L1I RFO       ACCESS:          0  HIT:          0  MISS:          0
L1I PREFETCH  ACCESS:          0  HIT:          0  MISS:          0
L1I WRITEBACK ACCESS:          0  HIT:          0  MISS:          0
L1I PREFETCH  REQUESTED:          0  ISSUED:          0  USEFUL:          0  USELESS:          0
L2C TOTAL     ACCESS:     729310  HIT:     313743  MISS:     415567
L2C LOAD      ACCESS:     644764  HIT:     247586  MISS:     397178
L2C RFO       ACCESS:      32258  HIT:      14947  MISS:      17311
L2C PREFETCH  ACCESS:        730  HIT:          8  MISS:        722
L2C WRITEBACK ACCESS:      51558  HIT:      51202  MISS:        356
L2C PREFETCH  REQUESTED:     102391  ISSUED:     102391  USEFUL:      55575  USELESS:      40247
LLC TOTAL     ACCESS:     436768  HIT:     393808  MISS:      42960
LLC LOAD      ACCESS:     397173  HIT:     372252  MISS:      24921
LLC RFO       ACCESS:      17311  HIT:       2673  MISS:      14638
LLC PREFETCH  ACCESS:        727  HIT:          1  MISS:        726
LLC WRITEBACK ACCESS:      21557  HIT:      18882  MISS:       2675
LLC PREFETCH  REQUESTED:          0  ISSUED:          0  USEFUL:     376628  USELESS:   19125797
Major fault: 0 Minor fault: 1204

CPU 7 cumulative IPC: 1.07442 instructions: 100000002 cycles: 93073244
L1D TOTAL     ACCESS:   38159918  HIT:   36085476  MISS:    2074442
L1D LOAD      ACCESS:   32666287  HIT:   30653664  MISS:    2012623
L1D RFO       ACCESS:    5493631  HIT:    5431812  MISS:      61819
L1D PREFETCH  ACCESS:          0  HIT:          0  MISS:          0
L1D WRITEBACK ACCESS:          0  HIT:          0  MISS:          0
L1D PREFETCH  REQUESTED:          0  ISSUED:          0  USEFUL:          0  USELESS:          0
L1I TOTAL     ACCESS:   24607349  HIT:   24607349  MISS:          0
L1I LOAD      ACCESS:   24607349  HIT:   24607349  MISS:          0
L1I RFO       ACCESS:          0  HIT:          0  MISS:          0
L1I PREFETCH  ACCESS:          0  HIT:          0  MISS:          0
L1I WRITEBACK ACCESS:          0  HIT:          0  MISS:          0
L1I PREFETCH  REQUESTED:          0  ISSUED:          0  USEFUL:          0  USELESS:          0
L2C TOTAL     ACCESS:    3802272  HIT:    1893269  MISS:    1909003
L2C LOAD      ACCESS:    2012017  HIT:    1814139  MISS:     197878
L2C RFO       ACCESS:      60614  HIT:      11890  MISS:      48724
L2C PREFETCH  ACCESS:    1662088  HIT:        193  MISS:    1661895
L2C WRITEBACK ACCESS:      67553  HIT:      67047  MISS:        506
L2C PREFETCH  REQUESTED:   13029936  ISSUED:   11132907  USEFUL:   10667160  USELESS:        227
LLC TOTAL     ACCESS:    1957774  HIT:      57365  MISS:    1900409
LLC LOAD      ACCESS:     132689  HIT:       8185  MISS:     124504
LLC RFO       ACCESS:      48724  HIT:          0  MISS:      48724
LLC PREFETCH  ACCESS:    1727084  HIT:          0  MISS:    1727084
LLC WRITEBACK ACCESS:      49277  HIT:      49180  MISS:         97
LLC PREFETCH  REQUESTED:          0  ISSUED:          0  USEFUL:     376628  USELESS:   19125797
Major fault: 0 Minor fault: 180308

L2C DA-AMPM prefetcher final stats

L2C DA-AMPM prefetcher final stats

L2C DA-AMPM prefetcher final stats

L2C DA-AMPM prefetcher final stats

L2C DA-AMPM prefetcher final stats

L2C DA-AMPM prefetcher final stats

L2C DA-AMPM prefetcher final stats

L2C DA-AMPM prefetcher final stats

DRAM Statistics
 CHANNEL 0
 RQ ROW_BUFFER_HIT:    6933552  ROW_BUFFER_MISS:    9426440
 DBUS_CONGESTED:   34774490
 WQ ROW_BUFFER_HIT:     548365  ROW_BUFFER_MISS:    5877737  FULL:          0

 CHANNEL 1
 RQ ROW_BUFFER_HIT:    6932562  ROW_BUFFER_MISS:    9428780
 DBUS_CONGESTED:   34774490
 WQ ROW_BUFFER_HIT:     549873  ROW_BUFFER_MISS:    5875465  FULL:          0

 AVG_CONGESTED_CYCLE: 13
