
*** ChampSim Multicore Out-of-Order Simulator ***

Warmup Instructions: 200000000
Simulation Instructions: 1000000000
Number of CPUs: 1
LLC sets: 8192
LLC ways: 16
Off-chip DRAM Size: 4096 MB Channels: 1 Width: 64-bit Data Rate: 1600 MT/s

CPU 0 runs /scratch/user/djimenez/champsim-traces/speccpu2006/xz/401.bzip2-277B.champsimtrace.xz
Heartbeat CPU 0 instructions: 10000001 cycles: 3341104 heartbeat IPC: 2.99302 cumulative IPC: 2.99302 (Simulation time: 0 hr 0 min 8 sec) 
Heartbeat CPU 0 instructions: 20000000 cycles: 6933248 heartbeat IPC: 2.78385 cumulative IPC: 2.88465 (Simulation time: 0 hr 0 min 16 sec) 
Heartbeat CPU 0 instructions: 30000002 cycles: 11892129 heartbeat IPC: 2.01658 cumulative IPC: 2.52268 (Simulation time: 0 hr 0 min 27 sec) 
Heartbeat CPU 0 instructions: 40000000 cycles: 16845537 heartbeat IPC: 2.01881 cumulative IPC: 2.37452 (Simulation time: 0 hr 0 min 39 sec) 
Heartbeat CPU 0 instructions: 50000002 cycles: 21703992 heartbeat IPC: 2.05827 cumulative IPC: 2.30372 (Simulation time: 0 hr 0 min 51 sec) 
Heartbeat CPU 0 instructions: 60000000 cycles: 26704003 heartbeat IPC: 2 cumulative IPC: 2.24685 (Simulation time: 0 hr 1 min 3 sec) 
Heartbeat CPU 0 instructions: 70000000 cycles: 31008113 heartbeat IPC: 2.32336 cumulative IPC: 2.25747 (Simulation time: 0 hr 1 min 20 sec) 
Heartbeat CPU 0 instructions: 80000000 cycles: 34364349 heartbeat IPC: 2.97953 cumulative IPC: 2.32799 (Simulation time: 0 hr 1 min 28 sec) 
Heartbeat CPU 0 instructions: 90000000 cycles: 37844694 heartbeat IPC: 2.87328 cumulative IPC: 2.37814 (Simulation time: 0 hr 1 min 36 sec) 
Heartbeat CPU 0 instructions: 100000000 cycles: 42778285 heartbeat IPC: 2.02692 cumulative IPC: 2.33763 (Simulation time: 0 hr 1 min 48 sec) 
Heartbeat CPU 0 instructions: 110000000 cycles: 47475363 heartbeat IPC: 2.12898 cumulative IPC: 2.31699 (Simulation time: 0 hr 2 min 0 sec) 
Heartbeat CPU 0 instructions: 120000000 cycles: 52357700 heartbeat IPC: 2.0482 cumulative IPC: 2.29193 (Simulation time: 0 hr 2 min 12 sec) 
Heartbeat CPU 0 instructions: 130000002 cycles: 57277206 heartbeat IPC: 2.03272 cumulative IPC: 2.26966 (Simulation time: 0 hr 2 min 25 sec) 
Heartbeat CPU 0 instructions: 140000000 cycles: 61261428 heartbeat IPC: 2.5099 cumulative IPC: 2.28529 (Simulation time: 0 hr 2 min 41 sec) 
Heartbeat CPU 0 instructions: 150000002 cycles: 64844068 heartbeat IPC: 2.79124 cumulative IPC: 2.31324 (Simulation time: 0 hr 2 min 49 sec) 
Heartbeat CPU 0 instructions: 160000000 cycles: 68677543 heartbeat IPC: 2.6086 cumulative IPC: 2.32973 (Simulation time: 0 hr 2 min 59 sec) 
Heartbeat CPU 0 instructions: 170000001 cycles: 73620296 heartbeat IPC: 2.02316 cumulative IPC: 2.30915 (Simulation time: 0 hr 3 min 10 sec) 
Heartbeat CPU 0 instructions: 180000000 cycles: 78371435 heartbeat IPC: 2.10476 cumulative IPC: 2.29676 (Simulation time: 0 hr 3 min 23 sec) 
Heartbeat CPU 0 instructions: 190000001 cycles: 83287039 heartbeat IPC: 2.03434 cumulative IPC: 2.28127 (Simulation time: 0 hr 3 min 36 sec) 
Heartbeat CPU 0 instructions: 200000000 cycles: 88103011 heartbeat IPC: 2.07642 cumulative IPC: 2.27007 (Simulation time: 0 hr 3 min 49 sec) 

Warmup complete CPU 0 instructions: 200000003 cycles: 88103024 (Simulation time: 0 hr 3 min 49 sec) 

Heartbeat CPU 0 instructions: 210000001 cycles: 95872984 heartbeat IPC: 1.28701 cumulative IPC: 1.28701 (Simulation time: 0 hr 4 min 11 sec) 
Heartbeat CPU 0 instructions: 220000000 cycles: 101928450 heartbeat IPC: 1.6514 cumulative IPC: 1.44661 (Simulation time: 0 hr 4 min 29 sec) 
Heartbeat CPU 0 instructions: 230000000 cycles: 111070417 heartbeat IPC: 1.09386 cumulative IPC: 1.3062 (Simulation time: 0 hr 4 min 47 sec) 
Heartbeat CPU 0 instructions: 240000000 cycles: 123493175 heartbeat IPC: 0.804974 cumulative IPC: 1.13026 (Simulation time: 0 hr 5 min 5 sec) 
Heartbeat CPU 0 instructions: 250000002 cycles: 135589023 heartbeat IPC: 0.82673 cumulative IPC: 1.05294 (Simulation time: 0 hr 5 min 24 sec) 
Heartbeat CPU 0 instructions: 260000000 cycles: 147318052 heartbeat IPC: 0.852585 cumulative IPC: 1.01326 (Simulation time: 0 hr 5 min 43 sec) 
Heartbeat CPU 0 instructions: 270000002 cycles: 157957144 heartbeat IPC: 0.93993 cumulative IPC: 1.00209 (Simulation time: 0 hr 6 min 3 sec) 
Heartbeat CPU 0 instructions: 280000000 cycles: 165568329 heartbeat IPC: 1.31386 cumulative IPC: 1.03272 (Simulation time: 0 hr 6 min 24 sec) 
Heartbeat CPU 0 instructions: 290000002 cycles: 171849946 heartbeat IPC: 1.59195 cumulative IPC: 1.07467 (Simulation time: 0 hr 6 min 42 sec) 
Heartbeat CPU 0 instructions: 300000000 cycles: 182854041 heartbeat IPC: 0.908752 cumulative IPC: 1.0554 (Simulation time: 0 hr 7 min 0 sec) 
Heartbeat CPU 0 instructions: 310000001 cycles: 194331605 heartbeat IPC: 0.871265 cumulative IPC: 1.0355 (Simulation time: 0 hr 7 min 20 sec) 
Heartbeat CPU 0 instructions: 320000000 cycles: 205911616 heartbeat IPC: 0.863557 cumulative IPC: 1.0186 (Simulation time: 0 hr 7 min 38 sec) 
Heartbeat CPU 0 instructions: 330000001 cycles: 216072539 heartbeat IPC: 0.984163 cumulative IPC: 1.01587 (Simulation time: 0 hr 7 min 59 sec) 
Heartbeat CPU 0 instructions: 340000000 cycles: 223650137 heartbeat IPC: 1.31968 cumulative IPC: 1.03285 (Simulation time: 0 hr 8 min 19 sec) 
Heartbeat CPU 0 instructions: 350000001 cycles: 229960412 heartbeat IPC: 1.58472 cumulative IPC: 1.0574 (Simulation time: 0 hr 8 min 36 sec) 
Heartbeat CPU 0 instructions: 360000000 cycles: 240784406 heartbeat IPC: 0.923873 cumulative IPC: 1.04793 (Simulation time: 0 hr 8 min 55 sec) 
Heartbeat CPU 0 instructions: 370000002 cycles: 253237123 heartbeat IPC: 0.803038 cumulative IPC: 1.02947 (Simulation time: 0 hr 9 min 13 sec) 
Heartbeat CPU 0 instructions: 380000000 cycles: 264695751 heartbeat IPC: 0.872705 cumulative IPC: 1.01929 (Simulation time: 0 hr 9 min 31 sec) 
Heartbeat CPU 0 instructions: 390000000 cycles: 277508649 heartbeat IPC: 0.780464 cumulative IPC: 1.00314 (Simulation time: 0 hr 9 min 50 sec) 
Heartbeat CPU 0 instructions: 400000000 cycles: 289812795 heartbeat IPC: 0.812734 cumulative IPC: 0.991524 (Simulation time: 0 hr 10 min 8 sec) 
Heartbeat CPU 0 instructions: 410000003 cycles: 297800126 heartbeat IPC: 1.25198 cumulative IPC: 1.00144 (Simulation time: 0 hr 10 min 31 sec) 
Heartbeat CPU 0 instructions: 420000000 cycles: 304473555 heartbeat IPC: 1.49848 cumulative IPC: 1.01677 (Simulation time: 0 hr 10 min 49 sec) 
Heartbeat CPU 0 instructions: 430000003 cycles: 313469357 heartbeat IPC: 1.11163 cumulative IPC: 1.02056 (Simulation time: 0 hr 11 min 7 sec) 
Heartbeat CPU 0 instructions: 440000000 cycles: 325545941 heartbeat IPC: 0.828048 cumulative IPC: 1.01077 (Simulation time: 0 hr 11 min 25 sec) 
Heartbeat CPU 0 instructions: 450000000 cycles: 337699414 heartbeat IPC: 0.82281 cumulative IPC: 1.00162 (Simulation time: 0 hr 11 min 43 sec) 
Heartbeat CPU 0 instructions: 460000000 cycles: 350210183 heartbeat IPC: 0.799311 cumulative IPC: 0.991961 (Simulation time: 0 hr 12 min 2 sec) 
Heartbeat CPU 0 instructions: 470000001 cycles: 362624355 heartbeat IPC: 0.805531 cumulative IPC: 0.98353 (Simulation time: 0 hr 12 min 20 sec) 
Heartbeat CPU 0 instructions: 480000000 cycles: 372437593 heartbeat IPC: 1.01903 cumulative IPC: 0.984755 (Simulation time: 0 hr 12 min 42 sec) 
Heartbeat CPU 0 instructions: 490000000 cycles: 379742890 heartbeat IPC: 1.36887 cumulative IPC: 0.994377 (Simulation time: 0 hr 13 min 1 sec) 
Heartbeat CPU 0 instructions: 500000000 cycles: 387018363 heartbeat IPC: 1.37448 cumulative IPC: 1.00363 (Simulation time: 0 hr 13 min 20 sec) 
Heartbeat CPU 0 instructions: 510000000 cycles: 399001777 heartbeat IPC: 0.834487 cumulative IPC: 0.997109 (Simulation time: 0 hr 13 min 38 sec) 
Heartbeat CPU 0 instructions: 520000000 cycles: 411394266 heartbeat IPC: 0.80694 cumulative IPC: 0.98982 (Simulation time: 0 hr 13 min 56 sec) 
Heartbeat CPU 0 instructions: 530000000 cycles: 423972705 heartbeat IPC: 0.795011 cumulative IPC: 0.982524 (Simulation time: 0 hr 14 min 14 sec) 
Heartbeat CPU 0 instructions: 540000000 cycles: 436672138 heartbeat IPC: 0.787437 cumulative IPC: 0.975416 (Simulation time: 0 hr 14 min 32 sec) 
Heartbeat CPU 0 instructions: 550000001 cycles: 449354994 heartbeat IPC: 0.788466 cumulative IPC: 0.968853 (Simulation time: 0 hr 14 min 51 sec) 
Heartbeat CPU 0 instructions: 560000000 cycles: 459517508 heartbeat IPC: 0.984008 cumulative IPC: 0.969268 (Simulation time: 0 hr 15 min 12 sec) 
Heartbeat CPU 0 instructions: 570000001 cycles: 466976219 heartbeat IPC: 1.34071 cumulative IPC: 0.97658 (Simulation time: 0 hr 15 min 32 sec) 
Heartbeat CPU 0 instructions: 580000000 cycles: 474125730 heartbeat IPC: 1.3987 cumulative IPC: 0.984398 (Simulation time: 0 hr 15 min 51 sec) 
Heartbeat CPU 0 instructions: 590000000 cycles: 485124178 heartbeat IPC: 0.909219 cumulative IPC: 0.982315 (Simulation time: 0 hr 16 min 10 sec) 
Heartbeat CPU 0 instructions: 600000000 cycles: 497129948 heartbeat IPC: 0.832933 cumulative IPC: 0.977931 (Simulation time: 0 hr 16 min 28 sec) 
Heartbeat CPU 0 instructions: 610000002 cycles: 509528070 heartbeat IPC: 0.806574 cumulative IPC: 0.972889 (Simulation time: 0 hr 16 min 46 sec) 
Heartbeat CPU 0 instructions: 620000000 cycles: 521809333 heartbeat IPC: 0.814248 cumulative IPC: 0.968397 (Simulation time: 0 hr 17 min 5 sec) 
Heartbeat CPU 0 instructions: 630000001 cycles: 532324456 heartbeat IPC: 0.951011 cumulative IPC: 0.967986 (Simulation time: 0 hr 17 min 26 sec) 
Heartbeat CPU 0 instructions: 640000000 cycles: 540152494 heartbeat IPC: 1.27746 cumulative IPC: 0.973345 (Simulation time: 0 hr 17 min 47 sec) 
Heartbeat CPU 0 instructions: 650000001 cycles: 547080606 heartbeat IPC: 1.44339 cumulative IPC: 0.98044 (Simulation time: 0 hr 18 min 5 sec) 
Heartbeat CPU 0 instructions: 660000000 cycles: 558325562 heartbeat IPC: 0.889288 cumulative IPC: 0.97826 (Simulation time: 0 hr 18 min 24 sec) 
Heartbeat CPU 0 instructions: 670000002 cycles: 570648495 heartbeat IPC: 0.811495 cumulative IPC: 0.974001 (Simulation time: 0 hr 18 min 42 sec) 
Heartbeat CPU 0 instructions: 680000000 cycles: 583185513 heartbeat IPC: 0.797638 cumulative IPC: 0.969535 (Simulation time: 0 hr 19 min 1 sec) 
Heartbeat CPU 0 instructions: 690000001 cycles: 595779330 heartbeat IPC: 0.794041 cumulative IPC: 0.965182 (Simulation time: 0 hr 19 min 19 sec) 
Heartbeat CPU 0 instructions: 700000000 cycles: 608446649 heartbeat IPC: 0.789433 cumulative IPC: 0.960903 (Simulation time: 0 hr 19 min 37 sec) 
Heartbeat CPU 0 instructions: 710000001 cycles: 618616090 heartbeat IPC: 0.983338 cumulative IPC: 0.961334 (Simulation time: 0 hr 19 min 59 sec) 
Heartbeat CPU 0 instructions: 720000000 cycles: 626527191 heartbeat IPC: 1.26405 cumulative IPC: 0.965781 (Simulation time: 0 hr 20 min 20 sec) 
Heartbeat CPU 0 instructions: 730000003 cycles: 634884426 heartbeat IPC: 1.19657 cumulative IPC: 0.969309 (Simulation time: 0 hr 20 min 40 sec) 
Heartbeat CPU 0 instructions: 740000000 cycles: 646884707 heartbeat IPC: 0.833314 cumulative IPC: 0.966388 (Simulation time: 0 hr 20 min 58 sec) 
Heartbeat CPU 0 instructions: 750000003 cycles: 659803475 heartbeat IPC: 0.774068 cumulative IPC: 0.962042 (Simulation time: 0 hr 21 min 17 sec) 
Heartbeat CPU 0 instructions: 760000000 cycles: 672381247 heartbeat IPC: 0.795053 cumulative IPC: 0.958448 (Simulation time: 0 hr 21 min 35 sec) 
Heartbeat CPU 0 instructions: 770000000 cycles: 685192994 heartbeat IPC: 0.780534 cumulative IPC: 0.95463 (Simulation time: 0 hr 21 min 53 sec) 
Heartbeat CPU 0 instructions: 780000000 cycles: 697926701 heartbeat IPC: 0.785317 cumulative IPC: 0.951095 (Simulation time: 0 hr 22 min 12 sec) 
Heartbeat CPU 0 instructions: 790000000 cycles: 708880928 heartbeat IPC: 0.91289 cumulative IPC: 0.95042 (Simulation time: 0 hr 22 min 32 sec) 
Heartbeat CPU 0 instructions: 800000000 cycles: 716786706 heartbeat IPC: 1.2649 cumulative IPC: 0.954375 (Simulation time: 0 hr 22 min 53 sec) 
Heartbeat CPU 0 instructions: 810000000 cycles: 724772464 heartbeat IPC: 1.25223 cumulative IPC: 0.958111 (Simulation time: 0 hr 23 min 13 sec) 
Heartbeat CPU 0 instructions: 820000000 cycles: 735608657 heartbeat IPC: 0.922833 cumulative IPC: 0.957521 (Simulation time: 0 hr 23 min 31 sec) 
Heartbeat CPU 0 instructions: 830000000 cycles: 748625865 heartbeat IPC: 0.768214 cumulative IPC: 0.95379 (Simulation time: 0 hr 23 min 50 sec) 
Heartbeat CPU 0 instructions: 840000000 cycles: 761197957 heartbeat IPC: 0.795413 cumulative IPC: 0.950832 (Simulation time: 0 hr 24 min 8 sec) 
Heartbeat CPU 0 instructions: 850000000 cycles: 774177215 heartbeat IPC: 0.77046 cumulative IPC: 0.947419 (Simulation time: 0 hr 24 min 26 sec) 
Heartbeat CPU 0 instructions: 860000000 cycles: 786918293 heartbeat IPC: 0.784863 cumulative IPC: 0.944456 (Simulation time: 0 hr 24 min 45 sec) 
Heartbeat CPU 0 instructions: 870000000 cycles: 799805732 heartbeat IPC: 0.775949 cumulative IPC: 0.941404 (Simulation time: 0 hr 25 min 3 sec) 
Heartbeat CPU 0 instructions: 880000000 cycles: 808414606 heartbeat IPC: 1.16159 cumulative IPC: 0.944036 (Simulation time: 0 hr 25 min 26 sec) 
Heartbeat CPU 0 instructions: 890000000 cycles: 816576191 heartbeat IPC: 1.22525 cumulative IPC: 0.947187 (Simulation time: 0 hr 25 min 46 sec) 
Heartbeat CPU 0 instructions: 900000000 cycles: 825707916 heartbeat IPC: 1.09508 cumulative IPC: 0.949018 (Simulation time: 0 hr 26 min 6 sec) 
Heartbeat CPU 0 instructions: 910000002 cycles: 838495006 heartbeat IPC: 0.782039 cumulative IPC: 0.946172 (Simulation time: 0 hr 26 min 24 sec) 
Heartbeat CPU 0 instructions: 920000000 cycles: 851249949 heartbeat IPC: 0.78401 cumulative IPC: 0.943462 (Simulation time: 0 hr 26 min 42 sec) 
Heartbeat CPU 0 instructions: 930000001 cycles: 864035953 heartbeat IPC: 0.782105 cumulative IPC: 0.940803 (Simulation time: 0 hr 27 min 1 sec) 
Heartbeat CPU 0 instructions: 940000000 cycles: 876872225 heartbeat IPC: 0.779042 cumulative IPC: 0.93817 (Simulation time: 0 hr 27 min 19 sec) 
Heartbeat CPU 0 instructions: 950000002 cycles: 889707169 heartbeat IPC: 0.779123 cumulative IPC: 0.935624 (Simulation time: 0 hr 27 min 38 sec) 
Heartbeat CPU 0 instructions: 960000000 cycles: 900078942 heartbeat IPC: 0.964155 cumulative IPC: 0.935988 (Simulation time: 0 hr 27 min 59 sec) 
Heartbeat CPU 0 instructions: 970000002 cycles: 908232643 heartbeat IPC: 1.22644 cumulative IPC: 0.938876 (Simulation time: 0 hr 28 min 20 sec) 
Heartbeat CPU 0 instructions: 980000000 cycles: 916213325 heartbeat IPC: 1.25303 cumulative IPC: 0.941904 (Simulation time: 0 hr 28 min 39 sec) 
Heartbeat CPU 0 instructions: 990000003 cycles: 927889986 heartbeat IPC: 0.856409 cumulative IPC: 0.940715 (Simulation time: 0 hr 28 min 58 sec) 
Heartbeat CPU 0 instructions: 1000000000 cycles: 940868006 heartbeat IPC: 0.770533 cumulative IPC: 0.938125 (Simulation time: 0 hr 29 min 16 sec) 
Heartbeat CPU 0 instructions: 1010000000 cycles: 953441427 heartbeat IPC: 0.795328 cumulative IPC: 0.93605 (Simulation time: 0 hr 29 min 34 sec) 
Heartbeat CPU 0 instructions: 1020000000 cycles: 966280431 heartbeat IPC: 0.778877 cumulative IPC: 0.933752 (Simulation time: 0 hr 29 min 53 sec) 
Heartbeat CPU 0 instructions: 1030000003 cycles: 979086950 heartbeat IPC: 0.780853 cumulative IPC: 0.931554 (Simulation time: 0 hr 30 min 11 sec) 
Heartbeat CPU 0 instructions: 1040000000 cycles: 991652946 heartbeat IPC: 0.795798 cumulative IPC: 0.929666 (Simulation time: 0 hr 30 min 30 sec) 
Heartbeat CPU 0 instructions: 1050000001 cycles: 999943621 heartbeat IPC: 1.20617 cumulative IPC: 0.93218 (Simulation time: 0 hr 30 min 53 sec) 
Heartbeat CPU 0 instructions: 1060000000 cycles: 1007986740 heartbeat IPC: 1.2433 cumulative IPC: 0.934901 (Simulation time: 0 hr 31 min 12 sec) 
Heartbeat CPU 0 instructions: 1070000000 cycles: 1017722568 heartbeat IPC: 1.02713 cumulative IPC: 0.935867 (Simulation time: 0 hr 31 min 32 sec) 
Heartbeat CPU 0 instructions: 1080000000 cycles: 1030573445 heartbeat IPC: 0.778157 cumulative IPC: 0.933716 (Simulation time: 0 hr 31 min 50 sec) 
Heartbeat CPU 0 instructions: 1090000000 cycles: 1043046417 heartbeat IPC: 0.801734 cumulative IPC: 0.931992 (Simulation time: 0 hr 32 min 8 sec) 
Heartbeat CPU 0 instructions: 1100000000 cycles: 1055964365 heartbeat IPC: 0.774117 cumulative IPC: 0.929885 (Simulation time: 0 hr 32 min 27 sec) 
Heartbeat CPU 0 instructions: 1110000000 cycles: 1068732825 heartbeat IPC: 0.78318 cumulative IPC: 0.927975 (Simulation time: 0 hr 32 min 45 sec) 
Heartbeat CPU 0 instructions: 1120000000 cycles: 1081617993 heartbeat IPC: 0.776086 cumulative IPC: 0.926005 (Simulation time: 0 hr 33 min 3 sec) 
Heartbeat CPU 0 instructions: 1130000001 cycles: 1090935548 heartbeat IPC: 1.07324 cumulative IPC: 0.927373 (Simulation time: 0 hr 33 min 26 sec) 
Heartbeat CPU 0 instructions: 1140000000 cycles: 1098504547 heartbeat IPC: 1.32118 cumulative IPC: 0.930323 (Simulation time: 0 hr 33 min 45 sec) 
Heartbeat CPU 0 instructions: 1150000002 cycles: 1106859751 heartbeat IPC: 1.19686 cumulative IPC: 0.932509 (Simulation time: 0 hr 34 min 5 sec) 
Heartbeat CPU 0 instructions: 1160000000 cycles: 1119612003 heartbeat IPC: 0.784175 cumulative IPC: 0.930675 (Simulation time: 0 hr 34 min 23 sec) 
Heartbeat CPU 0 instructions: 1170000001 cycles: 1132313401 heartbeat IPC: 0.787315 cumulative IPC: 0.928932 (Simulation time: 0 hr 34 min 42 sec) 
Heartbeat CPU 0 instructions: 1180000000 cycles: 1145130434 heartbeat IPC: 0.780212 cumulative IPC: 0.927128 (Simulation time: 0 hr 35 min 0 sec) 
Heartbeat CPU 0 instructions: 1190000001 cycles: 1157787631 heartbeat IPC: 0.790064 cumulative IPC: 0.925506 (Simulation time: 0 hr 35 min 18 sec) 
Heartbeat CPU 0 instructions: 1200000000 cycles: 1169465193 heartbeat IPC: 0.856343 cumulative IPC: 0.92476 (Simulation time: 0 hr 35 min 38 sec) 
Finished CPU 0 instructions: 1000000001 cycles: 1081362186 cumulative IPC: 0.92476 (Simulation time: 0 hr 35 min 38 sec) 

CPU 0 Branch Prediction Accuracy: 92.3512% MPKI: 12.2202

ChampSim completed all CPUs

Region of Interest Statistics

CPU 0 cumulative IPC: 0.92476 instructions: 1000000001 cycles: 1081362186
L1D TOTAL     ACCESS:  247398692  HIT:  239149677  MISS:    8249015
L1D LOAD      ACCESS:  144230962  HIT:  136869935  MISS:    7361027
L1D RFO       ACCESS:  103167730  HIT:  102279742  MISS:     887988
L1D PREFETCH  ACCESS:          0  HIT:          0  MISS:          0
L1D WRITEBACK ACCESS:          0  HIT:          0  MISS:          0
L1D PREFETCH  REQUESTED:          0  ISSUED:          0  USEFUL:          0  USELESS:          0
L1I TOTAL     ACCESS:  207739383  HIT:  207739382  MISS:          1
L1I LOAD      ACCESS:  207739383  HIT:  207739382  MISS:          1
L1I RFO       ACCESS:          0  HIT:          0  MISS:          0
L1I PREFETCH  ACCESS:          0  HIT:          0  MISS:          0
L1I WRITEBACK ACCESS:          0  HIT:          0  MISS:          0
L1I PREFETCH  REQUESTED:          0  ISSUED:          0  USEFUL:          0  USELESS:          0
L2C TOTAL     ACCESS:    9793755  HIT:    3741388  MISS:    6052367
L2C LOAD      ACCESS:    7361014  HIT:    2043866  MISS:    5317148
L2C RFO       ACCESS:     887988  HIT:     154047  MISS:     733941
L2C PREFETCH  ACCESS:          0  HIT:          0  MISS:          0
L2C WRITEBACK ACCESS:    1544753  HIT:    1543475  MISS:       1278
L2C PREFETCH  REQUESTED:          0  ISSUED:          0  USEFUL:          0  USELESS:          0
LLC TOTAL     ACCESS:    7374326  HIT:    7194449  MISS:     179877
LLC LOAD      ACCESS:    5317146  HIT:    5284098  MISS:      33048
LLC RFO       ACCESS:     733935  HIT:     587106  MISS:     146829
LLC PREFETCH  ACCESS:          0  HIT:          0  MISS:          0
LLC WRITEBACK ACCESS:    1323245  HIT:    1323245  MISS:          0
LLC PREFETCH  REQUESTED:          0  ISSUED:          0  USEFUL:          0  USELESS:          0
Major fault: 0 Minor fault: 4162

DRAM Statistics
 CHANNEL 0
 RQ ROW_BUFFER_HIT:     141208  ROW_BUFFER_MISS:      38669
 DBUS_CONGESTED:     116736
 WQ ROW_BUFFER_HIT:      73898  ROW_BUFFER_MISS:      41020  FULL:          0

 AVG_CONGESTED_CYCLE: 14
