
*** ChampSim Multicore Out-of-Order Simulator ***

Warmup Instructions: 200000000
Simulation Instructions: 1000000000
Number of CPUs: 1
LLC sets: 8192
LLC ways: 16
Off-chip DRAM Size: 4096 MB Channels: 1 Width: 64-bit Data Rate: 1600 MT/s

CPU 0 runs /scratch/user/djimenez/champsim-traces/speccpu2006/xz/410.bwaves-1963B.champsimtrace.xz
Heartbeat CPU 0 instructions: 10000002 cycles: 6625063 heartbeat IPC: 1.50942 cumulative IPC: 1.50942 (Simulation time: 0 hr 0 min 26 sec) 
Heartbeat CPU 0 instructions: 20000000 cycles: 13248835 heartbeat IPC: 1.50971 cumulative IPC: 1.50957 (Simulation time: 0 hr 0 min 52 sec) 
Heartbeat CPU 0 instructions: 30000001 cycles: 19872803 heartbeat IPC: 1.50967 cumulative IPC: 1.5096 (Simulation time: 0 hr 1 min 17 sec) 
Heartbeat CPU 0 instructions: 40000000 cycles: 26496990 heartbeat IPC: 1.50962 cumulative IPC: 1.50961 (Simulation time: 0 hr 1 min 43 sec) 
Heartbeat CPU 0 instructions: 50000001 cycles: 33120880 heartbeat IPC: 1.50969 cumulative IPC: 1.50962 (Simulation time: 0 hr 2 min 8 sec) 
Heartbeat CPU 0 instructions: 60000000 cycles: 39744816 heartbeat IPC: 1.50968 cumulative IPC: 1.50963 (Simulation time: 0 hr 2 min 34 sec) 
Heartbeat CPU 0 instructions: 70000003 cycles: 46368895 heartbeat IPC: 1.50964 cumulative IPC: 1.50963 (Simulation time: 0 hr 3 min 0 sec) 
Heartbeat CPU 0 instructions: 80000000 cycles: 52992206 heartbeat IPC: 1.50982 cumulative IPC: 1.50966 (Simulation time: 0 hr 3 min 25 sec) 
Heartbeat CPU 0 instructions: 90000003 cycles: 59616463 heartbeat IPC: 1.5096 cumulative IPC: 1.50965 (Simulation time: 0 hr 3 min 51 sec) 
Heartbeat CPU 0 instructions: 100000000 cycles: 66239393 heartbeat IPC: 1.50991 cumulative IPC: 1.50968 (Simulation time: 0 hr 4 min 17 sec) 
Heartbeat CPU 0 instructions: 110000001 cycles: 72863035 heartbeat IPC: 1.50974 cumulative IPC: 1.50968 (Simulation time: 0 hr 4 min 43 sec) 
Heartbeat CPU 0 instructions: 120000000 cycles: 79487374 heartbeat IPC: 1.50958 cumulative IPC: 1.50967 (Simulation time: 0 hr 5 min 8 sec) 
Heartbeat CPU 0 instructions: 130000001 cycles: 86110575 heartbeat IPC: 1.50984 cumulative IPC: 1.50969 (Simulation time: 0 hr 5 min 34 sec) 
Heartbeat CPU 0 instructions: 140000000 cycles: 92734802 heartbeat IPC: 1.50961 cumulative IPC: 1.50968 (Simulation time: 0 hr 6 min 0 sec) 
Heartbeat CPU 0 instructions: 150000003 cycles: 99358864 heartbeat IPC: 1.50965 cumulative IPC: 1.50968 (Simulation time: 0 hr 6 min 25 sec) 
Heartbeat CPU 0 instructions: 160000000 cycles: 105982712 heartbeat IPC: 1.5097 cumulative IPC: 1.50968 (Simulation time: 0 hr 6 min 51 sec) 
Heartbeat CPU 0 instructions: 170000000 cycles: 112607363 heartbeat IPC: 1.50951 cumulative IPC: 1.50967 (Simulation time: 0 hr 7 min 16 sec) 
Heartbeat CPU 0 instructions: 180000000 cycles: 119230986 heartbeat IPC: 1.50975 cumulative IPC: 1.50967 (Simulation time: 0 hr 7 min 42 sec) 
Heartbeat CPU 0 instructions: 190000001 cycles: 125854648 heartbeat IPC: 1.50974 cumulative IPC: 1.50968 (Simulation time: 0 hr 8 min 8 sec) 
Heartbeat CPU 0 instructions: 200000000 cycles: 132478973 heartbeat IPC: 1.50959 cumulative IPC: 1.50967 (Simulation time: 0 hr 8 min 34 sec) 

Warmup complete CPU 0 instructions: 200000003 cycles: 132478985 (Simulation time: 0 hr 8 min 34 sec) 

Heartbeat CPU 0 instructions: 210000001 cycles: 147182618 heartbeat IPC: 0.680104 cumulative IPC: 0.680104 (Simulation time: 0 hr 9 min 7 sec) 
Heartbeat CPU 0 instructions: 220000000 cycles: 161922364 heartbeat IPC: 0.678438 cumulative IPC: 0.67927 (Simulation time: 0 hr 9 min 40 sec) 
Heartbeat CPU 0 instructions: 230000002 cycles: 176613253 heartbeat IPC: 0.680694 cumulative IPC: 0.679744 (Simulation time: 0 hr 10 min 13 sec) 
Heartbeat CPU 0 instructions: 240000000 cycles: 191307846 heartbeat IPC: 0.680522 cumulative IPC: 0.679938 (Simulation time: 0 hr 10 min 47 sec) 
Heartbeat CPU 0 instructions: 250000001 cycles: 206016689 heartbeat IPC: 0.679863 cumulative IPC: 0.679923 (Simulation time: 0 hr 11 min 20 sec) 
Heartbeat CPU 0 instructions: 260000000 cycles: 220784063 heartbeat IPC: 0.677168 cumulative IPC: 0.679463 (Simulation time: 0 hr 11 min 53 sec) 
Heartbeat CPU 0 instructions: 270000001 cycles: 235505977 heartbeat IPC: 0.67926 cumulative IPC: 0.679434 (Simulation time: 0 hr 12 min 27 sec) 
Heartbeat CPU 0 instructions: 280000000 cycles: 250134310 heartbeat IPC: 0.683605 cumulative IPC: 0.679952 (Simulation time: 0 hr 13 min 0 sec) 
Heartbeat CPU 0 instructions: 290000001 cycles: 264814738 heartbeat IPC: 0.681179 cumulative IPC: 0.680088 (Simulation time: 0 hr 13 min 33 sec) 
Heartbeat CPU 0 instructions: 300000000 cycles: 279549357 heartbeat IPC: 0.678674 cumulative IPC: 0.679947 (Simulation time: 0 hr 14 min 7 sec) 
Heartbeat CPU 0 instructions: 310000000 cycles: 294338739 heartbeat IPC: 0.676161 cumulative IPC: 0.679601 (Simulation time: 0 hr 14 min 40 sec) 
Heartbeat CPU 0 instructions: 320000000 cycles: 309101941 heartbeat IPC: 0.67736 cumulative IPC: 0.679413 (Simulation time: 0 hr 15 min 13 sec) 
Heartbeat CPU 0 instructions: 330000000 cycles: 323839583 heartbeat IPC: 0.678535 cumulative IPC: 0.679346 (Simulation time: 0 hr 15 min 47 sec) 
Heartbeat CPU 0 instructions: 340000000 cycles: 338574976 heartbeat IPC: 0.678638 cumulative IPC: 0.679295 (Simulation time: 0 hr 16 min 20 sec) 
Heartbeat CPU 0 instructions: 350000002 cycles: 358283079 heartbeat IPC: 0.507406 cumulative IPC: 0.664293 (Simulation time: 0 hr 16 min 51 sec) 
Heartbeat CPU 0 instructions: 360000000 cycles: 380775121 heartbeat IPC: 0.444602 cumulative IPC: 0.644392 (Simulation time: 0 hr 17 min 20 sec) 
Heartbeat CPU 0 instructions: 370000002 cycles: 399689731 heartbeat IPC: 0.528692 cumulative IPC: 0.636202 (Simulation time: 0 hr 17 min 48 sec) 
Heartbeat CPU 0 instructions: 380000000 cycles: 419720967 heartbeat IPC: 0.49922 cumulative IPC: 0.626649 (Simulation time: 0 hr 18 min 20 sec) 
Heartbeat CPU 0 instructions: 390000000 cycles: 435636952 heartbeat IPC: 0.628299 cumulative IPC: 0.626736 (Simulation time: 0 hr 18 min 54 sec) 
Heartbeat CPU 0 instructions: 400000000 cycles: 450648960 heartbeat IPC: 0.666133 cumulative IPC: 0.628595 (Simulation time: 0 hr 19 min 28 sec) 
Heartbeat CPU 0 instructions: 410000001 cycles: 465585522 heartbeat IPC: 0.669498 cumulative IPC: 0.630429 (Simulation time: 0 hr 20 min 1 sec) 
Heartbeat CPU 0 instructions: 420000000 cycles: 480427258 heartbeat IPC: 0.673776 cumulative IPC: 0.632278 (Simulation time: 0 hr 20 min 34 sec) 
Heartbeat CPU 0 instructions: 430000002 cycles: 495361061 heartbeat IPC: 0.669622 cumulative IPC: 0.633815 (Simulation time: 0 hr 21 min 8 sec) 
Heartbeat CPU 0 instructions: 440000000 cycles: 510212893 heartbeat IPC: 0.673317 cumulative IPC: 0.635368 (Simulation time: 0 hr 21 min 41 sec) 
Heartbeat CPU 0 instructions: 450000001 cycles: 525078961 heartbeat IPC: 0.672673 cumulative IPC: 0.636781 (Simulation time: 0 hr 22 min 15 sec) 
Heartbeat CPU 0 instructions: 460000000 cycles: 539998336 heartbeat IPC: 0.670269 cumulative IPC: 0.638007 (Simulation time: 0 hr 22 min 48 sec) 
Heartbeat CPU 0 instructions: 470000000 cycles: 554908775 heartbeat IPC: 0.670671 cumulative IPC: 0.639159 (Simulation time: 0 hr 23 min 22 sec) 
Heartbeat CPU 0 instructions: 480000000 cycles: 569865854 heartbeat IPC: 0.66858 cumulative IPC: 0.640166 (Simulation time: 0 hr 23 min 55 sec) 
Heartbeat CPU 0 instructions: 490000001 cycles: 584838611 heartbeat IPC: 0.66788 cumulative IPC: 0.641083 (Simulation time: 0 hr 24 min 29 sec) 
Heartbeat CPU 0 instructions: 500000000 cycles: 599768945 heartbeat IPC: 0.669777 cumulative IPC: 0.642 (Simulation time: 0 hr 25 min 2 sec) 
Heartbeat CPU 0 instructions: 510000001 cycles: 614627636 heartbeat IPC: 0.673007 cumulative IPC: 0.642955 (Simulation time: 0 hr 25 min 35 sec) 
Heartbeat CPU 0 instructions: 520000000 cycles: 629560317 heartbeat IPC: 0.669672 cumulative IPC: 0.643758 (Simulation time: 0 hr 26 min 9 sec) 
Heartbeat CPU 0 instructions: 530000001 cycles: 644546289 heartbeat IPC: 0.667291 cumulative IPC: 0.644447 (Simulation time: 0 hr 26 min 42 sec) 
Heartbeat CPU 0 instructions: 540000000 cycles: 659458370 heartbeat IPC: 0.670597 cumulative IPC: 0.645187 (Simulation time: 0 hr 27 min 16 sec) 
Heartbeat CPU 0 instructions: 550000002 cycles: 674485576 heartbeat IPC: 0.66546 cumulative IPC: 0.645749 (Simulation time: 0 hr 27 min 49 sec) 
Heartbeat CPU 0 instructions: 560000000 cycles: 689386749 heartbeat IPC: 0.671088 cumulative IPC: 0.646427 (Simulation time: 0 hr 28 min 23 sec) 
Heartbeat CPU 0 instructions: 570000000 cycles: 704466560 heartbeat IPC: 0.663138 cumulative IPC: 0.646867 (Simulation time: 0 hr 28 min 56 sec) 
Heartbeat CPU 0 instructions: 580000000 cycles: 719330302 heartbeat IPC: 0.672778 cumulative IPC: 0.647523 (Simulation time: 0 hr 29 min 30 sec) 
Heartbeat CPU 0 instructions: 590000000 cycles: 734153722 heartbeat IPC: 0.674608 cumulative IPC: 0.648191 (Simulation time: 0 hr 30 min 3 sec) 
Heartbeat CPU 0 instructions: 600000000 cycles: 749062448 heartbeat IPC: 0.670748 cumulative IPC: 0.648736 (Simulation time: 0 hr 30 min 37 sec) 
Heartbeat CPU 0 instructions: 610000000 cycles: 764018741 heartbeat IPC: 0.668615 cumulative IPC: 0.649207 (Simulation time: 0 hr 31 min 10 sec) 
Heartbeat CPU 0 instructions: 620000000 cycles: 778900001 heartbeat IPC: 0.671986 cumulative IPC: 0.649731 (Simulation time: 0 hr 31 min 43 sec) 
Heartbeat CPU 0 instructions: 630000002 cycles: 793802630 heartbeat IPC: 0.671023 cumulative IPC: 0.650211 (Simulation time: 0 hr 32 min 17 sec) 
Heartbeat CPU 0 instructions: 640000000 cycles: 808679886 heartbeat IPC: 0.672167 cumulative IPC: 0.650694 (Simulation time: 0 hr 32 min 50 sec) 
Heartbeat CPU 0 instructions: 650000000 cycles: 823633328 heartbeat IPC: 0.668742 cumulative IPC: 0.651085 (Simulation time: 0 hr 33 min 24 sec) 
Heartbeat CPU 0 instructions: 660000000 cycles: 838520869 heartbeat IPC: 0.671703 cumulative IPC: 0.651519 (Simulation time: 0 hr 33 min 57 sec) 
Heartbeat CPU 0 instructions: 670000003 cycles: 853387791 heartbeat IPC: 0.672634 cumulative IPC: 0.651955 (Simulation time: 0 hr 34 min 31 sec) 
Heartbeat CPU 0 instructions: 680000000 cycles: 868311895 heartbeat IPC: 0.670057 cumulative IPC: 0.652322 (Simulation time: 0 hr 35 min 4 sec) 
Heartbeat CPU 0 instructions: 690000003 cycles: 883241839 heartbeat IPC: 0.669795 cumulative IPC: 0.652669 (Simulation time: 0 hr 35 min 38 sec) 
Heartbeat CPU 0 instructions: 700000000 cycles: 898221394 heartbeat IPC: 0.667576 cumulative IPC: 0.652961 (Simulation time: 0 hr 36 min 11 sec) 
Heartbeat CPU 0 instructions: 710000001 cycles: 913154067 heartbeat IPC: 0.669673 cumulative IPC: 0.653281 (Simulation time: 0 hr 36 min 44 sec) 
Heartbeat CPU 0 instructions: 720000000 cycles: 928091963 heartbeat IPC: 0.669438 cumulative IPC: 0.653584 (Simulation time: 0 hr 37 min 18 sec) 
Heartbeat CPU 0 instructions: 730000001 cycles: 943014763 heartbeat IPC: 0.670116 cumulative IPC: 0.653888 (Simulation time: 0 hr 37 min 51 sec) 
Heartbeat CPU 0 instructions: 740000000 cycles: 959543232 heartbeat IPC: 0.605017 cumulative IPC: 0.652912 (Simulation time: 0 hr 38 min 21 sec) 
Heartbeat CPU 0 instructions: 750000003 cycles: 980267346 heartbeat IPC: 0.48253 cumulative IPC: 0.648747 (Simulation time: 0 hr 38 min 48 sec) 
Heartbeat CPU 0 instructions: 760000000 cycles: 1002054590 heartbeat IPC: 0.458984 cumulative IPC: 0.643992 (Simulation time: 0 hr 39 min 18 sec) 
Heartbeat CPU 0 instructions: 770000001 cycles: 1027177398 heartbeat IPC: 0.398045 cumulative IPC: 0.637086 (Simulation time: 0 hr 39 min 51 sec) 
Heartbeat CPU 0 instructions: 780000000 cycles: 1051901974 heartbeat IPC: 0.404456 cumulative IPC: 0.63083 (Simulation time: 0 hr 40 min 25 sec) 
Heartbeat CPU 0 instructions: 790000000 cycles: 1073811270 heartbeat IPC: 0.456427 cumulative IPC: 0.626771 (Simulation time: 0 hr 40 min 54 sec) 
Heartbeat CPU 0 instructions: 800000000 cycles: 1090817810 heartbeat IPC: 0.588009 cumulative IPC: 0.626083 (Simulation time: 0 hr 41 min 19 sec) 
Heartbeat CPU 0 instructions: 810000000 cycles: 1113607500 heartbeat IPC: 0.438795 cumulative IPC: 0.621733 (Simulation time: 0 hr 41 min 47 sec) 
Heartbeat CPU 0 instructions: 820000000 cycles: 1135413343 heartbeat IPC: 0.458593 cumulative IPC: 0.618186 (Simulation time: 0 hr 42 min 17 sec) 
Heartbeat CPU 0 instructions: 830000000 cycles: 1159611837 heartbeat IPC: 0.413249 cumulative IPC: 0.613358 (Simulation time: 0 hr 42 min 48 sec) 
Heartbeat CPU 0 instructions: 840000000 cycles: 1179849438 heartbeat IPC: 0.49413 cumulative IPC: 0.611054 (Simulation time: 0 hr 43 min 22 sec) 
Heartbeat CPU 0 instructions: 850000002 cycles: 1195128668 heartbeat IPC: 0.654483 cumulative IPC: 0.611679 (Simulation time: 0 hr 43 min 55 sec) 
Heartbeat CPU 0 instructions: 860000000 cycles: 1209854512 heartbeat IPC: 0.679078 cumulative IPC: 0.6126 (Simulation time: 0 hr 44 min 29 sec) 
Heartbeat CPU 0 instructions: 870000001 cycles: 1224628996 heartbeat IPC: 0.676843 cumulative IPC: 0.613469 (Simulation time: 0 hr 45 min 2 sec) 
Heartbeat CPU 0 instructions: 880000000 cycles: 1239317639 heartbeat IPC: 0.680798 cumulative IPC: 0.614362 (Simulation time: 0 hr 45 min 35 sec) 
Heartbeat CPU 0 instructions: 890000002 cycles: 1254029095 heartbeat IPC: 0.679743 cumulative IPC: 0.61522 (Simulation time: 0 hr 46 min 9 sec) 
Heartbeat CPU 0 instructions: 900000000 cycles: 1268698640 heartbeat IPC: 0.681684 cumulative IPC: 0.616078 (Simulation time: 0 hr 46 min 42 sec) 
Heartbeat CPU 0 instructions: 910000001 cycles: 1283354243 heartbeat IPC: 0.682333 cumulative IPC: 0.616922 (Simulation time: 0 hr 47 min 15 sec) 
Heartbeat CPU 0 instructions: 920000000 cycles: 1298078775 heartbeat IPC: 0.679139 cumulative IPC: 0.617708 (Simulation time: 0 hr 47 min 49 sec) 
Heartbeat CPU 0 instructions: 930000000 cycles: 1312844269 heartbeat IPC: 0.677255 cumulative IPC: 0.618453 (Simulation time: 0 hr 48 min 22 sec) 
Heartbeat CPU 0 instructions: 940000000 cycles: 1327603653 heartbeat IPC: 0.677535 cumulative IPC: 0.619182 (Simulation time: 0 hr 48 min 55 sec) 
Heartbeat CPU 0 instructions: 950000001 cycles: 1342382322 heartbeat IPC: 0.676651 cumulative IPC: 0.619884 (Simulation time: 0 hr 49 min 29 sec) 
Heartbeat CPU 0 instructions: 960000000 cycles: 1357092711 heartbeat IPC: 0.679792 cumulative IPC: 0.620604 (Simulation time: 0 hr 50 min 2 sec) 
Heartbeat CPU 0 instructions: 970000003 cycles: 1371770540 heartbeat IPC: 0.6813 cumulative IPC: 0.621323 (Simulation time: 0 hr 50 min 35 sec) 
Heartbeat CPU 0 instructions: 980000000 cycles: 1386433717 heartbeat IPC: 0.68198 cumulative IPC: 0.622032 (Simulation time: 0 hr 51 min 9 sec) 
Heartbeat CPU 0 instructions: 990000001 cycles: 1401146855 heartbeat IPC: 0.679665 cumulative IPC: 0.6227 (Simulation time: 0 hr 51 min 42 sec) 
Heartbeat CPU 0 instructions: 1000000000 cycles: 1415750195 heartbeat IPC: 0.684775 cumulative IPC: 0.623407 (Simulation time: 0 hr 52 min 15 sec) 
Heartbeat CPU 0 instructions: 1010000002 cycles: 1430456823 heartbeat IPC: 0.679966 cumulative IPC: 0.624048 (Simulation time: 0 hr 52 min 49 sec) 
Heartbeat CPU 0 instructions: 1020000000 cycles: 1445170701 heartbeat IPC: 0.67963 cumulative IPC: 0.624671 (Simulation time: 0 hr 53 min 22 sec) 
Heartbeat CPU 0 instructions: 1030000000 cycles: 1459915689 heartbeat IPC: 0.678197 cumulative IPC: 0.625265 (Simulation time: 0 hr 53 min 55 sec) 
Heartbeat CPU 0 instructions: 1040000000 cycles: 1474560286 heartbeat IPC: 0.682846 cumulative IPC: 0.625894 (Simulation time: 0 hr 54 min 29 sec) 
Heartbeat CPU 0 instructions: 1050000003 cycles: 1489222167 heartbeat IPC: 0.682041 cumulative IPC: 0.6265 (Simulation time: 0 hr 55 min 2 sec) 
Heartbeat CPU 0 instructions: 1060000000 cycles: 1503909701 heartbeat IPC: 0.680849 cumulative IPC: 0.627082 (Simulation time: 0 hr 55 min 35 sec) 
Heartbeat CPU 0 instructions: 1070000000 cycles: 1518657295 heartbeat IPC: 0.678077 cumulative IPC: 0.627625 (Simulation time: 0 hr 56 min 9 sec) 
Heartbeat CPU 0 instructions: 1080000000 cycles: 1533328790 heartbeat IPC: 0.681594 cumulative IPC: 0.62819 (Simulation time: 0 hr 56 min 42 sec) 
Heartbeat CPU 0 instructions: 1090000001 cycles: 1548031551 heartbeat IPC: 0.680144 cumulative IPC: 0.62873 (Simulation time: 0 hr 57 min 16 sec) 
Heartbeat CPU 0 instructions: 1100000000 cycles: 1562727503 heartbeat IPC: 0.680459 cumulative IPC: 0.629261 (Simulation time: 0 hr 57 min 49 sec) 
Heartbeat CPU 0 instructions: 1110000000 cycles: 1577506468 heartbeat IPC: 0.676637 cumulative IPC: 0.629746 (Simulation time: 0 hr 58 min 22 sec) 
Heartbeat CPU 0 instructions: 1120000000 cycles: 1592232178 heartbeat IPC: 0.679084 cumulative IPC: 0.630244 (Simulation time: 0 hr 58 min 56 sec) 
Heartbeat CPU 0 instructions: 1130000003 cycles: 1606863316 heartbeat IPC: 0.683474 cumulative IPC: 0.630772 (Simulation time: 0 hr 59 min 29 sec) 
Heartbeat CPU 0 instructions: 1140000000 cycles: 1621545151 heartbeat IPC: 0.681114 cumulative IPC: 0.631268 (Simulation time: 1 hr 0 min 2 sec) 
Heartbeat CPU 0 instructions: 1150000000 cycles: 1636264530 heartbeat IPC: 0.679376 cumulative IPC: 0.631739 (Simulation time: 1 hr 0 min 36 sec) 
Heartbeat CPU 0 instructions: 1160000000 cycles: 1651063714 heartbeat IPC: 0.675713 cumulative IPC: 0.632168 (Simulation time: 1 hr 1 min 9 sec) 
Heartbeat CPU 0 instructions: 1170000003 cycles: 1665828271 heartbeat IPC: 0.677298 cumulative IPC: 0.632602 (Simulation time: 1 hr 1 min 43 sec) 
Heartbeat CPU 0 instructions: 1180000000 cycles: 1680553391 heartbeat IPC: 0.679111 cumulative IPC: 0.633044 (Simulation time: 1 hr 2 min 16 sec) 
Heartbeat CPU 0 instructions: 1190000002 cycles: 1695275958 heartbeat IPC: 0.679229 cumulative IPC: 0.63348 (Simulation time: 1 hr 2 min 49 sec) 
Heartbeat CPU 0 instructions: 1200000000 cycles: 1715327607 heartbeat IPC: 0.498712 cumulative IPC: 0.631772 (Simulation time: 1 hr 3 min 20 sec) 
Finished CPU 0 instructions: 1000000002 cycles: 1582848636 cumulative IPC: 0.631772 (Simulation time: 1 hr 3 min 20 sec) 

CPU 0 Branch Prediction Accuracy: 98.2805% MPKI: 0.690965

ChampSim completed all CPUs

Region of Interest Statistics

CPU 0 cumulative IPC: 0.631772 instructions: 1000000002 cycles: 1582848636
L1D TOTAL     ACCESS:  445106764  HIT:  424680895  MISS:   20425869
L1D LOAD      ACCESS:  375215694  HIT:  355270209  MISS:   19945485
L1D RFO       ACCESS:   69891070  HIT:   69410686  MISS:     480384
L1D PREFETCH  ACCESS:          0  HIT:          0  MISS:          0
L1D WRITEBACK ACCESS:          0  HIT:          0  MISS:          0
L1D PREFETCH  REQUESTED:          0  ISSUED:          0  USEFUL:          0  USELESS:          0
L1I TOTAL     ACCESS:  241781352  HIT:  241781264  MISS:         88
L1I LOAD      ACCESS:  241781352  HIT:  241781264  MISS:         88
L1I RFO       ACCESS:          0  HIT:          0  MISS:          0
L1I PREFETCH  ACCESS:          0  HIT:          0  MISS:          0
L1I WRITEBACK ACCESS:          0  HIT:          0  MISS:          0
L1I PREFETCH  REQUESTED:          0  ISSUED:          0  USEFUL:          0  USELESS:          0
L2C TOTAL     ACCESS:   21656504  HIT:    2968604  MISS:   18687900
L2C LOAD      ACCESS:   19940621  HIT:    1666447  MISS:   18274174
L2C RFO       ACCESS:     475322  HIT:      69480  MISS:     405842
L2C PREFETCH  ACCESS:          0  HIT:          0  MISS:          0
L2C WRITEBACK ACCESS:    1240561  HIT:    1232677  MISS:       7884
L2C PREFETCH  REQUESTED:          0  ISSUED:          0  USEFUL:          0  USELESS:          0
LLC TOTAL     ACCESS:   19770163  HIT:    1890754  MISS:   17879409
LLC LOAD      ACCESS:   18274174  HIT:     801358  MISS:   17472816
LLC RFO       ACCESS:     405842  HIT:          0  MISS:     405842
LLC PREFETCH  ACCESS:          0  HIT:          0  MISS:          0
LLC WRITEBACK ACCESS:    1090147  HIT:    1089396  MISS:        751
LLC PREFETCH  REQUESTED:          0  ISSUED:          0  USEFUL:          0  USELESS:          0
Major fault: 0 Minor fault: 108280

DRAM Statistics
 CHANNEL 0
 RQ ROW_BUFFER_HIT:   16590994  ROW_BUFFER_MISS:    1287624
 DBUS_CONGESTED:    3569347
 WQ ROW_BUFFER_HIT:     590175  ROW_BUFFER_MISS:     495689  FULL:          0

 AVG_CONGESTED_CYCLE: 11
