
*** ChampSim Multicore Out-of-Order Simulator ***

Warmup Instructions: 200000000
Simulation Instructions: 1000000000
Number of CPUs: 1
LLC sets: 8192
LLC ways: 16
Off-chip DRAM Size: 4096 MB Channels: 1 Width: 64-bit Data Rate: 1600 MT/s

CPU 0 runs /scratch/user/djimenez/champsim-traces/speccpu2006/xz/456.hmmer-327B.champsimtrace.xz
Heartbeat CPU 0 instructions: 10000002 cycles: 6251457 heartbeat IPC: 1.59963 cumulative IPC: 1.59963 (Simulation time: 0 hr 0 min 25 sec) 
Heartbeat CPU 0 instructions: 20000000 cycles: 12483790 heartbeat IPC: 1.60454 cumulative IPC: 1.60208 (Simulation time: 0 hr 0 min 50 sec) 
Heartbeat CPU 0 instructions: 30000000 cycles: 18718363 heartbeat IPC: 1.60396 cumulative IPC: 1.6027 (Simulation time: 0 hr 1 min 15 sec) 
Heartbeat CPU 0 instructions: 40000000 cycles: 24965896 heartbeat IPC: 1.60063 cumulative IPC: 1.60219 (Simulation time: 0 hr 1 min 40 sec) 
Heartbeat CPU 0 instructions: 50000000 cycles: 31212900 heartbeat IPC: 1.60077 cumulative IPC: 1.6019 (Simulation time: 0 hr 2 min 5 sec) 
Heartbeat CPU 0 instructions: 60000000 cycles: 37456822 heartbeat IPC: 1.60156 cumulative IPC: 1.60184 (Simulation time: 0 hr 2 min 30 sec) 
Heartbeat CPU 0 instructions: 70000002 cycles: 43703844 heartbeat IPC: 1.60076 cumulative IPC: 1.60169 (Simulation time: 0 hr 2 min 55 sec) 
Heartbeat CPU 0 instructions: 80000000 cycles: 49947345 heartbeat IPC: 1.60167 cumulative IPC: 1.60169 (Simulation time: 0 hr 3 min 20 sec) 
Heartbeat CPU 0 instructions: 90000002 cycles: 56186916 heartbeat IPC: 1.60267 cumulative IPC: 1.6018 (Simulation time: 0 hr 3 min 45 sec) 
Heartbeat CPU 0 instructions: 100000000 cycles: 62431435 heartbeat IPC: 1.6014 cumulative IPC: 1.60176 (Simulation time: 0 hr 4 min 10 sec) 
Heartbeat CPU 0 instructions: 110000001 cycles: 68678946 heartbeat IPC: 1.60064 cumulative IPC: 1.60166 (Simulation time: 0 hr 4 min 35 sec) 
Heartbeat CPU 0 instructions: 120000000 cycles: 74924255 heartbeat IPC: 1.6012 cumulative IPC: 1.60162 (Simulation time: 0 hr 5 min 0 sec) 
Heartbeat CPU 0 instructions: 130000001 cycles: 81161394 heartbeat IPC: 1.6033 cumulative IPC: 1.60175 (Simulation time: 0 hr 5 min 26 sec) 
Heartbeat CPU 0 instructions: 140000000 cycles: 87394253 heartbeat IPC: 1.6044 cumulative IPC: 1.60194 (Simulation time: 0 hr 5 min 50 sec) 
Heartbeat CPU 0 instructions: 150000001 cycles: 93641897 heartbeat IPC: 1.6006 cumulative IPC: 1.60185 (Simulation time: 0 hr 6 min 15 sec) 
Heartbeat CPU 0 instructions: 160000000 cycles: 99879541 heartbeat IPC: 1.60317 cumulative IPC: 1.60193 (Simulation time: 0 hr 6 min 40 sec) 
Heartbeat CPU 0 instructions: 170000000 cycles: 106124073 heartbeat IPC: 1.6014 cumulative IPC: 1.6019 (Simulation time: 0 hr 7 min 5 sec) 
Heartbeat CPU 0 instructions: 180000000 cycles: 112338365 heartbeat IPC: 1.60919 cumulative IPC: 1.6023 (Simulation time: 0 hr 7 min 30 sec) 
Heartbeat CPU 0 instructions: 190000000 cycles: 118592472 heartbeat IPC: 1.59895 cumulative IPC: 1.60213 (Simulation time: 0 hr 7 min 55 sec) 
Heartbeat CPU 0 instructions: 200000000 cycles: 124842489 heartbeat IPC: 1.6 cumulative IPC: 1.60202 (Simulation time: 0 hr 8 min 20 sec) 

Warmup complete CPU 0 instructions: 200000001 cycles: 124842491 (Simulation time: 0 hr 8 min 20 sec) 

Heartbeat CPU 0 instructions: 210000000 cycles: 134272519 heartbeat IPC: 1.06044 cumulative IPC: 1.06044 (Simulation time: 0 hr 8 min 51 sec) 
Heartbeat CPU 0 instructions: 220000000 cycles: 143399221 heartbeat IPC: 1.09569 cumulative IPC: 1.07778 (Simulation time: 0 hr 9 min 21 sec) 
Heartbeat CPU 0 instructions: 230000003 cycles: 152172101 heartbeat IPC: 1.13988 cumulative IPC: 1.09771 (Simulation time: 0 hr 9 min 51 sec) 
Heartbeat CPU 0 instructions: 240000000 cycles: 161022411 heartbeat IPC: 1.1299 cumulative IPC: 1.10559 (Simulation time: 0 hr 10 min 21 sec) 
Heartbeat CPU 0 instructions: 250000002 cycles: 169783191 heartbeat IPC: 1.14145 cumulative IPC: 1.11258 (Simulation time: 0 hr 10 min 50 sec) 
Heartbeat CPU 0 instructions: 260000000 cycles: 178625117 heartbeat IPC: 1.13098 cumulative IPC: 1.1156 (Simulation time: 0 hr 11 min 20 sec) 
Heartbeat CPU 0 instructions: 270000000 cycles: 187467405 heartbeat IPC: 1.13093 cumulative IPC: 1.11777 (Simulation time: 0 hr 11 min 50 sec) 
Heartbeat CPU 0 instructions: 280000000 cycles: 196249842 heartbeat IPC: 1.13864 cumulative IPC: 1.12033 (Simulation time: 0 hr 12 min 20 sec) 
Heartbeat CPU 0 instructions: 290000002 cycles: 205104189 heartbeat IPC: 1.12939 cumulative IPC: 1.12133 (Simulation time: 0 hr 12 min 49 sec) 
Heartbeat CPU 0 instructions: 300000000 cycles: 213889479 heartbeat IPC: 1.13827 cumulative IPC: 1.123 (Simulation time: 0 hr 13 min 19 sec) 
Heartbeat CPU 0 instructions: 310000001 cycles: 222735781 heartbeat IPC: 1.13042 cumulative IPC: 1.12367 (Simulation time: 0 hr 13 min 49 sec) 
Heartbeat CPU 0 instructions: 320000000 cycles: 231506278 heartbeat IPC: 1.14019 cumulative IPC: 1.12503 (Simulation time: 0 hr 14 min 19 sec) 
Heartbeat CPU 0 instructions: 330000002 cycles: 240338888 heartbeat IPC: 1.13217 cumulative IPC: 1.12558 (Simulation time: 0 hr 14 min 48 sec) 
Heartbeat CPU 0 instructions: 340000000 cycles: 249107264 heartbeat IPC: 1.14046 cumulative IPC: 1.12663 (Simulation time: 0 hr 15 min 18 sec) 
Heartbeat CPU 0 instructions: 350000003 cycles: 257953626 heartbeat IPC: 1.13041 cumulative IPC: 1.12688 (Simulation time: 0 hr 15 min 48 sec) 
Heartbeat CPU 0 instructions: 360000000 cycles: 266724017 heartbeat IPC: 1.1402 cumulative IPC: 1.1277 (Simulation time: 0 hr 16 min 17 sec) 
Heartbeat CPU 0 instructions: 370000001 cycles: 275572185 heartbeat IPC: 1.13018 cumulative IPC: 1.12785 (Simulation time: 0 hr 16 min 47 sec) 
Heartbeat CPU 0 instructions: 380000000 cycles: 284344143 heartbeat IPC: 1.14 cumulative IPC: 1.12852 (Simulation time: 0 hr 17 min 17 sec) 
Heartbeat CPU 0 instructions: 390000000 cycles: 293192345 heartbeat IPC: 1.13017 cumulative IPC: 1.1286 (Simulation time: 0 hr 17 min 47 sec) 
Heartbeat CPU 0 instructions: 400000000 cycles: 302009770 heartbeat IPC: 1.13412 cumulative IPC: 1.12888 (Simulation time: 0 hr 18 min 16 sec) 
Heartbeat CPU 0 instructions: 410000000 cycles: 310833450 heartbeat IPC: 1.13331 cumulative IPC: 1.12909 (Simulation time: 0 hr 18 min 46 sec) 
Heartbeat CPU 0 instructions: 420000000 cycles: 319622820 heartbeat IPC: 1.13774 cumulative IPC: 1.12948 (Simulation time: 0 hr 19 min 16 sec) 
Heartbeat CPU 0 instructions: 430000002 cycles: 328443485 heartbeat IPC: 1.1337 cumulative IPC: 1.12966 (Simulation time: 0 hr 19 min 45 sec) 
Heartbeat CPU 0 instructions: 440000000 cycles: 337260802 heartbeat IPC: 1.13413 cumulative IPC: 1.12985 (Simulation time: 0 hr 20 min 15 sec) 
Heartbeat CPU 0 instructions: 450000001 cycles: 346107500 heartbeat IPC: 1.13037 cumulative IPC: 1.12987 (Simulation time: 0 hr 20 min 45 sec) 
Heartbeat CPU 0 instructions: 460000000 cycles: 354877396 heartbeat IPC: 1.14026 cumulative IPC: 1.13026 (Simulation time: 0 hr 21 min 15 sec) 
Heartbeat CPU 0 instructions: 470000001 cycles: 363699620 heartbeat IPC: 1.1335 cumulative IPC: 1.13038 (Simulation time: 0 hr 21 min 44 sec) 
Heartbeat CPU 0 instructions: 480000000 cycles: 372525996 heartbeat IPC: 1.13297 cumulative IPC: 1.13047 (Simulation time: 0 hr 22 min 14 sec) 
Heartbeat CPU 0 instructions: 490000000 cycles: 381365895 heartbeat IPC: 1.13123 cumulative IPC: 1.1305 (Simulation time: 0 hr 22 min 44 sec) 
Heartbeat CPU 0 instructions: 500000000 cycles: 390125989 heartbeat IPC: 1.14154 cumulative IPC: 1.13087 (Simulation time: 0 hr 23 min 13 sec) 
Heartbeat CPU 0 instructions: 510000002 cycles: 398962787 heartbeat IPC: 1.13163 cumulative IPC: 1.13089 (Simulation time: 0 hr 23 min 43 sec) 
Heartbeat CPU 0 instructions: 520000000 cycles: 407732483 heartbeat IPC: 1.14029 cumulative IPC: 1.13118 (Simulation time: 0 hr 24 min 13 sec) 
Heartbeat CPU 0 instructions: 530000003 cycles: 416588121 heartbeat IPC: 1.12922 cumulative IPC: 1.13112 (Simulation time: 0 hr 24 min 43 sec) 
Heartbeat CPU 0 instructions: 540000000 cycles: 425350401 heartbeat IPC: 1.14126 cumulative IPC: 1.13142 (Simulation time: 0 hr 25 min 12 sec) 
Heartbeat CPU 0 instructions: 550000001 cycles: 434192976 heartbeat IPC: 1.13089 cumulative IPC: 1.1314 (Simulation time: 0 hr 25 min 42 sec) 
Heartbeat CPU 0 instructions: 560000000 cycles: 442958820 heartbeat IPC: 1.14079 cumulative IPC: 1.13166 (Simulation time: 0 hr 26 min 12 sec) 
Heartbeat CPU 0 instructions: 570000001 cycles: 451799751 heartbeat IPC: 1.1311 cumulative IPC: 1.13165 (Simulation time: 0 hr 26 min 41 sec) 
Heartbeat CPU 0 instructions: 580000000 cycles: 460630930 heartbeat IPC: 1.13235 cumulative IPC: 1.13166 (Simulation time: 0 hr 27 min 11 sec) 
Heartbeat CPU 0 instructions: 590000000 cycles: 469397514 heartbeat IPC: 1.1407 cumulative IPC: 1.13189 (Simulation time: 0 hr 27 min 41 sec) 
Heartbeat CPU 0 instructions: 600000000 cycles: 478225027 heartbeat IPC: 1.13282 cumulative IPC: 1.13192 (Simulation time: 0 hr 28 min 11 sec) 
Heartbeat CPU 0 instructions: 610000000 cycles: 487049422 heartbeat IPC: 1.13322 cumulative IPC: 1.13195 (Simulation time: 0 hr 28 min 40 sec) 
Heartbeat CPU 0 instructions: 620000000 cycles: 495818904 heartbeat IPC: 1.14032 cumulative IPC: 1.13215 (Simulation time: 0 hr 29 min 10 sec) 
Heartbeat CPU 0 instructions: 630000002 cycles: 504656855 heartbeat IPC: 1.13148 cumulative IPC: 1.13213 (Simulation time: 0 hr 29 min 40 sec) 
Heartbeat CPU 0 instructions: 640000000 cycles: 513418255 heartbeat IPC: 1.14137 cumulative IPC: 1.13234 (Simulation time: 0 hr 30 min 10 sec) 
Heartbeat CPU 0 instructions: 650000000 cycles: 522244923 heartbeat IPC: 1.13293 cumulative IPC: 1.13235 (Simulation time: 0 hr 30 min 39 sec) 
Heartbeat CPU 0 instructions: 660000000 cycles: 531081847 heartbeat IPC: 1.13162 cumulative IPC: 1.13234 (Simulation time: 0 hr 31 min 9 sec) 
Heartbeat CPU 0 instructions: 670000003 cycles: 539857073 heartbeat IPC: 1.13957 cumulative IPC: 1.13249 (Simulation time: 0 hr 31 min 39 sec) 
Heartbeat CPU 0 instructions: 680000000 cycles: 548673501 heartbeat IPC: 1.13425 cumulative IPC: 1.13253 (Simulation time: 0 hr 32 min 8 sec) 
Heartbeat CPU 0 instructions: 690000000 cycles: 557523855 heartbeat IPC: 1.1299 cumulative IPC: 1.13247 (Simulation time: 0 hr 32 min 38 sec) 
Heartbeat CPU 0 instructions: 700000000 cycles: 566289900 heartbeat IPC: 1.14077 cumulative IPC: 1.13264 (Simulation time: 0 hr 33 min 8 sec) 
Heartbeat CPU 0 instructions: 710000001 cycles: 575129809 heartbeat IPC: 1.13123 cumulative IPC: 1.13261 (Simulation time: 0 hr 33 min 38 sec) 
Heartbeat CPU 0 instructions: 720000000 cycles: 583898244 heartbeat IPC: 1.14045 cumulative IPC: 1.13276 (Simulation time: 0 hr 34 min 7 sec) 
Heartbeat CPU 0 instructions: 730000002 cycles: 592763910 heartbeat IPC: 1.12795 cumulative IPC: 1.13267 (Simulation time: 0 hr 34 min 37 sec) 
Heartbeat CPU 0 instructions: 740000000 cycles: 601516046 heartbeat IPC: 1.14258 cumulative IPC: 1.13285 (Simulation time: 0 hr 35 min 7 sec) 
Heartbeat CPU 0 instructions: 750000001 cycles: 610364753 heartbeat IPC: 1.13011 cumulative IPC: 1.1328 (Simulation time: 0 hr 35 min 37 sec) 
Heartbeat CPU 0 instructions: 760000000 cycles: 619125429 heartbeat IPC: 1.14146 cumulative IPC: 1.13295 (Simulation time: 0 hr 36 min 6 sec) 
Heartbeat CPU 0 instructions: 770000000 cycles: 627973111 heartbeat IPC: 1.13024 cumulative IPC: 1.13291 (Simulation time: 0 hr 36 min 36 sec) 
Heartbeat CPU 0 instructions: 780000000 cycles: 636739835 heartbeat IPC: 1.14068 cumulative IPC: 1.13304 (Simulation time: 0 hr 37 min 6 sec) 
Heartbeat CPU 0 instructions: 790000001 cycles: 645658426 heartbeat IPC: 1.12125 cumulative IPC: 1.13284 (Simulation time: 0 hr 37 min 35 sec) 
Heartbeat CPU 0 instructions: 800000000 cycles: 654426100 heartbeat IPC: 1.14055 cumulative IPC: 1.13297 (Simulation time: 0 hr 38 min 5 sec) 
Heartbeat CPU 0 instructions: 810000001 cycles: 663194224 heartbeat IPC: 1.14049 cumulative IPC: 1.13309 (Simulation time: 0 hr 38 min 35 sec) 
Heartbeat CPU 0 instructions: 820000000 cycles: 672119689 heartbeat IPC: 1.12039 cumulative IPC: 1.13288 (Simulation time: 0 hr 39 min 5 sec) 
Heartbeat CPU 0 instructions: 830000001 cycles: 681529272 heartbeat IPC: 1.06275 cumulative IPC: 1.1317 (Simulation time: 0 hr 39 min 35 sec) 
Heartbeat CPU 0 instructions: 840000000 cycles: 690370247 heartbeat IPC: 1.1311 cumulative IPC: 1.13169 (Simulation time: 0 hr 40 min 5 sec) 
Heartbeat CPU 0 instructions: 850000001 cycles: 699204290 heartbeat IPC: 1.13198 cumulative IPC: 1.13169 (Simulation time: 0 hr 40 min 35 sec) 
Heartbeat CPU 0 instructions: 860000000 cycles: 708029249 heartbeat IPC: 1.13315 cumulative IPC: 1.13171 (Simulation time: 0 hr 41 min 4 sec) 
Heartbeat CPU 0 instructions: 870000000 cycles: 716861483 heartbeat IPC: 1.13222 cumulative IPC: 1.13172 (Simulation time: 0 hr 41 min 34 sec) 
Heartbeat CPU 0 instructions: 880000000 cycles: 725632155 heartbeat IPC: 1.14016 cumulative IPC: 1.13184 (Simulation time: 0 hr 42 min 4 sec) 
Heartbeat CPU 0 instructions: 890000002 cycles: 734460630 heartbeat IPC: 1.1327 cumulative IPC: 1.13186 (Simulation time: 0 hr 42 min 34 sec) 
Heartbeat CPU 0 instructions: 900000000 cycles: 743292760 heartbeat IPC: 1.13223 cumulative IPC: 1.13186 (Simulation time: 0 hr 43 min 3 sec) 
Heartbeat CPU 0 instructions: 910000003 cycles: 752130918 heartbeat IPC: 1.13146 cumulative IPC: 1.13186 (Simulation time: 0 hr 43 min 33 sec) 
Heartbeat CPU 0 instructions: 920000000 cycles: 760951736 heartbeat IPC: 1.13368 cumulative IPC: 1.13188 (Simulation time: 0 hr 44 min 3 sec) 
Heartbeat CPU 0 instructions: 930000003 cycles: 769768054 heartbeat IPC: 1.13426 cumulative IPC: 1.13191 (Simulation time: 0 hr 44 min 32 sec) 
Heartbeat CPU 0 instructions: 940000000 cycles: 778601318 heartbeat IPC: 1.13208 cumulative IPC: 1.13192 (Simulation time: 0 hr 45 min 2 sec) 
Heartbeat CPU 0 instructions: 950000002 cycles: 787415955 heartbeat IPC: 1.13448 cumulative IPC: 1.13195 (Simulation time: 0 hr 45 min 32 sec) 
Heartbeat CPU 0 instructions: 960000000 cycles: 796234200 heartbeat IPC: 1.13401 cumulative IPC: 1.13198 (Simulation time: 0 hr 46 min 1 sec) 
Heartbeat CPU 0 instructions: 970000000 cycles: 805044487 heartbeat IPC: 1.13504 cumulative IPC: 1.13202 (Simulation time: 0 hr 46 min 31 sec) 
Heartbeat CPU 0 instructions: 980000000 cycles: 813872314 heartbeat IPC: 1.13278 cumulative IPC: 1.13203 (Simulation time: 0 hr 47 min 1 sec) 
Heartbeat CPU 0 instructions: 990000002 cycles: 822690366 heartbeat IPC: 1.13404 cumulative IPC: 1.13205 (Simulation time: 0 hr 47 min 31 sec) 
Heartbeat CPU 0 instructions: 1000000000 cycles: 831504343 heartbeat IPC: 1.13456 cumulative IPC: 1.13208 (Simulation time: 0 hr 48 min 0 sec) 
Heartbeat CPU 0 instructions: 1010000000 cycles: 840323082 heartbeat IPC: 1.13395 cumulative IPC: 1.13211 (Simulation time: 0 hr 48 min 30 sec) 
Heartbeat CPU 0 instructions: 1020000000 cycles: 849149669 heartbeat IPC: 1.13294 cumulative IPC: 1.13212 (Simulation time: 0 hr 49 min 0 sec) 
Heartbeat CPU 0 instructions: 1030000003 cycles: 857968897 heartbeat IPC: 1.13389 cumulative IPC: 1.13214 (Simulation time: 0 hr 49 min 29 sec) 
Heartbeat CPU 0 instructions: 1040000000 cycles: 866794622 heartbeat IPC: 1.13305 cumulative IPC: 1.13215 (Simulation time: 0 hr 49 min 59 sec) 
Heartbeat CPU 0 instructions: 1050000000 cycles: 875602245 heartbeat IPC: 1.13538 cumulative IPC: 1.13219 (Simulation time: 0 hr 50 min 29 sec) 
Heartbeat CPU 0 instructions: 1060000000 cycles: 884403617 heartbeat IPC: 1.13619 cumulative IPC: 1.13223 (Simulation time: 0 hr 50 min 58 sec) 
Heartbeat CPU 0 instructions: 1070000000 cycles: 893212755 heartbeat IPC: 1.13518 cumulative IPC: 1.13227 (Simulation time: 0 hr 51 min 28 sec) 
Heartbeat CPU 0 instructions: 1080000000 cycles: 902014718 heartbeat IPC: 1.13611 cumulative IPC: 1.13231 (Simulation time: 0 hr 51 min 58 sec) 
Heartbeat CPU 0 instructions: 1090000000 cycles: 910865056 heartbeat IPC: 1.1299 cumulative IPC: 1.13228 (Simulation time: 0 hr 52 min 27 sec) 
Heartbeat CPU 0 instructions: 1100000000 cycles: 919686538 heartbeat IPC: 1.1336 cumulative IPC: 1.1323 (Simulation time: 0 hr 52 min 57 sec) 
Heartbeat CPU 0 instructions: 1110000001 cycles: 928498508 heartbeat IPC: 1.13482 cumulative IPC: 1.13233 (Simulation time: 0 hr 53 min 27 sec) 
Heartbeat CPU 0 instructions: 1120000000 cycles: 937314727 heartbeat IPC: 1.13427 cumulative IPC: 1.13235 (Simulation time: 0 hr 53 min 56 sec) 
Heartbeat CPU 0 instructions: 1130000003 cycles: 946132332 heartbeat IPC: 1.1341 cumulative IPC: 1.13237 (Simulation time: 0 hr 54 min 26 sec) 
Heartbeat CPU 0 instructions: 1140000000 cycles: 954937539 heartbeat IPC: 1.13569 cumulative IPC: 1.1324 (Simulation time: 0 hr 54 min 56 sec) 
Heartbeat CPU 0 instructions: 1150000002 cycles: 963765603 heartbeat IPC: 1.13275 cumulative IPC: 1.1324 (Simulation time: 0 hr 55 min 25 sec) 
Heartbeat CPU 0 instructions: 1160000000 cycles: 972584267 heartbeat IPC: 1.13396 cumulative IPC: 1.13242 (Simulation time: 0 hr 55 min 55 sec) 
Heartbeat CPU 0 instructions: 1170000000 cycles: 981400859 heartbeat IPC: 1.13423 cumulative IPC: 1.13244 (Simulation time: 0 hr 56 min 25 sec) 
Heartbeat CPU 0 instructions: 1180000000 cycles: 990226892 heartbeat IPC: 1.13301 cumulative IPC: 1.13244 (Simulation time: 0 hr 56 min 54 sec) 
Heartbeat CPU 0 instructions: 1190000001 cycles: 999008638 heartbeat IPC: 1.13873 cumulative IPC: 1.13251 (Simulation time: 0 hr 57 min 24 sec) 
Heartbeat CPU 0 instructions: 1200000000 cycles: 1007865889 heartbeat IPC: 1.12902 cumulative IPC: 1.13247 (Simulation time: 0 hr 57 min 54 sec) 
Finished CPU 0 instructions: 1000000000 cycles: 883023417 cumulative IPC: 1.13247 (Simulation time: 0 hr 57 min 54 sec) 

CPU 0 Branch Prediction Accuracy: 99.5945% MPKI: 0.177783

ChampSim completed all CPUs

Region of Interest Statistics

CPU 0 cumulative IPC: 1.13247 instructions: 1000000000 cycles: 883023417
L1D TOTAL     ACCESS:  393676422  HIT:  388870914  MISS:    4805508
L1D LOAD      ACCESS:  310091320  HIT:  307947813  MISS:    2143507
L1D RFO       ACCESS:   83585102  HIT:   80923101  MISS:    2662001
L1D PREFETCH  ACCESS:          0  HIT:          0  MISS:          0
L1D WRITEBACK ACCESS:          0  HIT:          0  MISS:          0
L1D PREFETCH  REQUESTED:          0  ISSUED:          0  USEFUL:          0  USELESS:          0
L1I TOTAL     ACCESS:  272554091  HIT:  272554081  MISS:         10
L1I LOAD      ACCESS:  272554091  HIT:  272554081  MISS:         10
L1I RFO       ACCESS:          0  HIT:          0  MISS:          0
L1I PREFETCH  ACCESS:          0  HIT:          0  MISS:          0
L1I WRITEBACK ACCESS:          0  HIT:          0  MISS:          0
L1I PREFETCH  REQUESTED:          0  ISSUED:          0  USEFUL:          0  USELESS:          0
L2C TOTAL     ACCESS:    7472974  HIT:    4552516  MISS:    2920458
L2C LOAD      ACCESS:    2141499  HIT:    1879685  MISS:     261814
L2C RFO       ACCESS:    2662000  HIT:       3650  MISS:    2658350
L2C PREFETCH  ACCESS:          0  HIT:          0  MISS:          0
L2C WRITEBACK ACCESS:    2669475  HIT:    2669181  MISS:        294
L2C PREFETCH  REQUESTED:          0  ISSUED:          0  USEFUL:          0  USELESS:          0
LLC TOTAL     ACCESS:    5583583  HIT:    5527968  MISS:      55615
LLC LOAD      ACCESS:     261814  HIT:     260481  MISS:       1333
LLC RFO       ACCESS:    2658350  HIT:    2604074  MISS:      54276
LLC PREFETCH  ACCESS:          0  HIT:          0  MISS:          0
LLC WRITEBACK ACCESS:    2663419  HIT:    2663413  MISS:          6
LLC PREFETCH  REQUESTED:          0  ISSUED:          0  USEFUL:          0  USELESS:          0
Major fault: 0 Minor fault: 2501

DRAM Statistics
 CHANNEL 0
 RQ ROW_BUFFER_HIT:      47306  ROW_BUFFER_MISS:       8295
 DBUS_CONGESTED:      24535
 WQ ROW_BUFFER_HIT:      14417  ROW_BUFFER_MISS:       9721  FULL:          0

 AVG_CONGESTED_CYCLE: 13
