
*** ChampSim Multicore Out-of-Order Simulator ***

Warmup Instructions: 200000000
Simulation Instructions: 1000000000
Number of CPUs: 1
LLC sets: 8192
LLC ways: 16
Off-chip DRAM Size: 4096 MB Channels: 1 Width: 64-bit Data Rate: 1600 MT/s

CPU 0 runs /scratch/user/djimenez/champsim-traces/speccpu2006/xz/458.sjeng-1088B.champsimtrace.xz
Heartbeat CPU 0 instructions: 10000000 cycles: 5578283 heartbeat IPC: 1.79267 cumulative IPC: 1.79267 (Simulation time: 0 hr 0 min 13 sec) 
Heartbeat CPU 0 instructions: 20000000 cycles: 11127961 heartbeat IPC: 1.80191 cumulative IPC: 1.79727 (Simulation time: 0 hr 0 min 26 sec) 
Heartbeat CPU 0 instructions: 30000000 cycles: 16607667 heartbeat IPC: 1.82492 cumulative IPC: 1.80639 (Simulation time: 0 hr 0 min 38 sec) 
Heartbeat CPU 0 instructions: 40000000 cycles: 22101776 heartbeat IPC: 1.82013 cumulative IPC: 1.80981 (Simulation time: 0 hr 0 min 51 sec) 
Heartbeat CPU 0 instructions: 50000000 cycles: 27723435 heartbeat IPC: 1.77883 cumulative IPC: 1.80353 (Simulation time: 0 hr 1 min 4 sec) 
Heartbeat CPU 0 instructions: 60000000 cycles: 33341826 heartbeat IPC: 1.77987 cumulative IPC: 1.79954 (Simulation time: 0 hr 1 min 16 sec) 
Heartbeat CPU 0 instructions: 70000002 cycles: 38871665 heartbeat IPC: 1.80837 cumulative IPC: 1.8008 (Simulation time: 0 hr 1 min 29 sec) 
Heartbeat CPU 0 instructions: 80000000 cycles: 44366089 heartbeat IPC: 1.82003 cumulative IPC: 1.80318 (Simulation time: 0 hr 1 min 41 sec) 
Heartbeat CPU 0 instructions: 90000000 cycles: 49910764 heartbeat IPC: 1.80353 cumulative IPC: 1.80322 (Simulation time: 0 hr 1 min 54 sec) 
Heartbeat CPU 0 instructions: 100000000 cycles: 55399112 heartbeat IPC: 1.82204 cumulative IPC: 1.80508 (Simulation time: 0 hr 2 min 7 sec) 
Heartbeat CPU 0 instructions: 110000001 cycles: 60933656 heartbeat IPC: 1.80683 cumulative IPC: 1.80524 (Simulation time: 0 hr 2 min 20 sec) 
Heartbeat CPU 0 instructions: 120000000 cycles: 66531755 heartbeat IPC: 1.78632 cumulative IPC: 1.80365 (Simulation time: 0 hr 2 min 32 sec) 
Heartbeat CPU 0 instructions: 130000003 cycles: 71999923 heartbeat IPC: 1.82877 cumulative IPC: 1.80556 (Simulation time: 0 hr 2 min 45 sec) 
Heartbeat CPU 0 instructions: 140000000 cycles: 77483604 heartbeat IPC: 1.82359 cumulative IPC: 1.80683 (Simulation time: 0 hr 2 min 58 sec) 
Heartbeat CPU 0 instructions: 150000003 cycles: 82979167 heartbeat IPC: 1.81965 cumulative IPC: 1.80768 (Simulation time: 0 hr 3 min 10 sec) 
Heartbeat CPU 0 instructions: 160000000 cycles: 88480215 heartbeat IPC: 1.81783 cumulative IPC: 1.80831 (Simulation time: 0 hr 3 min 23 sec) 
Heartbeat CPU 0 instructions: 170000001 cycles: 93991540 heartbeat IPC: 1.81445 cumulative IPC: 1.80867 (Simulation time: 0 hr 3 min 35 sec) 
Heartbeat CPU 0 instructions: 180000000 cycles: 99533561 heartbeat IPC: 1.8044 cumulative IPC: 1.80844 (Simulation time: 0 hr 3 min 48 sec) 
Heartbeat CPU 0 instructions: 190000000 cycles: 105078095 heartbeat IPC: 1.80358 cumulative IPC: 1.80818 (Simulation time: 0 hr 4 min 0 sec) 
Heartbeat CPU 0 instructions: 200000000 cycles: 110553006 heartbeat IPC: 1.82651 cumulative IPC: 1.80909 (Simulation time: 0 hr 4 min 12 sec) 

Warmup complete CPU 0 instructions: 200000002 cycles: 110553007 (Simulation time: 0 hr 4 min 12 sec) 

Heartbeat CPU 0 instructions: 210000001 cycles: 127555314 heartbeat IPC: 0.588156 cumulative IPC: 0.588155 (Simulation time: 0 hr 4 min 34 sec) 
Heartbeat CPU 0 instructions: 220000000 cycles: 142983074 heartbeat IPC: 0.648182 cumulative IPC: 0.616712 (Simulation time: 0 hr 4 min 56 sec) 
Heartbeat CPU 0 instructions: 230000000 cycles: 159332238 heartbeat IPC: 0.611652 cumulative IPC: 0.615016 (Simulation time: 0 hr 5 min 18 sec) 
Heartbeat CPU 0 instructions: 240000000 cycles: 176057647 heartbeat IPC: 0.597893 cumulative IPC: 0.610644 (Simulation time: 0 hr 5 min 40 sec) 
Heartbeat CPU 0 instructions: 250000001 cycles: 192354514 heartbeat IPC: 0.613615 cumulative IPC: 0.611236 (Simulation time: 0 hr 6 min 2 sec) 
Heartbeat CPU 0 instructions: 260000000 cycles: 208532237 heartbeat IPC: 0.618134 cumulative IPC: 0.612375 (Simulation time: 0 hr 6 min 24 sec) 
Heartbeat CPU 0 instructions: 270000001 cycles: 224010809 heartbeat IPC: 0.646055 cumulative IPC: 0.616969 (Simulation time: 0 hr 6 min 46 sec) 
Heartbeat CPU 0 instructions: 280000000 cycles: 240176996 heartbeat IPC: 0.618575 cumulative IPC: 0.61717 (Simulation time: 0 hr 7 min 8 sec) 
Heartbeat CPU 0 instructions: 290000000 cycles: 256057136 heartbeat IPC: 0.629717 cumulative IPC: 0.618539 (Simulation time: 0 hr 7 min 30 sec) 
Heartbeat CPU 0 instructions: 300000000 cycles: 272458057 heartbeat IPC: 0.609722 cumulative IPC: 0.617646 (Simulation time: 0 hr 7 min 51 sec) 
Heartbeat CPU 0 instructions: 310000001 cycles: 288791776 heartbeat IPC: 0.61223 cumulative IPC: 0.61715 (Simulation time: 0 hr 8 min 13 sec) 
Heartbeat CPU 0 instructions: 320000000 cycles: 305211251 heartbeat IPC: 0.609033 cumulative IPC: 0.616465 (Simulation time: 0 hr 8 min 34 sec) 
Heartbeat CPU 0 instructions: 330000003 cycles: 321901030 heartbeat IPC: 0.599169 cumulative IPC: 0.615099 (Simulation time: 0 hr 8 min 56 sec) 
Heartbeat CPU 0 instructions: 340000000 cycles: 337873522 heartbeat IPC: 0.626076 cumulative IPC: 0.61587 (Simulation time: 0 hr 9 min 17 sec) 
Heartbeat CPU 0 instructions: 350000000 cycles: 354268172 heartbeat IPC: 0.609955 cumulative IPC: 0.615473 (Simulation time: 0 hr 9 min 39 sec) 
Heartbeat CPU 0 instructions: 360000000 cycles: 371130449 heartbeat IPC: 0.59304 cumulative IPC: 0.614021 (Simulation time: 0 hr 10 min 1 sec) 
Heartbeat CPU 0 instructions: 370000001 cycles: 387195487 heartbeat IPC: 0.62247 cumulative IPC: 0.614512 (Simulation time: 0 hr 10 min 23 sec) 
Heartbeat CPU 0 instructions: 380000000 cycles: 403643052 heartbeat IPC: 0.607993 cumulative IPC: 0.614146 (Simulation time: 0 hr 10 min 44 sec) 
Heartbeat CPU 0 instructions: 390000001 cycles: 420259574 heartbeat IPC: 0.601811 cumulative IPC: 0.613484 (Simulation time: 0 hr 11 min 6 sec) 
Heartbeat CPU 0 instructions: 400000000 cycles: 437010167 heartbeat IPC: 0.596994 cumulative IPC: 0.612638 (Simulation time: 0 hr 11 min 28 sec) 
Heartbeat CPU 0 instructions: 410000003 cycles: 453125996 heartbeat IPC: 0.620508 cumulative IPC: 0.613008 (Simulation time: 0 hr 11 min 50 sec) 
Heartbeat CPU 0 instructions: 420000000 cycles: 469599923 heartbeat IPC: 0.60702 cumulative IPC: 0.612733 (Simulation time: 0 hr 12 min 11 sec) 
Heartbeat CPU 0 instructions: 430000002 cycles: 486306241 heartbeat IPC: 0.598576 cumulative IPC: 0.612104 (Simulation time: 0 hr 12 min 32 sec) 
Heartbeat CPU 0 instructions: 440000000 cycles: 503050706 heartbeat IPC: 0.597212 cumulative IPC: 0.611469 (Simulation time: 0 hr 12 min 54 sec) 
Heartbeat CPU 0 instructions: 450000000 cycles: 519169192 heartbeat IPC: 0.620406 cumulative IPC: 0.611821 (Simulation time: 0 hr 13 min 16 sec) 
Heartbeat CPU 0 instructions: 460000000 cycles: 535333060 heartbeat IPC: 0.618664 cumulative IPC: 0.612081 (Simulation time: 0 hr 13 min 38 sec) 
Heartbeat CPU 0 instructions: 470000000 cycles: 551685784 heartbeat IPC: 0.611519 cumulative IPC: 0.612061 (Simulation time: 0 hr 14 min 0 sec) 
Heartbeat CPU 0 instructions: 480000000 cycles: 568231576 heartbeat IPC: 0.604383 cumulative IPC: 0.611783 (Simulation time: 0 hr 14 min 21 sec) 
Heartbeat CPU 0 instructions: 490000000 cycles: 584714422 heartbeat IPC: 0.606691 cumulative IPC: 0.611606 (Simulation time: 0 hr 14 min 43 sec) 
Heartbeat CPU 0 instructions: 500000000 cycles: 601381184 heartbeat IPC: 0.599997 cumulative IPC: 0.611212 (Simulation time: 0 hr 15 min 4 sec) 
Heartbeat CPU 0 instructions: 510000003 cycles: 618005218 heartbeat IPC: 0.601539 cumulative IPC: 0.610895 (Simulation time: 0 hr 15 min 26 sec) 
Heartbeat CPU 0 instructions: 520000000 cycles: 634705915 heartbeat IPC: 0.598777 cumulative IPC: 0.610509 (Simulation time: 0 hr 15 min 48 sec) 
Heartbeat CPU 0 instructions: 530000002 cycles: 651308646 heartbeat IPC: 0.602311 cumulative IPC: 0.610257 (Simulation time: 0 hr 16 min 9 sec) 
Heartbeat CPU 0 instructions: 540000000 cycles: 667939618 heartbeat IPC: 0.601288 cumulative IPC: 0.60999 (Simulation time: 0 hr 16 min 31 sec) 
Heartbeat CPU 0 instructions: 550000003 cycles: 684315616 heartbeat IPC: 0.61065 cumulative IPC: 0.610008 (Simulation time: 0 hr 16 min 52 sec) 
Heartbeat CPU 0 instructions: 560000000 cycles: 700925804 heartbeat IPC: 0.60204 cumulative IPC: 0.609784 (Simulation time: 0 hr 17 min 14 sec) 
Heartbeat CPU 0 instructions: 570000001 cycles: 717579683 heartbeat IPC: 0.600461 cumulative IPC: 0.609528 (Simulation time: 0 hr 17 min 35 sec) 
Heartbeat CPU 0 instructions: 580000000 cycles: 733309359 heartbeat IPC: 0.635741 cumulative IPC: 0.610191 (Simulation time: 0 hr 17 min 58 sec) 
Heartbeat CPU 0 instructions: 590000000 cycles: 749143560 heartbeat IPC: 0.631544 cumulative IPC: 0.61072 (Simulation time: 0 hr 18 min 20 sec) 
Heartbeat CPU 0 instructions: 600000000 cycles: 765228033 heartbeat IPC: 0.621718 cumulative IPC: 0.61099 (Simulation time: 0 hr 18 min 42 sec) 
Heartbeat CPU 0 instructions: 610000000 cycles: 781239214 heartbeat IPC: 0.624564 cumulative IPC: 0.611314 (Simulation time: 0 hr 19 min 3 sec) 
Heartbeat CPU 0 instructions: 620000000 cycles: 797642597 heartbeat IPC: 0.60963 cumulative IPC: 0.611274 (Simulation time: 0 hr 19 min 25 sec) 
Heartbeat CPU 0 instructions: 630000001 cycles: 814178152 heartbeat IPC: 0.604757 cumulative IPC: 0.611121 (Simulation time: 0 hr 19 min 46 sec) 
Heartbeat CPU 0 instructions: 640000000 cycles: 830808777 heartbeat IPC: 0.6013 cumulative IPC: 0.610894 (Simulation time: 0 hr 20 min 7 sec) 
Heartbeat CPU 0 instructions: 650000001 cycles: 846751453 heartbeat IPC: 0.627247 cumulative IPC: 0.611248 (Simulation time: 0 hr 20 min 29 sec) 
Heartbeat CPU 0 instructions: 660000000 cycles: 863186973 heartbeat IPC: 0.608438 cumulative IPC: 0.611187 (Simulation time: 0 hr 20 min 51 sec) 
Heartbeat CPU 0 instructions: 670000001 cycles: 879904167 heartbeat IPC: 0.598187 cumulative IPC: 0.610904 (Simulation time: 0 hr 21 min 13 sec) 
Heartbeat CPU 0 instructions: 680000000 cycles: 896241802 heartbeat IPC: 0.612084 cumulative IPC: 0.610929 (Simulation time: 0 hr 21 min 34 sec) 
Heartbeat CPU 0 instructions: 690000001 cycles: 912208841 heartbeat IPC: 0.62629 cumulative IPC: 0.611235 (Simulation time: 0 hr 21 min 56 sec) 
Heartbeat CPU 0 instructions: 700000000 cycles: 928803907 heartbeat IPC: 0.602589 cumulative IPC: 0.611059 (Simulation time: 0 hr 22 min 18 sec) 
Heartbeat CPU 0 instructions: 710000002 cycles: 945526212 heartbeat IPC: 0.598004 cumulative IPC: 0.610798 (Simulation time: 0 hr 22 min 40 sec) 
Heartbeat CPU 0 instructions: 720000000 cycles: 962192328 heartbeat IPC: 0.60002 cumulative IPC: 0.610587 (Simulation time: 0 hr 23 min 1 sec) 
Heartbeat CPU 0 instructions: 730000000 cycles: 978792403 heartbeat IPC: 0.602407 cumulative IPC: 0.610431 (Simulation time: 0 hr 23 min 24 sec) 
Heartbeat CPU 0 instructions: 740000000 cycles: 995380958 heartbeat IPC: 0.602825 cumulative IPC: 0.610288 (Simulation time: 0 hr 23 min 46 sec) 
Heartbeat CPU 0 instructions: 750000000 cycles: 1011883832 heartbeat IPC: 0.605955 cumulative IPC: 0.610209 (Simulation time: 0 hr 24 min 8 sec) 
Heartbeat CPU 0 instructions: 760000000 cycles: 1028486952 heartbeat IPC: 0.602296 cumulative IPC: 0.610066 (Simulation time: 0 hr 24 min 29 sec) 
Heartbeat CPU 0 instructions: 770000000 cycles: 1045095912 heartbeat IPC: 0.602085 cumulative IPC: 0.609924 (Simulation time: 0 hr 24 min 51 sec) 
Heartbeat CPU 0 instructions: 780000000 cycles: 1061943377 heartbeat IPC: 0.593561 cumulative IPC: 0.609634 (Simulation time: 0 hr 25 min 13 sec) 
Heartbeat CPU 0 instructions: 790000002 cycles: 1078466598 heartbeat IPC: 0.605209 cumulative IPC: 0.609559 (Simulation time: 0 hr 25 min 34 sec) 
Heartbeat CPU 0 instructions: 800000000 cycles: 1094920575 heartbeat IPC: 0.607756 cumulative IPC: 0.609528 (Simulation time: 0 hr 25 min 56 sec) 
Heartbeat CPU 0 instructions: 810000000 cycles: 1111392438 heartbeat IPC: 0.607096 cumulative IPC: 0.609488 (Simulation time: 0 hr 26 min 17 sec) 
Heartbeat CPU 0 instructions: 820000000 cycles: 1127946196 heartbeat IPC: 0.604092 cumulative IPC: 0.609401 (Simulation time: 0 hr 26 min 39 sec) 
Heartbeat CPU 0 instructions: 830000000 cycles: 1144621416 heartbeat IPC: 0.599692 cumulative IPC: 0.609244 (Simulation time: 0 hr 27 min 1 sec) 
Heartbeat CPU 0 instructions: 840000000 cycles: 1161119185 heartbeat IPC: 0.606143 cumulative IPC: 0.609195 (Simulation time: 0 hr 27 min 22 sec) 
Heartbeat CPU 0 instructions: 850000003 cycles: 1177493781 heartbeat IPC: 0.610702 cumulative IPC: 0.609218 (Simulation time: 0 hr 27 min 44 sec) 
Heartbeat CPU 0 instructions: 860000000 cycles: 1193993975 heartbeat IPC: 0.606053 cumulative IPC: 0.60917 (Simulation time: 0 hr 28 min 5 sec) 
Heartbeat CPU 0 instructions: 870000000 cycles: 1210381367 heartbeat IPC: 0.610225 cumulative IPC: 0.609186 (Simulation time: 0 hr 28 min 27 sec) 
Heartbeat CPU 0 instructions: 880000000 cycles: 1226808382 heartbeat IPC: 0.608753 cumulative IPC: 0.60918 (Simulation time: 0 hr 28 min 48 sec) 
Heartbeat CPU 0 instructions: 890000000 cycles: 1243403404 heartbeat IPC: 0.60259 cumulative IPC: 0.609083 (Simulation time: 0 hr 29 min 10 sec) 
Heartbeat CPU 0 instructions: 900000000 cycles: 1260105232 heartbeat IPC: 0.598737 cumulative IPC: 0.608933 (Simulation time: 0 hr 29 min 32 sec) 
Heartbeat CPU 0 instructions: 910000001 cycles: 1276518584 heartbeat IPC: 0.60926 cumulative IPC: 0.608937 (Simulation time: 0 hr 29 min 54 sec) 
Heartbeat CPU 0 instructions: 920000000 cycles: 1293092816 heartbeat IPC: 0.603346 cumulative IPC: 0.608859 (Simulation time: 0 hr 30 min 15 sec) 
Heartbeat CPU 0 instructions: 930000002 cycles: 1309872222 heartbeat IPC: 0.595969 cumulative IPC: 0.608679 (Simulation time: 0 hr 30 min 37 sec) 
Heartbeat CPU 0 instructions: 940000000 cycles: 1326566910 heartbeat IPC: 0.598993 cumulative IPC: 0.608546 (Simulation time: 0 hr 30 min 59 sec) 
Heartbeat CPU 0 instructions: 950000001 cycles: 1343382768 heartbeat IPC: 0.594677 cumulative IPC: 0.608356 (Simulation time: 0 hr 31 min 20 sec) 
Heartbeat CPU 0 instructions: 960000000 cycles: 1360111551 heartbeat IPC: 0.597772 cumulative IPC: 0.608215 (Simulation time: 0 hr 31 min 42 sec) 
Heartbeat CPU 0 instructions: 970000000 cycles: 1377046023 heartbeat IPC: 0.590512 cumulative IPC: 0.607978 (Simulation time: 0 hr 32 min 3 sec) 
Heartbeat CPU 0 instructions: 980000000 cycles: 1394201720 heartbeat IPC: 0.582897 cumulative IPC: 0.607643 (Simulation time: 0 hr 32 min 24 sec) 
Heartbeat CPU 0 instructions: 990000001 cycles: 1411334156 heartbeat IPC: 0.583688 cumulative IPC: 0.607327 (Simulation time: 0 hr 32 min 45 sec) 
Heartbeat CPU 0 instructions: 1000000000 cycles: 1428372782 heartbeat IPC: 0.586902 cumulative IPC: 0.607063 (Simulation time: 0 hr 33 min 7 sec) 
Heartbeat CPU 0 instructions: 1010000000 cycles: 1445460146 heartbeat IPC: 0.585228 cumulative IPC: 0.606784 (Simulation time: 0 hr 33 min 28 sec) 
Heartbeat CPU 0 instructions: 1020000000 cycles: 1462302806 heartbeat IPC: 0.59373 cumulative IPC: 0.606621 (Simulation time: 0 hr 33 min 50 sec) 
Heartbeat CPU 0 instructions: 1030000000 cycles: 1479094050 heartbeat IPC: 0.595549 cumulative IPC: 0.606485 (Simulation time: 0 hr 34 min 11 sec) 
Heartbeat CPU 0 instructions: 1040000000 cycles: 1495746389 heartbeat IPC: 0.600516 cumulative IPC: 0.606414 (Simulation time: 0 hr 34 min 33 sec) 
Heartbeat CPU 0 instructions: 1050000000 cycles: 1512815086 heartbeat IPC: 0.585868 cumulative IPC: 0.606163 (Simulation time: 0 hr 34 min 55 sec) 
Heartbeat CPU 0 instructions: 1060000000 cycles: 1529998402 heartbeat IPC: 0.58196 cumulative IPC: 0.60587 (Simulation time: 0 hr 35 min 17 sec) 
Heartbeat CPU 0 instructions: 1070000000 cycles: 1546519116 heartbeat IPC: 0.605301 cumulative IPC: 0.605864 (Simulation time: 0 hr 35 min 38 sec) 
Heartbeat CPU 0 instructions: 1080000000 cycles: 1562960176 heartbeat IPC: 0.608233 cumulative IPC: 0.605891 (Simulation time: 0 hr 36 min 0 sec) 
Heartbeat CPU 0 instructions: 1090000002 cycles: 1579513091 heartbeat IPC: 0.604123 cumulative IPC: 0.605871 (Simulation time: 0 hr 36 min 21 sec) 
Heartbeat CPU 0 instructions: 1100000000 cycles: 1595916506 heartbeat IPC: 0.609629 cumulative IPC: 0.605912 (Simulation time: 0 hr 36 min 43 sec) 
Heartbeat CPU 0 instructions: 1110000000 cycles: 1612368535 heartbeat IPC: 0.607828 cumulative IPC: 0.605933 (Simulation time: 0 hr 37 min 4 sec) 
Heartbeat CPU 0 instructions: 1120000000 cycles: 1628987709 heartbeat IPC: 0.601715 cumulative IPC: 0.605887 (Simulation time: 0 hr 37 min 25 sec) 
Heartbeat CPU 0 instructions: 1130000003 cycles: 1644754985 heartbeat IPC: 0.634225 cumulative IPC: 0.606178 (Simulation time: 0 hr 37 min 48 sec) 
Heartbeat CPU 0 instructions: 1140000000 cycles: 1661605285 heartbeat IPC: 0.593461 cumulative IPC: 0.60604 (Simulation time: 0 hr 38 min 9 sec) 
Heartbeat CPU 0 instructions: 1150000002 cycles: 1678520673 heartbeat IPC: 0.591178 cumulative IPC: 0.60588 (Simulation time: 0 hr 38 min 31 sec) 
Heartbeat CPU 0 instructions: 1160000000 cycles: 1695319476 heartbeat IPC: 0.59528 cumulative IPC: 0.605767 (Simulation time: 0 hr 38 min 52 sec) 
Heartbeat CPU 0 instructions: 1170000001 cycles: 1712344813 heartbeat IPC: 0.58736 cumulative IPC: 0.605572 (Simulation time: 0 hr 39 min 13 sec) 
Heartbeat CPU 0 instructions: 1180000000 cycles: 1729530652 heartbeat IPC: 0.581874 cumulative IPC: 0.60532 (Simulation time: 0 hr 39 min 35 sec) 
Heartbeat CPU 0 instructions: 1190000000 cycles: 1746402354 heartbeat IPC: 0.592708 cumulative IPC: 0.60519 (Simulation time: 0 hr 39 min 56 sec) 
Heartbeat CPU 0 instructions: 1200000000 cycles: 1762929514 heartbeat IPC: 0.605065 cumulative IPC: 0.605189 (Simulation time: 0 hr 40 min 18 sec) 
Finished CPU 0 instructions: 1000000002 cycles: 1652376517 cumulative IPC: 0.605189 (Simulation time: 0 hr 40 min 18 sec) 

CPU 0 Branch Prediction Accuracy: 92.7437% MPKI: 14.6097

ChampSim completed all CPUs

Region of Interest Statistics

CPU 0 cumulative IPC: 0.605189 instructions: 1000000002 cycles: 1652376517
L1D TOTAL     ACCESS:  268550125  HIT:  267452131  MISS:    1097994
L1D LOAD      ACCESS:  189566181  HIT:  188766307  MISS:     799874
L1D RFO       ACCESS:   78983944  HIT:   78685824  MISS:     298120
L1D PREFETCH  ACCESS:          0  HIT:          0  MISS:          0
L1D WRITEBACK ACCESS:          0  HIT:          0  MISS:          0
L1D PREFETCH  REQUESTED:          0  ISSUED:          0  USEFUL:          0  USELESS:          0
L1I TOTAL     ACCESS:  230976474  HIT:  230951248  MISS:      25226
L1I LOAD      ACCESS:  230976474  HIT:  230951248  MISS:      25226
L1I RFO       ACCESS:          0  HIT:          0  MISS:          0
L1I PREFETCH  ACCESS:          0  HIT:          0  MISS:          0
L1I WRITEBACK ACCESS:          0  HIT:          0  MISS:          0
L1I PREFETCH  REQUESTED:          0  ISSUED:          0  USEFUL:          0  USELESS:          0
L2C TOTAL     ACCESS:    1758555  HIT:    1373391  MISS:     385164
L2C LOAD      ACCESS:     825095  HIT:     468704  MISS:     356391
L2C RFO       ACCESS:     298023  HIT:     271024  MISS:      26999
L2C PREFETCH  ACCESS:          0  HIT:          0  MISS:          0
L2C WRITEBACK ACCESS:     635437  HIT:     633663  MISS:       1774
L2C PREFETCH  REQUESTED:          0  ISSUED:          0  USEFUL:          0  USELESS:          0
LLC TOTAL     ACCESS:     708432  HIT:     408314  MISS:     300118
LLC LOAD      ACCESS:     356391  HIT:      71197  MISS:     285194
LLC RFO       ACCESS:      26998  HIT:      12324  MISS:      14674
LLC PREFETCH  ACCESS:          0  HIT:          0  MISS:          0
LLC WRITEBACK ACCESS:     325043  HIT:     324793  MISS:        250
LLC PREFETCH  REQUESTED:          0  ISSUED:          0  USEFUL:          0  USELESS:          0
Major fault: 0 Minor fault: 39009

DRAM Statistics
 CHANNEL 0
 RQ ROW_BUFFER_HIT:      28738  ROW_BUFFER_MISS:     271121
 DBUS_CONGESTED:     191584
 WQ ROW_BUFFER_HIT:      13842  ROW_BUFFER_MISS:     197310  FULL:          0

 AVG_CONGESTED_CYCLE: 14
