
*** ChampSim Multicore Out-of-Order Simulator ***

Warmup Instructions: 200000000
Simulation Instructions: 1000000000
Number of CPUs: 1
LLC sets: 8192
LLC ways: 16
Off-chip DRAM Size: 4096 MB Channels: 1 Width: 64-bit Data Rate: 1600 MT/s

CPU 0 runs /scratch/user/djimenez/champsim-traces/speccpu2006/xz/458.sjeng-767B.champsimtrace.xz
Heartbeat CPU 0 instructions: 10000003 cycles: 5347094 heartbeat IPC: 1.87018 cumulative IPC: 1.87018 (Simulation time: 0 hr 0 min 21 sec) 
Heartbeat CPU 0 instructions: 20000000 cycles: 10744676 heartbeat IPC: 1.85268 cumulative IPC: 1.86139 (Simulation time: 0 hr 0 min 42 sec) 
Heartbeat CPU 0 instructions: 30000000 cycles: 16203251 heartbeat IPC: 1.83198 cumulative IPC: 1.85148 (Simulation time: 0 hr 1 min 2 sec) 
Heartbeat CPU 0 instructions: 40000000 cycles: 21713140 heartbeat IPC: 1.81492 cumulative IPC: 1.8422 (Simulation time: 0 hr 1 min 21 sec) 
Heartbeat CPU 0 instructions: 50000000 cycles: 27261669 heartbeat IPC: 1.80228 cumulative IPC: 1.83408 (Simulation time: 0 hr 1 min 40 sec) 
Heartbeat CPU 0 instructions: 60000000 cycles: 32725999 heartbeat IPC: 1.83005 cumulative IPC: 1.8334 (Simulation time: 0 hr 1 min 59 sec) 
Heartbeat CPU 0 instructions: 70000001 cycles: 38118345 heartbeat IPC: 1.85448 cumulative IPC: 1.83639 (Simulation time: 0 hr 2 min 20 sec) 
Heartbeat CPU 0 instructions: 80000000 cycles: 43537012 heartbeat IPC: 1.84547 cumulative IPC: 1.83752 (Simulation time: 0 hr 2 min 41 sec) 
Heartbeat CPU 0 instructions: 90000003 cycles: 49003233 heartbeat IPC: 1.82942 cumulative IPC: 1.83661 (Simulation time: 0 hr 3 min 2 sec) 
Heartbeat CPU 0 instructions: 100000000 cycles: 54457623 heartbeat IPC: 1.83338 cumulative IPC: 1.83629 (Simulation time: 0 hr 3 min 21 sec) 
Heartbeat CPU 0 instructions: 110000002 cycles: 59903655 heartbeat IPC: 1.8362 cumulative IPC: 1.83628 (Simulation time: 0 hr 3 min 40 sec) 
Heartbeat CPU 0 instructions: 120000000 cycles: 65291030 heartbeat IPC: 1.85619 cumulative IPC: 1.83792 (Simulation time: 0 hr 4 min 0 sec) 
Heartbeat CPU 0 instructions: 130000003 cycles: 70648007 heartbeat IPC: 1.86672 cumulative IPC: 1.84011 (Simulation time: 0 hr 4 min 20 sec) 
Heartbeat CPU 0 instructions: 140000000 cycles: 76024832 heartbeat IPC: 1.85983 cumulative IPC: 1.8415 (Simulation time: 0 hr 4 min 40 sec) 
Heartbeat CPU 0 instructions: 150000003 cycles: 81457146 heartbeat IPC: 1.84084 cumulative IPC: 1.84146 (Simulation time: 0 hr 4 min 58 sec) 
Heartbeat CPU 0 instructions: 160000000 cycles: 86871154 heartbeat IPC: 1.84706 cumulative IPC: 1.84181 (Simulation time: 0 hr 5 min 18 sec) 
Heartbeat CPU 0 instructions: 170000003 cycles: 92288292 heartbeat IPC: 1.84599 cumulative IPC: 1.84205 (Simulation time: 0 hr 5 min 37 sec) 
Heartbeat CPU 0 instructions: 180000000 cycles: 97699047 heartbeat IPC: 1.84817 cumulative IPC: 1.84239 (Simulation time: 0 hr 5 min 57 sec) 
Heartbeat CPU 0 instructions: 190000001 cycles: 102971021 heartbeat IPC: 1.89682 cumulative IPC: 1.84518 (Simulation time: 0 hr 6 min 17 sec) 
Heartbeat CPU 0 instructions: 200000000 cycles: 108362847 heartbeat IPC: 1.85466 cumulative IPC: 1.84565 (Simulation time: 0 hr 6 min 38 sec) 

Warmup complete CPU 0 instructions: 200000001 cycles: 108362848 (Simulation time: 0 hr 6 min 38 sec) 

Heartbeat CPU 0 instructions: 210000000 cycles: 124433449 heartbeat IPC: 0.622254 cumulative IPC: 0.622254 (Simulation time: 0 hr 7 min 12 sec) 
Heartbeat CPU 0 instructions: 220000000 cycles: 140179366 heartbeat IPC: 0.635085 cumulative IPC: 0.628604 (Simulation time: 0 hr 7 min 48 sec) 
Heartbeat CPU 0 instructions: 230000002 cycles: 156218785 heartbeat IPC: 0.623464 cumulative IPC: 0.626881 (Simulation time: 0 hr 8 min 22 sec) 
Heartbeat CPU 0 instructions: 240000000 cycles: 172281873 heartbeat IPC: 0.622545 cumulative IPC: 0.625792 (Simulation time: 0 hr 8 min 57 sec) 
Heartbeat CPU 0 instructions: 250000003 cycles: 187586507 heartbeat IPC: 0.653397 cumulative IPC: 0.631125 (Simulation time: 0 hr 9 min 32 sec) 
Heartbeat CPU 0 instructions: 260000000 cycles: 203390188 heartbeat IPC: 0.632764 cumulative IPC: 0.631397 (Simulation time: 0 hr 10 min 7 sec) 
Heartbeat CPU 0 instructions: 270000003 cycles: 219180672 heartbeat IPC: 0.633293 cumulative IPC: 0.631667 (Simulation time: 0 hr 10 min 42 sec) 
Heartbeat CPU 0 instructions: 280000000 cycles: 234936035 heartbeat IPC: 0.634704 cumulative IPC: 0.632045 (Simulation time: 0 hr 11 min 15 sec) 
Heartbeat CPU 0 instructions: 290000000 cycles: 250862102 heartbeat IPC: 0.627901 cumulative IPC: 0.631582 (Simulation time: 0 hr 11 min 47 sec) 
Heartbeat CPU 0 instructions: 300000000 cycles: 267007937 heartbeat IPC: 0.619355 cumulative IPC: 0.630338 (Simulation time: 0 hr 12 min 20 sec) 
Heartbeat CPU 0 instructions: 310000001 cycles: 283067578 heartbeat IPC: 0.622679 cumulative IPC: 0.629634 (Simulation time: 0 hr 12 min 54 sec) 
Heartbeat CPU 0 instructions: 320000000 cycles: 298779193 heartbeat IPC: 0.636472 cumulative IPC: 0.630198 (Simulation time: 0 hr 13 min 27 sec) 
Heartbeat CPU 0 instructions: 330000000 cycles: 314475761 heartbeat IPC: 0.637082 cumulative IPC: 0.630722 (Simulation time: 0 hr 14 min 0 sec) 
Heartbeat CPU 0 instructions: 340000000 cycles: 330350055 heartbeat IPC: 0.629949 cumulative IPC: 0.630667 (Simulation time: 0 hr 14 min 34 sec) 
Heartbeat CPU 0 instructions: 350000000 cycles: 346552085 heartbeat IPC: 0.617207 cumulative IPC: 0.629751 (Simulation time: 0 hr 15 min 7 sec) 
Heartbeat CPU 0 instructions: 360000000 cycles: 362795081 heartbeat IPC: 0.61565 cumulative IPC: 0.628851 (Simulation time: 0 hr 15 min 42 sec) 
Heartbeat CPU 0 instructions: 370000001 cycles: 379080939 heartbeat IPC: 0.61403 cumulative IPC: 0.627959 (Simulation time: 0 hr 16 min 15 sec) 
Heartbeat CPU 0 instructions: 380000000 cycles: 395202516 heartbeat IPC: 0.620287 cumulative IPC: 0.627528 (Simulation time: 0 hr 16 min 47 sec) 
Heartbeat CPU 0 instructions: 390000000 cycles: 411396786 heartbeat IPC: 0.617502 cumulative IPC: 0.626992 (Simulation time: 0 hr 17 min 20 sec) 
Heartbeat CPU 0 instructions: 400000000 cycles: 427346675 heartbeat IPC: 0.626964 cumulative IPC: 0.626991 (Simulation time: 0 hr 17 min 51 sec) 
Heartbeat CPU 0 instructions: 410000003 cycles: 443560078 heartbeat IPC: 0.616774 cumulative IPC: 0.626497 (Simulation time: 0 hr 18 min 25 sec) 
Heartbeat CPU 0 instructions: 420000000 cycles: 459837209 heartbeat IPC: 0.614359 cumulative IPC: 0.625935 (Simulation time: 0 hr 18 min 58 sec) 
Heartbeat CPU 0 instructions: 430000000 cycles: 476140938 heartbeat IPC: 0.613357 cumulative IPC: 0.625377 (Simulation time: 0 hr 19 min 33 sec) 
Heartbeat CPU 0 instructions: 440000000 cycles: 492404228 heartbeat IPC: 0.614882 cumulative IPC: 0.624933 (Simulation time: 0 hr 20 min 8 sec) 
Heartbeat CPU 0 instructions: 450000002 cycles: 508170323 heartbeat IPC: 0.634273 cumulative IPC: 0.625301 (Simulation time: 0 hr 20 min 42 sec) 
Heartbeat CPU 0 instructions: 460000000 cycles: 524422169 heartbeat IPC: 0.615315 cumulative IPC: 0.624911 (Simulation time: 0 hr 21 min 17 sec) 
Heartbeat CPU 0 instructions: 470000000 cycles: 540678433 heartbeat IPC: 0.615147 cumulative IPC: 0.624544 (Simulation time: 0 hr 21 min 52 sec) 
Heartbeat CPU 0 instructions: 480000000 cycles: 556888623 heartbeat IPC: 0.616896 cumulative IPC: 0.624267 (Simulation time: 0 hr 22 min 27 sec) 
Heartbeat CPU 0 instructions: 490000002 cycles: 573220526 heartbeat IPC: 0.612299 cumulative IPC: 0.623847 (Simulation time: 0 hr 23 min 1 sec) 
Heartbeat CPU 0 instructions: 500000000 cycles: 589563963 heartbeat IPC: 0.611866 cumulative IPC: 0.62344 (Simulation time: 0 hr 23 min 34 sec) 
Heartbeat CPU 0 instructions: 510000000 cycles: 606271191 heartbeat IPC: 0.598543 cumulative IPC: 0.622605 (Simulation time: 0 hr 24 min 9 sec) 
Heartbeat CPU 0 instructions: 520000000 cycles: 622341540 heartbeat IPC: 0.622264 cumulative IPC: 0.622594 (Simulation time: 0 hr 24 min 45 sec) 
Heartbeat CPU 0 instructions: 530000003 cycles: 638522006 heartbeat IPC: 0.618029 cumulative IPC: 0.622455 (Simulation time: 0 hr 25 min 21 sec) 
Heartbeat CPU 0 instructions: 540000000 cycles: 654590835 heartbeat IPC: 0.622323 cumulative IPC: 0.622451 (Simulation time: 0 hr 25 min 56 sec) 
Heartbeat CPU 0 instructions: 550000002 cycles: 671192494 heartbeat IPC: 0.60235 cumulative IPC: 0.621858 (Simulation time: 0 hr 26 min 30 sec) 
Heartbeat CPU 0 instructions: 560000000 cycles: 687815499 heartbeat IPC: 0.601576 cumulative IPC: 0.621276 (Simulation time: 0 hr 27 min 4 sec) 
Heartbeat CPU 0 instructions: 570000000 cycles: 704531176 heartbeat IPC: 0.598241 cumulative IPC: 0.62063 (Simulation time: 0 hr 27 min 38 sec) 
Heartbeat CPU 0 instructions: 580000000 cycles: 720759892 heartbeat IPC: 0.616192 cumulative IPC: 0.620512 (Simulation time: 0 hr 28 min 14 sec) 
Heartbeat CPU 0 instructions: 590000002 cycles: 736712027 heartbeat IPC: 0.626875 cumulative IPC: 0.620674 (Simulation time: 0 hr 28 min 48 sec) 
Heartbeat CPU 0 instructions: 600000000 cycles: 753211488 heartbeat IPC: 0.60608 cumulative IPC: 0.620301 (Simulation time: 0 hr 29 min 22 sec) 
Heartbeat CPU 0 instructions: 610000001 cycles: 769354320 heartbeat IPC: 0.61947 cumulative IPC: 0.62028 (Simulation time: 0 hr 29 min 56 sec) 
Heartbeat CPU 0 instructions: 620000000 cycles: 785991043 heartbeat IPC: 0.60108 cumulative IPC: 0.619809 (Simulation time: 0 hr 30 min 30 sec) 
Heartbeat CPU 0 instructions: 630000003 cycles: 802498070 heartbeat IPC: 0.605803 cumulative IPC: 0.619476 (Simulation time: 0 hr 31 min 5 sec) 
Heartbeat CPU 0 instructions: 640000000 cycles: 819047483 heartbeat IPC: 0.604251 cumulative IPC: 0.619121 (Simulation time: 0 hr 31 min 40 sec) 
Heartbeat CPU 0 instructions: 650000003 cycles: 835761396 heartbeat IPC: 0.598304 cumulative IPC: 0.618643 (Simulation time: 0 hr 32 min 15 sec) 
Heartbeat CPU 0 instructions: 660000000 cycles: 851945091 heartbeat IPC: 0.617906 cumulative IPC: 0.618627 (Simulation time: 0 hr 32 min 50 sec) 
Heartbeat CPU 0 instructions: 670000000 cycles: 868197680 heartbeat IPC: 0.615287 cumulative IPC: 0.618555 (Simulation time: 0 hr 33 min 24 sec) 
Heartbeat CPU 0 instructions: 680000000 cycles: 884600960 heartbeat IPC: 0.609634 cumulative IPC: 0.618367 (Simulation time: 0 hr 33 min 59 sec) 
Heartbeat CPU 0 instructions: 690000002 cycles: 900688867 heartbeat IPC: 0.621585 cumulative IPC: 0.618432 (Simulation time: 0 hr 34 min 32 sec) 
Heartbeat CPU 0 instructions: 700000000 cycles: 917125620 heartbeat IPC: 0.608393 cumulative IPC: 0.618228 (Simulation time: 0 hr 35 min 5 sec) 
Heartbeat CPU 0 instructions: 710000001 cycles: 933011361 heartbeat IPC: 0.629495 cumulative IPC: 0.618445 (Simulation time: 0 hr 35 min 37 sec) 
Heartbeat CPU 0 instructions: 720000000 cycles: 949191083 heartbeat IPC: 0.618058 cumulative IPC: 0.618438 (Simulation time: 0 hr 36 min 9 sec) 
Heartbeat CPU 0 instructions: 730000002 cycles: 964929725 heartbeat IPC: 0.635379 cumulative IPC: 0.618749 (Simulation time: 0 hr 36 min 41 sec) 
Heartbeat CPU 0 instructions: 740000000 cycles: 980914624 heartbeat IPC: 0.62559 cumulative IPC: 0.618874 (Simulation time: 0 hr 37 min 15 sec) 
Heartbeat CPU 0 instructions: 750000001 cycles: 997087056 heartbeat IPC: 0.618336 cumulative IPC: 0.618865 (Simulation time: 0 hr 37 min 48 sec) 
Heartbeat CPU 0 instructions: 760000000 cycles: 1013198474 heartbeat IPC: 0.620678 cumulative IPC: 0.618897 (Simulation time: 0 hr 38 min 21 sec) 
Heartbeat CPU 0 instructions: 770000003 cycles: 1029429806 heartbeat IPC: 0.616093 cumulative IPC: 0.618848 (Simulation time: 0 hr 38 min 55 sec) 
Heartbeat CPU 0 instructions: 780000000 cycles: 1045647040 heartbeat IPC: 0.616628 cumulative IPC: 0.618809 (Simulation time: 0 hr 39 min 28 sec) 
Heartbeat CPU 0 instructions: 790000000 cycles: 1061802105 heartbeat IPC: 0.619001 cumulative IPC: 0.618812 (Simulation time: 0 hr 40 min 1 sec) 
Heartbeat CPU 0 instructions: 800000000 cycles: 1077599858 heartbeat IPC: 0.633001 cumulative IPC: 0.619044 (Simulation time: 0 hr 40 min 34 sec) 
Heartbeat CPU 0 instructions: 810000000 cycles: 1093527185 heartbeat IPC: 0.627852 cumulative IPC: 0.619186 (Simulation time: 0 hr 41 min 6 sec) 
Heartbeat CPU 0 instructions: 820000000 cycles: 1109434599 heartbeat IPC: 0.628638 cumulative IPC: 0.619336 (Simulation time: 0 hr 41 min 40 sec) 
Heartbeat CPU 0 instructions: 830000001 cycles: 1125735656 heartbeat IPC: 0.613457 cumulative IPC: 0.619242 (Simulation time: 0 hr 42 min 14 sec) 
Heartbeat CPU 0 instructions: 840000000 cycles: 1141747077 heartbeat IPC: 0.624554 cumulative IPC: 0.619324 (Simulation time: 0 hr 42 min 49 sec) 
Heartbeat CPU 0 instructions: 850000001 cycles: 1157641197 heartbeat IPC: 0.629164 cumulative IPC: 0.619473 (Simulation time: 0 hr 43 min 24 sec) 
Heartbeat CPU 0 instructions: 860000000 cycles: 1173991678 heartbeat IPC: 0.611603 cumulative IPC: 0.619353 (Simulation time: 0 hr 43 min 59 sec) 
Heartbeat CPU 0 instructions: 870000000 cycles: 1190210615 heartbeat IPC: 0.616563 cumulative IPC: 0.619311 (Simulation time: 0 hr 44 min 34 sec) 
Heartbeat CPU 0 instructions: 880000000 cycles: 1206057465 heartbeat IPC: 0.63104 cumulative IPC: 0.61948 (Simulation time: 0 hr 45 min 10 sec) 
Heartbeat CPU 0 instructions: 890000003 cycles: 1222507122 heartbeat IPC: 0.607916 cumulative IPC: 0.619309 (Simulation time: 0 hr 45 min 45 sec) 
Heartbeat CPU 0 instructions: 900000000 cycles: 1238712841 heartbeat IPC: 0.617066 cumulative IPC: 0.619277 (Simulation time: 0 hr 46 min 20 sec) 
Heartbeat CPU 0 instructions: 910000002 cycles: 1255167070 heartbeat IPC: 0.607747 cumulative IPC: 0.619112 (Simulation time: 0 hr 46 min 55 sec) 
Heartbeat CPU 0 instructions: 920000000 cycles: 1270984104 heartbeat IPC: 0.63223 cumulative IPC: 0.61929 (Simulation time: 0 hr 47 min 29 sec) 
Heartbeat CPU 0 instructions: 930000000 cycles: 1287224050 heartbeat IPC: 0.615766 cumulative IPC: 0.619242 (Simulation time: 0 hr 48 min 3 sec) 
Heartbeat CPU 0 instructions: 940000000 cycles: 1303475142 heartbeat IPC: 0.615343 cumulative IPC: 0.619189 (Simulation time: 0 hr 48 min 37 sec) 
Heartbeat CPU 0 instructions: 950000000 cycles: 1319661669 heartbeat IPC: 0.617798 cumulative IPC: 0.61917 (Simulation time: 0 hr 49 min 10 sec) 
Heartbeat CPU 0 instructions: 960000000 cycles: 1336029439 heartbeat IPC: 0.610957 cumulative IPC: 0.619061 (Simulation time: 0 hr 49 min 46 sec) 
Heartbeat CPU 0 instructions: 970000002 cycles: 1352399552 heartbeat IPC: 0.610869 cumulative IPC: 0.618953 (Simulation time: 0 hr 50 min 21 sec) 
Heartbeat CPU 0 instructions: 980000000 cycles: 1368796842 heartbeat IPC: 0.609857 cumulative IPC: 0.618834 (Simulation time: 0 hr 50 min 56 sec) 
Heartbeat CPU 0 instructions: 990000003 cycles: 1385262024 heartbeat IPC: 0.607342 cumulative IPC: 0.618686 (Simulation time: 0 hr 51 min 31 sec) 
Heartbeat CPU 0 instructions: 1000000000 cycles: 1401387362 heartbeat IPC: 0.620142 cumulative IPC: 0.618704 (Simulation time: 0 hr 52 min 6 sec) 
Heartbeat CPU 0 instructions: 1010000003 cycles: 1417689661 heartbeat IPC: 0.613411 cumulative IPC: 0.618639 (Simulation time: 0 hr 52 min 41 sec) 
Heartbeat CPU 0 instructions: 1020000000 cycles: 1434143656 heartbeat IPC: 0.607755 cumulative IPC: 0.618503 (Simulation time: 0 hr 53 min 16 sec) 
Heartbeat CPU 0 instructions: 1030000001 cycles: 1450390995 heartbeat IPC: 0.615485 cumulative IPC: 0.618467 (Simulation time: 0 hr 53 min 49 sec) 
Heartbeat CPU 0 instructions: 1040000000 cycles: 1466710898 heartbeat IPC: 0.612749 cumulative IPC: 0.618398 (Simulation time: 0 hr 54 min 22 sec) 
Heartbeat CPU 0 instructions: 1050000001 cycles: 1483058489 heartbeat IPC: 0.611711 cumulative IPC: 0.618319 (Simulation time: 0 hr 54 min 55 sec) 
Heartbeat CPU 0 instructions: 1060000000 cycles: 1499082152 heartbeat IPC: 0.624077 cumulative IPC: 0.618385 (Simulation time: 0 hr 55 min 28 sec) 
Heartbeat CPU 0 instructions: 1070000003 cycles: 1514848078 heartbeat IPC: 0.634279 cumulative IPC: 0.618563 (Simulation time: 0 hr 56 min 2 sec) 
Heartbeat CPU 0 instructions: 1080000000 cycles: 1530838585 heartbeat IPC: 0.625371 cumulative IPC: 0.61864 (Simulation time: 0 hr 56 min 37 sec) 
Heartbeat CPU 0 instructions: 1090000002 cycles: 1546807901 heartbeat IPC: 0.626201 cumulative IPC: 0.618724 (Simulation time: 0 hr 57 min 11 sec) 
Heartbeat CPU 0 instructions: 1100000000 cycles: 1562744154 heartbeat IPC: 0.6275 cumulative IPC: 0.61882 (Simulation time: 0 hr 57 min 46 sec) 
Heartbeat CPU 0 instructions: 1110000002 cycles: 1578494554 heartbeat IPC: 0.634905 cumulative IPC: 0.618992 (Simulation time: 0 hr 58 min 20 sec) 
Heartbeat CPU 0 instructions: 1120000000 cycles: 1593738645 heartbeat IPC: 0.655992 cumulative IPC: 0.619372 (Simulation time: 0 hr 58 min 55 sec) 
Heartbeat CPU 0 instructions: 1130000001 cycles: 1609725944 heartbeat IPC: 0.625497 cumulative IPC: 0.619437 (Simulation time: 0 hr 59 min 29 sec) 
Heartbeat CPU 0 instructions: 1140000000 cycles: 1625642990 heartbeat IPC: 0.628257 cumulative IPC: 0.61953 (Simulation time: 1 hr 0 min 3 sec) 
Heartbeat CPU 0 instructions: 1150000003 cycles: 1641548457 heartbeat IPC: 0.628715 cumulative IPC: 0.619625 (Simulation time: 1 hr 0 min 36 sec) 
Heartbeat CPU 0 instructions: 1160000000 cycles: 1657357164 heartbeat IPC: 0.632563 cumulative IPC: 0.619757 (Simulation time: 1 hr 1 min 9 sec) 
Heartbeat CPU 0 instructions: 1170000000 cycles: 1673156705 heartbeat IPC: 0.63293 cumulative IPC: 0.61989 (Simulation time: 1 hr 1 min 42 sec) 
Heartbeat CPU 0 instructions: 1180000000 cycles: 1689082417 heartbeat IPC: 0.627915 cumulative IPC: 0.619971 (Simulation time: 1 hr 2 min 14 sec) 
Heartbeat CPU 0 instructions: 1190000003 cycles: 1705276664 heartbeat IPC: 0.617503 cumulative IPC: 0.619946 (Simulation time: 1 hr 2 min 45 sec) 
Heartbeat CPU 0 instructions: 1200000000 cycles: 1721614276 heartbeat IPC: 0.612084 cumulative IPC: 0.619866 (Simulation time: 1 hr 3 min 16 sec) 
Finished CPU 0 instructions: 1000000000 cycles: 1613251442 cumulative IPC: 0.619866 (Simulation time: 1 hr 3 min 16 sec) 

CPU 0 Branch Prediction Accuracy: 93.2169% MPKI: 13.6216

ChampSim completed all CPUs

Region of Interest Statistics

CPU 0 cumulative IPC: 0.619866 instructions: 1000000000 cycles: 1613251442
L1D TOTAL     ACCESS:  269112833  HIT:  267987759  MISS:    1125074
L1D LOAD      ACCESS:  185231866  HIT:  184417882  MISS:     813984
L1D RFO       ACCESS:   83880967  HIT:   83569877  MISS:     311090
L1D PREFETCH  ACCESS:          0  HIT:          0  MISS:          0
L1D WRITEBACK ACCESS:          0  HIT:          0  MISS:          0
L1D PREFETCH  REQUESTED:          0  ISSUED:          0  USEFUL:          0  USELESS:          0
L1I TOTAL     ACCESS:  231126300  HIT:  231059294  MISS:      67006
L1I LOAD      ACCESS:  231126300  HIT:  231059294  MISS:      67006
L1I RFO       ACCESS:          0  HIT:          0  MISS:          0
L1I PREFETCH  ACCESS:          0  HIT:          0  MISS:          0
L1I WRITEBACK ACCESS:          0  HIT:          0  MISS:          0
L1I PREFETCH  REQUESTED:          0  ISSUED:          0  USEFUL:          0  USELESS:          0
L2C TOTAL     ACCESS:    1820566  HIT:    1413818  MISS:     406748
L2C LOAD      ACCESS:     880987  HIT:     507832  MISS:     373155
L2C RFO       ACCESS:     311011  HIT:     279010  MISS:      32001
L2C PREFETCH  ACCESS:          0  HIT:          0  MISS:          0
L2C WRITEBACK ACCESS:     628568  HIT:     626976  MISS:       1592
L2C PREFETCH  REQUESTED:          0  ISSUED:          0  USEFUL:          0  USELESS:          0
LLC TOTAL     ACCESS:     712242  HIT:     384828  MISS:     327414
LLC LOAD      ACCESS:     373155  HIT:      66225  MISS:     306930
LLC RFO       ACCESS:      32001  HIT:      11756  MISS:      20245
LLC PREFETCH  ACCESS:          0  HIT:          0  MISS:          0
LLC WRITEBACK ACCESS:     307086  HIT:     306847  MISS:        239
LLC PREFETCH  REQUESTED:          0  ISSUED:          0  USEFUL:          0  USELESS:          0
Major fault: 0 Minor fault: 43680

DRAM Statistics
 CHANNEL 0
 RQ ROW_BUFFER_HIT:      54312  ROW_BUFFER_MISS:     272860
 DBUS_CONGESTED:     197745
 WQ ROW_BUFFER_HIT:      15875  ROW_BUFFER_MISS:     203008  FULL:          0

 AVG_CONGESTED_CYCLE: 14
