
*** ChampSim Multicore Out-of-Order Simulator ***

Warmup Instructions: 20000000
Simulation Instructions: 100000000
Number of CPUs: 8
LLC sets: 16384
LLC ways: 16
Off-chip DRAM Size: 8192 MB Channels: 2 Width: 64-bit Data Rate: 1600 MT/s

CPU 0 runs /scratch/user/djimenez/champsim-traces/speccpu2006/xz/454.calculix-460B.champsimtrace.xz
CPU 1 runs /scratch/user/djimenez/champsim-traces/speccpu2006/xz/482.sphinx3-1522B.champsimtrace.xz
CPU 2 runs /scratch/user/djimenez/champsim-traces/speccpu2006/xz/410.bwaves-2097B.champsimtrace.xz
CPU 3 runs /scratch/user/djimenez/champsim-traces/speccpu2006/xz/444.namd-321B.champsimtrace.xz
CPU 4 runs /scratch/user/djimenez/champsim-traces/speccpu2006/xz/465.tonto-44B.champsimtrace.xz
CPU 5 runs /scratch/user/djimenez/champsim-traces/speccpu2006/xz/482.sphinx3-1297B.champsimtrace.xz
CPU 6 runs /scratch/user/djimenez/champsim-traces/speccpu2006/xz/437.leslie3d-149B.champsimtrace.xz
CPU 7 runs /scratch/user/djimenez/champsim-traces/speccpu2006/xz/453.povray-800B.champsimtrace.xz
Heartbeat CPU 0 instructions: 10000000 cycles: 3331358 heartbeat IPC: 3.00178 cumulative IPC: 3.00178 (Simulation time: 0 hr 2 min 54 sec) 
Heartbeat CPU 1 instructions: 10000001 cycles: 3741559 heartbeat IPC: 2.67268 cumulative IPC: 2.67268 (Simulation time: 0 hr 3 min 15 sec) 
Heartbeat CPU 5 instructions: 10000003 cycles: 3955092 heartbeat IPC: 2.52839 cumulative IPC: 2.52839 (Simulation time: 0 hr 3 min 26 sec) 
Heartbeat CPU 3 instructions: 10000001 cycles: 4566311 heartbeat IPC: 2.18995 cumulative IPC: 2.18995 (Simulation time: 0 hr 4 min 0 sec) 
Heartbeat CPU 6 instructions: 10000000 cycles: 5003084 heartbeat IPC: 1.99877 cumulative IPC: 1.99877 (Simulation time: 0 hr 4 min 22 sec) 
Heartbeat CPU 4 instructions: 10000000 cycles: 5238272 heartbeat IPC: 1.90903 cumulative IPC: 1.90903 (Simulation time: 0 hr 4 min 35 sec) 
Heartbeat CPU 0 instructions: 20000000 cycles: 6550954 heartbeat IPC: 3.10598 cumulative IPC: 3.05299 (Simulation time: 0 hr 5 min 43 sec) 
Heartbeat CPU 2 instructions: 10000000 cycles: 6591967 heartbeat IPC: 1.517 cumulative IPC: 1.517 (Simulation time: 0 hr 5 min 45 sec) 
Heartbeat CPU 7 instructions: 10000000 cycles: 6646209 heartbeat IPC: 1.50462 cumulative IPC: 1.50462 (Simulation time: 0 hr 5 min 48 sec) 
Heartbeat CPU 1 instructions: 20000000 cycles: 7617393 heartbeat IPC: 2.58009 cumulative IPC: 2.62557 (Simulation time: 0 hr 6 min 39 sec) 
Heartbeat CPU 5 instructions: 20000000 cycles: 7805923 heartbeat IPC: 2.59684 cumulative IPC: 2.56216 (Simulation time: 0 hr 6 min 49 sec) 
Heartbeat CPU 3 instructions: 20000000 cycles: 8773555 heartbeat IPC: 2.37685 cumulative IPC: 2.27958 (Simulation time: 0 hr 7 min 41 sec) 
Heartbeat CPU 0 instructions: 30000001 cycles: 9846978 heartbeat IPC: 3.03396 cumulative IPC: 1.01554 (Simulation time: 0 hr 8 min 36 sec) 
Heartbeat CPU 6 instructions: 20000000 cycles: 9992906 heartbeat IPC: 2.00408 cumulative IPC: 2.00142 (Simulation time: 0 hr 8 min 44 sec) 
Heartbeat CPU 4 instructions: 20000000 cycles: 10357203 heartbeat IPC: 1.95353 cumulative IPC: 1.93102 (Simulation time: 0 hr 9 min 3 sec) 
Heartbeat CPU 1 instructions: 30000001 cycles: 11406752 heartbeat IPC: 2.63897 cumulative IPC: 0.876674 (Simulation time: 0 hr 9 min 58 sec) 
Heartbeat CPU 5 instructions: 30000001 cycles: 11644662 heartbeat IPC: 2.60502 cumulative IPC: 0.858763 (Simulation time: 0 hr 10 min 11 sec) 
Heartbeat CPU 0 instructions: 40000000 cycles: 13076198 heartbeat IPC: 3.09672 cumulative IPC: 1.5295 (Simulation time: 0 hr 11 min 22 sec) 
Heartbeat CPU 2 instructions: 20000000 cycles: 13184267 heartbeat IPC: 1.51692 cumulative IPC: 1.51696 (Simulation time: 0 hr 11 min 27 sec) 
Heartbeat CPU 3 instructions: 30000002 cycles: 13233814 heartbeat IPC: 2.24202 cumulative IPC: 0.75564 (Simulation time: 0 hr 11 min 29 sec) 
Heartbeat CPU 7 instructions: 20000000 cycles: 13409302 heartbeat IPC: 1.47861 cumulative IPC: 1.4915 (Simulation time: 0 hr 11 min 37 sec) 

Warmup complete CPU 0 instructions: 41039394 cycles: 13409303 (Simulation time: 0 hr 11 min 37 sec) 
Warmup complete CPU 1 instructions: 35324753 cycles: 13409303 (Simulation time: 0 hr 11 min 37 sec) 
Warmup complete CPU 2 instructions: 20341504 cycles: 13409303 (Simulation time: 0 hr 11 min 37 sec) 
Warmup complete CPU 3 instructions: 30371373 cycles: 13409303 (Simulation time: 0 hr 11 min 37 sec) 
Warmup complete CPU 4 instructions: 25613705 cycles: 13409303 (Simulation time: 0 hr 11 min 37 sec) 
Warmup complete CPU 5 instructions: 34530889 cycles: 13409303 (Simulation time: 0 hr 11 min 37 sec) 
Warmup complete CPU 6 instructions: 26821235 cycles: 13409303 (Simulation time: 0 hr 11 min 37 sec) 
Warmup complete CPU 7 instructions: 20000001 cycles: 13409303 (Simulation time: 0 hr 11 min 37 sec) 

Heartbeat CPU 6 instructions: 30000001 cycles: 17789826 heartbeat IPC: 1.28256 cumulative IPC: 0.725659 (Simulation time: 0 hr 13 min 41 sec) 
Heartbeat CPU 1 instructions: 40000000 cycles: 18035086 heartbeat IPC: 1.50867 cumulative IPC: 1.01069 (Simulation time: 0 hr 13 min 48 sec) 
Heartbeat CPU 0 instructions: 50000001 cycles: 18437868 heartbeat IPC: 1.86509 cumulative IPC: 1.78194 (Simulation time: 0 hr 14 min 0 sec) 
Heartbeat CPU 5 instructions: 40000000 cycles: 19573450 heartbeat IPC: 1.26123 cumulative IPC: 0.887245 (Simulation time: 0 hr 14 min 37 sec) 
Heartbeat CPU 3 instructions: 40000000 cycles: 20469825 heartbeat IPC: 1.38198 cumulative IPC: 1.36373 (Simulation time: 0 hr 15 min 3 sec) 
Heartbeat CPU 4 instructions: 30000001 cycles: 20808126 heartbeat IPC: 0.956853 cumulative IPC: 0.592837 (Simulation time: 0 hr 15 min 12 sec) 
Heartbeat CPU 0 instructions: 60000000 cycles: 24240656 heartbeat IPC: 1.72331 cumulative IPC: 1.75053 (Simulation time: 0 hr 16 min 44 sec) 
Heartbeat CPU 2 instructions: 30000002 cycles: 28353963 heartbeat IPC: 0.659209 cumulative IPC: 0.646284 (Simulation time: 0 hr 18 min 26 sec) 
Heartbeat CPU 1 instructions: 50000000 cycles: 28558127 heartbeat IPC: 0.950296 cumulative IPC: 0.968738 (Simulation time: 0 hr 18 min 31 sec) 
Heartbeat CPU 3 instructions: 50000000 cycles: 29281671 heartbeat IPC: 1.13484 cumulative IPC: 1.23665 (Simulation time: 0 hr 18 min 50 sec) 
Heartbeat CPU 5 instructions: 50000002 cycles: 30998816 heartbeat IPC: 0.875246 cumulative IPC: 0.879451 (Simulation time: 0 hr 19 min 35 sec) 
Heartbeat CPU 6 instructions: 40000000 cycles: 31817267 heartbeat IPC: 0.712888 cumulative IPC: 0.715927 (Simulation time: 0 hr 19 min 55 sec) 
Heartbeat CPU 0 instructions: 70000001 cycles: 34319170 heartbeat IPC: 0.99221 cumulative IPC: 1.38502 (Simulation time: 0 hr 21 min 2 sec) 
Heartbeat CPU 4 instructions: 40000000 cycles: 35120387 heartbeat IPC: 0.698702 cumulative IPC: 0.662624 (Simulation time: 0 hr 21 min 25 sec) 
Heartbeat CPU 3 instructions: 60000000 cycles: 37524296 heartbeat IPC: 1.21321 cumulative IPC: 1.22864 (Simulation time: 0 hr 22 min 29 sec) 
Heartbeat CPU 7 instructions: 30000003 cycles: 38496215 heartbeat IPC: 0.398614 cumulative IPC: 0.398614 (Simulation time: 0 hr 22 min 56 sec) 
Heartbeat CPU 1 instructions: 60000000 cycles: 38617887 heartbeat IPC: 0.99406 cumulative IPC: 0.978843 (Simulation time: 0 hr 23 min 0 sec) 
Heartbeat CPU 5 instructions: 60000000 cycles: 42891968 heartbeat IPC: 0.84082 cumulative IPC: 0.863867 (Simulation time: 0 hr 25 min 3 sec) 
Heartbeat CPU 0 instructions: 80000000 cycles: 43631292 heartbeat IPC: 1.07387 cumulative IPC: 1.28915 (Simulation time: 0 hr 25 min 25 sec) 
Heartbeat CPU 2 instructions: 40000000 cycles: 43870113 heartbeat IPC: 0.64449 cumulative IPC: 0.64537 (Simulation time: 0 hr 25 min 31 sec) 
Heartbeat CPU 3 instructions: 70000000 cycles: 44988357 heartbeat IPC: 1.33975 cumulative IPC: 1.2549 (Simulation time: 0 hr 26 min 5 sec) 
Heartbeat CPU 6 instructions: 50000000 cycles: 45766309 heartbeat IPC: 0.716895 cumulative IPC: 0.716345 (Simulation time: 0 hr 26 min 26 sec) 
Heartbeat CPU 1 instructions: 70000000 cycles: 48574556 heartbeat IPC: 1.00435 cumulative IPC: 0.986066 (Simulation time: 0 hr 27 min 45 sec) 
Heartbeat CPU 0 instructions: 90000002 cycles: 50744194 heartbeat IPC: 1.4059 cumulative IPC: 1.31139 (Simulation time: 0 hr 28 min 45 sec) 
Heartbeat CPU 4 instructions: 50000001 cycles: 50822973 heartbeat IPC: 0.636838 cumulative IPC: 0.651802 (Simulation time: 0 hr 28 min 47 sec) 
Heartbeat CPU 3 instructions: 80000000 cycles: 52715182 heartbeat IPC: 1.29419 cumulative IPC: 1.26263 (Simulation time: 0 hr 29 min 36 sec) 
Heartbeat CPU 5 instructions: 70000003 cycles: 55074390 heartbeat IPC: 0.820855 cumulative IPC: 0.851291 (Simulation time: 0 hr 30 min 37 sec) 
Heartbeat CPU 0 instructions: 100000000 cycles: 57136389 heartbeat IPC: 1.56441 cumulative IPC: 1.34838 (Simulation time: 0 hr 31 min 29 sec) 
Heartbeat CPU 2 instructions: 50000000 cycles: 59938519 heartbeat IPC: 0.622339 cumulative IPC: 0.637417 (Simulation time: 0 hr 32 min 32 sec) 
Heartbeat CPU 1 instructions: 80000000 cycles: 60577517 heartbeat IPC: 0.833128 cumulative IPC: 0.947147 (Simulation time: 0 hr 32 min 48 sec) 
Heartbeat CPU 3 instructions: 90000003 cycles: 60601669 heartbeat IPC: 1.26799 cumulative IPC: 1.26352 (Simulation time: 0 hr 32 min 49 sec) 
Heartbeat CPU 7 instructions: 40000000 cycles: 63212414 heartbeat IPC: 0.404593 cumulative IPC: 0.401581 (Simulation time: 0 hr 33 min 53 sec) 
Heartbeat CPU 4 instructions: 60000000 cycles: 63557700 heartbeat IPC: 0.785254 cumulative IPC: 0.685691 (Simulation time: 0 hr 34 min 1 sec) 
Heartbeat CPU 6 instructions: 60000000 cycles: 64941542 heartbeat IPC: 0.521506 cumulative IPC: 0.643845 (Simulation time: 0 hr 34 min 34 sec) 
Heartbeat CPU 0 instructions: 110000002 cycles: 65227507 heartbeat IPC: 1.23592 cumulative IPC: 1.33082 (Simulation time: 0 hr 34 min 40 sec) 
Heartbeat CPU 3 instructions: 100000000 cycles: 68085626 heartbeat IPC: 1.33619 cumulative IPC: 1.27347 (Simulation time: 0 hr 35 min 46 sec) 
Heartbeat CPU 5 instructions: 80000000 cycles: 69596077 heartbeat IPC: 0.688625 cumulative IPC: 0.809249 (Simulation time: 0 hr 36 min 19 sec) 
Heartbeat CPU 0 instructions: 120000000 cycles: 72694831 heartbeat IPC: 1.33917 cumulative IPC: 1.33187 (Simulation time: 0 hr 37 min 32 sec) 
Heartbeat CPU 1 instructions: 90000000 cycles: 73145856 heartbeat IPC: 0.79565 cumulative IPC: 0.915273 (Simulation time: 0 hr 37 min 43 sec) 
Heartbeat CPU 4 instructions: 70000002 cycles: 75949661 heartbeat IPC: 0.806975 cumulative IPC: 0.709722 (Simulation time: 0 hr 38 min 49 sec) 
Heartbeat CPU 3 instructions: 110000001 cycles: 76355282 heartbeat IPC: 1.20924 cumulative IPC: 1.26503 (Simulation time: 0 hr 38 min 59 sec) 
Heartbeat CPU 2 instructions: 60000000 cycles: 76931082 heartbeat IPC: 0.588493 cumulative IPC: 0.624329 (Simulation time: 0 hr 39 min 13 sec) 
Heartbeat CPU 0 instructions: 130000001 cycles: 79849428 heartbeat IPC: 1.3977 cumulative IPC: 1.33896 (Simulation time: 0 hr 40 min 20 sec) 
Heartbeat CPU 3 instructions: 120000000 cycles: 84036839 heartbeat IPC: 1.30182 cumulative IPC: 1.26903 (Simulation time: 0 hr 41 min 59 sec) 
Heartbeat CPU 5 instructions: 90000000 cycles: 84730693 heartbeat IPC: 0.660737 cumulative IPC: 0.777735 (Simulation time: 0 hr 42 min 16 sec) 
Heartbeat CPU 1 instructions: 100000000 cycles: 86751529 heartbeat IPC: 0.734988 cumulative IPC: 0.881828 (Simulation time: 0 hr 43 min 6 sec) 
Heartbeat CPU 0 instructions: 140000000 cycles: 86998600 heartbeat IPC: 1.39876 cumulative IPC: 1.34477 (Simulation time: 0 hr 43 min 11 sec) 
Finished CPU 0 instructions: 100000003 cycles: 74309006 cumulative IPC: 1.34573 (Simulation time: 0 hr 43 min 29 sec) 
Heartbeat CPU 7 instructions: 50000001 cycles: 87854399 heartbeat IPC: 0.405812 cumulative IPC: 0.402982 (Simulation time: 0 hr 43 min 32 sec) 
Heartbeat CPU 4 instructions: 80000000 cycles: 88371448 heartbeat IPC: 0.805037 cumulative IPC: 0.725517 (Simulation time: 0 hr 43 min 44 sec) 
Heartbeat CPU 6 instructions: 70000003 cycles: 89487832 heartbeat IPC: 0.407394 cumulative IPC: 0.567555 (Simulation time: 0 hr 44 min 12 sec) 
Heartbeat CPU 3 instructions: 130000003 cycles: 91982339 heartbeat IPC: 1.25857 cumulative IPC: 1.26797 (Simulation time: 0 hr 45 min 17 sec) 
Finished CPU 3 instructions: 100000002 cycles: 78819485 cumulative IPC: 1.26872 (Simulation time: 0 hr 45 min 23 sec) 
Heartbeat CPU 0 instructions: 150000003 cycles: 93591627 heartbeat IPC: 1.51675 cumulative IPC: 1.35891 (Simulation time: 0 hr 45 min 57 sec) 
Heartbeat CPU 2 instructions: 70000001 cycles: 93678233 heartbeat IPC: 0.597117 cumulative IPC: 0.618652 (Simulation time: 0 hr 45 min 59 sec) 
Heartbeat CPU 5 instructions: 100000000 cycles: 95674959 heartbeat IPC: 0.91372 cumulative IPC: 0.795826 (Simulation time: 0 hr 46 min 49 sec) 
Heartbeat CPU 3 instructions: 140000000 cycles: 100372535 heartbeat IPC: 1.19187 cumulative IPC: 1.26063 (Simulation time: 0 hr 48 min 44 sec) 
Heartbeat CPU 0 instructions: 160000000 cycles: 100718062 heartbeat IPC: 1.40323 cumulative IPC: 1.36253 (Simulation time: 0 hr 48 min 52 sec) 
Heartbeat CPU 4 instructions: 90000003 cycles: 100777297 heartbeat IPC: 0.806072 cumulative IPC: 0.736955 (Simulation time: 0 hr 48 min 53 sec) 
Heartbeat CPU 1 instructions: 110000003 cycles: 104592154 heartbeat IPC: 0.560519 cumulative IPC: 0.818962 (Simulation time: 0 hr 50 min 28 sec) 
Heartbeat CPU 5 instructions: 110000002 cycles: 106630680 heartbeat IPC: 0.912765 cumulative IPC: 0.809569 (Simulation time: 0 hr 51 min 15 sec) 
Heartbeat CPU 0 instructions: 170000000 cycles: 107691992 heartbeat IPC: 1.43391 cumulative IPC: 1.36781 (Simulation time: 0 hr 51 min 41 sec) 
Heartbeat CPU 3 instructions: 150000000 cycles: 109215943 heartbeat IPC: 1.13079 cumulative IPC: 1.24865 (Simulation time: 0 hr 52 min 19 sec) 
Heartbeat CPU 2 instructions: 80000000 cycles: 110366148 heartbeat IPC: 0.599236 cumulative IPC: 0.61531 (Simulation time: 0 hr 52 min 47 sec) 
Heartbeat CPU 7 instructions: 60000000 cycles: 112057285 heartbeat IPC: 0.413174 cumulative IPC: 0.405482 (Simulation time: 0 hr 53 min 32 sec) 
Heartbeat CPU 6 instructions: 80000000 cycles: 113851125 heartbeat IPC: 0.410453 cumulative IPC: 0.529448 (Simulation time: 0 hr 54 min 15 sec) 
Heartbeat CPU 0 instructions: 180000000 cycles: 114125643 heartbeat IPC: 1.55433 cumulative IPC: 1.37972 (Simulation time: 0 hr 54 min 22 sec) 
Heartbeat CPU 5 instructions: 120000000 cycles: 116315743 heartbeat IPC: 1.03252 cumulative IPC: 0.830552 (Simulation time: 0 hr 55 min 17 sec) 
Heartbeat CPU 4 instructions: 100000000 cycles: 116393880 heartbeat IPC: 0.640345 cumulative IPC: 0.722305 (Simulation time: 0 hr 55 min 19 sec) 
Heartbeat CPU 3 instructions: 160000000 cycles: 116550903 heartbeat IPC: 1.36333 cumulative IPC: 1.2568 (Simulation time: 0 hr 55 min 23 sec) 
Heartbeat CPU 0 instructions: 190000002 cycles: 120499897 heartbeat IPC: 1.56881 cumulative IPC: 1.39098 (Simulation time: 0 hr 57 min 7 sec) 
Heartbeat CPU 1 instructions: 120000000 cycles: 123958048 heartbeat IPC: 0.516372 cumulative IPC: 0.765954 (Simulation time: 0 hr 58 min 37 sec) 
Heartbeat CPU 3 instructions: 170000002 cycles: 125109411 heartbeat IPC: 1.16843 cumulative IPC: 1.25003 (Simulation time: 0 hr 59 min 4 sec) 
Heartbeat CPU 5 instructions: 130000001 cycles: 125465626 heartbeat IPC: 1.09291 cumulative IPC: 0.851974 (Simulation time: 0 hr 59 min 12 sec) 
Heartbeat CPU 2 instructions: 90000001 cycles: 126863094 heartbeat IPC: 0.606173 cumulative IPC: 0.613981 (Simulation time: 0 hr 59 min 47 sec) 
Heartbeat CPU 0 instructions: 200000000 cycles: 127326058 heartbeat IPC: 1.46495 cumulative IPC: 1.39541 (Simulation time: 0 hr 59 min 59 sec) 
Finished CPU 5 instructions: 100000002 cycles: 116655204 cumulative IPC: 0.857227 (Simulation time: 1 hr 1 min 4 sec) 
Heartbeat CPU 4 instructions: 110000000 cycles: 132106839 heartbeat IPC: 0.636417 cumulative IPC: 0.710936 (Simulation time: 1 hr 1 min 55 sec) 
Heartbeat CPU 3 instructions: 180000000 cycles: 133072307 heartbeat IPC: 1.25582 cumulative IPC: 1.25042 (Simulation time: 1 hr 2 min 20 sec) 
Heartbeat CPU 0 instructions: 210000001 cycles: 134670466 heartbeat IPC: 1.36158 cumulative IPC: 1.39336 (Simulation time: 1 hr 3 min 2 sec) 
Heartbeat CPU 5 instructions: 140000000 cycles: 134874591 heartbeat IPC: 1.06282 cumulative IPC: 0.868307 (Simulation time: 1 hr 3 min 7 sec) 
Heartbeat CPU 7 instructions: 70000000 cycles: 135013044 heartbeat IPC: 0.435621 cumulative IPC: 0.411172 (Simulation time: 1 hr 3 min 11 sec) 
Heartbeat CPU 6 instructions: 90000003 cycles: 138017657 heartbeat IPC: 0.413796 cumulative IPC: 0.507019 (Simulation time: 1 hr 4 min 26 sec) 
Heartbeat CPU 3 instructions: 190000001 cycles: 140547232 heartbeat IPC: 1.33781 cumulative IPC: 1.25555 (Simulation time: 1 hr 5 min 28 sec) 
Heartbeat CPU 0 instructions: 220000000 cycles: 141762770 heartbeat IPC: 1.40998 cumulative IPC: 1.39428 (Simulation time: 1 hr 5 min 58 sec) 
Heartbeat CPU 2 instructions: 100000000 cycles: 143465837 heartbeat IPC: 0.60231 cumulative IPC: 0.612491 (Simulation time: 1 hr 6 min 42 sec) 
Heartbeat CPU 1 instructions: 130000001 cycles: 143834119 heartbeat IPC: 0.503118 cumulative IPC: 0.725899 (Simulation time: 1 hr 6 min 51 sec) 
Heartbeat CPU 5 instructions: 150000003 cycles: 144165256 heartbeat IPC: 1.07635 cumulative IPC: 0.883089 (Simulation time: 1 hr 7 min 0 sec) 
Heartbeat CPU 4 instructions: 120000000 cycles: 147739840 heartbeat IPC: 0.639672 cumulative IPC: 0.702642 (Simulation time: 1 hr 8 min 29 sec) 
Heartbeat CPU 0 instructions: 230000003 cycles: 148339734 heartbeat IPC: 1.52046 cumulative IPC: 1.40043 (Simulation time: 1 hr 8 min 45 sec) 
Heartbeat CPU 3 instructions: 200000000 cycles: 149108816 heartbeat IPC: 1.16801 cumulative IPC: 1.25003 (Simulation time: 1 hr 9 min 5 sec) 
Finished CPU 1 instructions: 100000003 cycles: 140239612 cumulative IPC: 0.713065 (Simulation time: 1 hr 10 min 58 sec) 
Heartbeat CPU 5 instructions: 160000000 cycles: 154413445 heartbeat IPC: 0.975782 cumulative IPC: 0.889826 (Simulation time: 1 hr 11 min 18 sec) 
Heartbeat CPU 0 instructions: 240000000 cycles: 154912808 heartbeat IPC: 1.52136 cumulative IPC: 1.40605 (Simulation time: 1 hr 11 min 32 sec) 
Finished CPU 4 instructions: 100000003 cycles: 143285992 cumulative IPC: 0.697905 (Simulation time: 1 hr 12 min 27 sec) 
Heartbeat CPU 3 instructions: 210000001 cycles: 156879567 heartbeat IPC: 1.28688 cumulative IPC: 1.25203 (Simulation time: 1 hr 12 min 35 sec) 
Heartbeat CPU 7 instructions: 80000000 cycles: 157562972 heartbeat IPC: 0.44346 cumulative IPC: 0.416222 (Simulation time: 1 hr 12 min 53 sec) 
Heartbeat CPU 2 instructions: 110000001 cycles: 160011146 heartbeat IPC: 0.604401 cumulative IPC: 0.611578 (Simulation time: 1 hr 13 min 56 sec) 
Heartbeat CPU 0 instructions: 250000000 cycles: 160652056 heartbeat IPC: 1.74239 cumulative IPC: 1.41916 (Simulation time: 1 hr 14 min 10 sec) 
Heartbeat CPU 6 instructions: 100000000 cycles: 161761007 heartbeat IPC: 0.42117 cumulative IPC: 0.493279 (Simulation time: 1 hr 14 min 39 sec) 
Heartbeat CPU 1 instructions: 140000000 cycles: 162904760 heartbeat IPC: 0.524366 cumulative IPC: 0.70019 (Simulation time: 1 hr 15 min 17 sec) 
Heartbeat CPU 4 instructions: 130000002 cycles: 163386439 heartbeat IPC: 0.639117 cumulative IPC: 0.696015 (Simulation time: 1 hr 15 min 33 sec) 
Heartbeat CPU 5 instructions: 170000000 cycles: 164679540 heartbeat IPC: 0.97408 cumulative IPC: 0.895544 (Simulation time: 1 hr 16 min 11 sec) 
Heartbeat CPU 3 instructions: 220000000 cycles: 164998004 heartbeat IPC: 1.23176 cumulative IPC: 1.25094 (Simulation time: 1 hr 16 min 19 sec) 
Heartbeat CPU 0 instructions: 260000000 cycles: 166304320 heartbeat IPC: 1.7692 cumulative IPC: 1.4321 (Simulation time: 1 hr 16 min 54 sec) 
Heartbeat CPU 3 instructions: 230000000 cycles: 172785087 heartbeat IPC: 1.28418 cumulative IPC: 1.25257 (Simulation time: 1 hr 19 min 51 sec) 
Heartbeat CPU 0 instructions: 270000003 cycles: 173114504 heartbeat IPC: 1.46839 cumulative IPC: 1.43365 (Simulation time: 1 hr 19 min 58 sec) 
Heartbeat CPU 5 instructions: 180000000 cycles: 175685803 heartbeat IPC: 0.908574 cumulative IPC: 0.896427 (Simulation time: 1 hr 21 min 8 sec) 
Heartbeat CPU 2 instructions: 120000000 cycles: 177436894 heartbeat IPC: 0.573863 cumulative IPC: 0.607572 (Simulation time: 1 hr 21 min 53 sec) 
Heartbeat CPU 6 instructions: 110000000 cycles: 177725879 heartbeat IPC: 0.626375 cumulative IPC: 0.50621 (Simulation time: 1 hr 22 min 0 sec) 
Finished CPU 2 instructions: 100000000 cycles: 164636885 cumulative IPC: 0.607397 (Simulation time: 1 hr 22 min 7 sec) 
Heartbeat CPU 4 instructions: 140000000 cycles: 179932043 heartbeat IPC: 0.60439 cumulative IPC: 0.686911 (Simulation time: 1 hr 22 min 53 sec) 
Heartbeat CPU 7 instructions: 90000001 cycles: 180091432 heartbeat IPC: 0.443883 cumulative IPC: 0.419961 (Simulation time: 1 hr 22 min 56 sec) 
Heartbeat CPU 3 instructions: 240000000 cycles: 180292972 heartbeat IPC: 1.33193 cumulative IPC: 1.25614 (Simulation time: 1 hr 23 min 2 sec) 
Heartbeat CPU 1 instructions: 150000000 cycles: 182963662 heartbeat IPC: 0.498532 cumulative IPC: 0.676333 (Simulation time: 1 hr 24 min 5 sec) 
Heartbeat CPU 0 instructions: 280000000 cycles: 183705339 heartbeat IPC: 0.944212 cumulative IPC: 1.40321 (Simulation time: 1 hr 24 min 22 sec) 
Heartbeat CPU 3 instructions: 250000000 cycles: 188594234 heartbeat IPC: 1.20464 cumulative IPC: 1.2537 (Simulation time: 1 hr 26 min 18 sec) 
Heartbeat CPU 5 instructions: 190000002 cycles: 189025827 heartbeat IPC: 0.749624 cumulative IPC: 0.885276 (Simulation time: 1 hr 26 min 29 sec) 
Heartbeat CPU 6 instructions: 120000000 cycles: 190876496 heartbeat IPC: 0.760421 cumulative IPC: 0.525048 (Simulation time: 1 hr 27 min 13 sec) 
Heartbeat CPU 0 instructions: 290000001 cycles: 192794455 heartbeat IPC: 1.10022 cumulative IPC: 1.38786 (Simulation time: 1 hr 27 min 58 sec) 
Heartbeat CPU 2 instructions: 130000000 cycles: 194688393 heartbeat IPC: 0.57966 cumulative IPC: 0.604915 (Simulation time: 1 hr 28 min 43 sec) 
Heartbeat CPU 4 instructions: 150000001 cycles: 195783164 heartbeat IPC: 0.63087 cumulative IPC: 0.68204 (Simulation time: 1 hr 29 min 10 sec) 
Heartbeat CPU 3 instructions: 260000000 cycles: 196025923 heartbeat IPC: 1.34559 cumulative IPC: 1.25744 (Simulation time: 1 hr 29 min 17 sec) 
Heartbeat CPU 0 instructions: 300000000 cycles: 198782185 heartbeat IPC: 1.67008 cumulative IPC: 1.39697 (Simulation time: 1 hr 30 min 24 sec) 
Finished CPU 6 instructions: 100000003 cycles: 186919299 cumulative IPC: 0.53499 (Simulation time: 1 hr 31 min 1 sec) 
Heartbeat CPU 5 instructions: 200000000 cycles: 200632169 heartbeat IPC: 0.861598 cumulative IPC: 0.883808 (Simulation time: 1 hr 31 min 9 sec) 
Heartbeat CPU 1 instructions: 160000000 cycles: 200751431 heartbeat IPC: 0.562184 cumulative IPC: 0.665495 (Simulation time: 1 hr 31 min 12 sec) 
Heartbeat CPU 7 instructions: 100000000 cycles: 202579899 heartbeat IPC: 0.444672 cumulative IPC: 0.422899 (Simulation time: 1 hr 32 min 0 sec) 
Heartbeat CPU 3 instructions: 270000001 cycles: 203792309 heartbeat IPC: 1.2876 cumulative IPC: 1.25867 (Simulation time: 1 hr 32 min 30 sec) 
Heartbeat CPU 6 instructions: 130000003 cycles: 204677997 heartbeat IPC: 0.724559 cumulative IPC: 0.539444 (Simulation time: 1 hr 32 min 50 sec) 
Heartbeat CPU 0 instructions: 310000002 cycles: 206048115 heartbeat IPC: 1.37629 cumulative IPC: 1.39619 (Simulation time: 1 hr 33 min 24 sec) 
Heartbeat CPU 2 instructions: 140000000 cycles: 211277543 heartbeat IPC: 0.602804 cumulative IPC: 0.604738 (Simulation time: 1 hr 35 min 37 sec) 
Heartbeat CPU 4 instructions: 160000000 cycles: 211642481 heartbeat IPC: 0.630544 cumulative IPC: 0.67792 (Simulation time: 1 hr 35 min 46 sec) 
Heartbeat CPU 3 instructions: 280000000 cycles: 212327587 heartbeat IPC: 1.17161 cumulative IPC: 1.25493 (Simulation time: 1 hr 36 min 5 sec) 
Heartbeat CPU 5 instructions: 210000000 cycles: 212493083 heartbeat IPC: 0.843105 cumulative IPC: 0.881383 (Simulation time: 1 hr 36 min 9 sec) 
Heartbeat CPU 0 instructions: 320000000 cycles: 212756394 heartbeat IPC: 1.49069 cumulative IPC: 1.39937 (Simulation time: 1 hr 36 min 16 sec) 
Heartbeat CPU 1 instructions: 170000001 cycles: 214703145 heartbeat IPC: 0.716758 cumulative IPC: 0.669048 (Simulation time: 1 hr 37 min 8 sec) 
Heartbeat CPU 6 instructions: 140000000 cycles: 218400096 heartbeat IPC: 0.728751 cumulative IPC: 0.552116 (Simulation time: 1 hr 38 min 43 sec) 
Heartbeat CPU 3 instructions: 290000001 cycles: 219877367 heartbeat IPC: 1.32454 cumulative IPC: 1.25748 (Simulation time: 1 hr 39 min 22 sec) 
Heartbeat CPU 0 instructions: 330000002 cycles: 220553338 heartbeat IPC: 1.28255 cumulative IPC: 1.39497 (Simulation time: 1 hr 39 min 40 sec) 
Heartbeat CPU 5 instructions: 220000000 cycles: 222629846 heartbeat IPC: 0.986508 cumulative IPC: 0.886477 (Simulation time: 1 hr 40 min 41 sec) 
Heartbeat CPU 7 instructions: 110000001 cycles: 225058786 heartbeat IPC: 0.444862 cumulative IPC: 0.425231 (Simulation time: 1 hr 41 min 53 sec) 
Heartbeat CPU 1 instructions: 180000000 cycles: 226075305 heartbeat IPC: 0.87934 cumulative IPC: 0.680293 (Simulation time: 1 hr 42 min 24 sec) 
Heartbeat CPU 4 instructions: 170000000 cycles: 227368002 heartbeat IPC: 0.635909 cumulative IPC: 0.674833 (Simulation time: 1 hr 43 min 2 sec) 
Heartbeat CPU 2 instructions: 150000002 cycles: 227644319 heartbeat IPC: 0.610994 cumulative IPC: 0.605216 (Simulation time: 1 hr 43 min 10 sec) 
Heartbeat CPU 3 instructions: 300000000 cycles: 227807639 heartbeat IPC: 1.26099 cumulative IPC: 1.25761 (Simulation time: 1 hr 43 min 14 sec) 
Heartbeat CPU 0 instructions: 340000000 cycles: 227892283 heartbeat IPC: 1.36259 cumulative IPC: 1.39387 (Simulation time: 1 hr 43 min 16 sec) 
Heartbeat CPU 6 instructions: 150000003 cycles: 231845949 heartbeat IPC: 0.743724 cumulative IPC: 0.563911 (Simulation time: 1 hr 45 min 5 sec) 
Heartbeat CPU 5 instructions: 230000003 cycles: 232927580 heartbeat IPC: 0.971088 cumulative IPC: 0.890446 (Simulation time: 1 hr 45 min 33 sec) 
Heartbeat CPU 0 instructions: 350000001 cycles: 234836993 heartbeat IPC: 1.43995 cumulative IPC: 1.39531 (Simulation time: 1 hr 46 min 21 sec) 
Heartbeat CPU 3 instructions: 310000003 cycles: 234943640 heartbeat IPC: 1.40135 cumulative IPC: 1.26224 (Simulation time: 1 hr 46 min 24 sec) 
Heartbeat CPU 1 instructions: 190000000 cycles: 236442559 heartbeat IPC: 0.964576 cumulative IPC: 0.693508 (Simulation time: 1 hr 47 min 3 sec) 
Heartbeat CPU 0 instructions: 360000000 cycles: 241618741 heartbeat IPC: 1.47455 cumulative IPC: 1.39767 (Simulation time: 1 hr 49 min 12 sec) 
Heartbeat CPU 5 instructions: 240000000 cycles: 242492503 heartbeat IPC: 1.04549 cumulative IPC: 0.896919 (Simulation time: 1 hr 49 min 34 sec) 
Heartbeat CPU 3 instructions: 320000000 cycles: 243438090 heartbeat IPC: 1.17724 cumulative IPC: 1.2591 (Simulation time: 1 hr 49 min 58 sec) 
Heartbeat CPU 2 instructions: 160000000 cycles: 243708311 heartbeat IPC: 0.62251 cumulative IPC: 0.606422 (Simulation time: 1 hr 50 min 5 sec) 
Heartbeat CPU 4 instructions: 180000000 cycles: 244042633 heartbeat IPC: 0.599713 cumulative IPC: 0.669401 (Simulation time: 1 hr 50 min 14 sec) 
Heartbeat CPU 6 instructions: 160000000 cycles: 245289871 heartbeat IPC: 0.74383 cumulative IPC: 0.574342 (Simulation time: 1 hr 50 min 46 sec) 
Heartbeat CPU 1 instructions: 200000000 cycles: 247117997 heartbeat IPC: 0.93673 cumulative IPC: 0.704618 (Simulation time: 1 hr 51 min 33 sec) 
Heartbeat CPU 7 instructions: 120000000 cycles: 247693863 heartbeat IPC: 0.441792 cumulative IPC: 0.426831 (Simulation time: 1 hr 51 min 48 sec) 
Finished CPU 7 instructions: 100000000 cycles: 234284573 cumulative IPC: 0.426831 (Simulation time: 1 hr 51 min 48 sec) 

CPU 0 Branch Prediction Accuracy: 98.9705% MPKI: 0.507727

CPU 1 Branch Prediction Accuracy: 97.6495% MPKI: 1.87083

CPU 2 Branch Prediction Accuracy: 97.2574% MPKI: 0.762791

CPU 3 Branch Prediction Accuracy: 96.5878% MPKI: 1.81585

CPU 4 Branch Prediction Accuracy: 98.7357% MPKI: 1.45846

CPU 5 Branch Prediction Accuracy: 97.9768% MPKI: 1.69941

CPU 6 Branch Prediction Accuracy: 99.1642% MPKI: 0.269264

CPU 7 Branch Prediction Accuracy: 96.8409% MPKI: 3.07888

ChampSim completed all CPUs

Total Simulation Statistics (not including warmup)

CPU 0 cumulative IPC: 1.4015 instructions: 328349209 cycles: 234284573
L1D TOTAL     ACCESS:   57607208  HIT:   53432910  MISS:    4174298
L1D LOAD      ACCESS:   48404267  HIT:   44296808  MISS:    4107459
L1D RFO       ACCESS:    9202941  HIT:    9136102  MISS:      66839
L1D PREFETCH  ACCESS:          0  HIT:          0  MISS:          0
L1D WRITEBACK ACCESS:          0  HIT:          0  MISS:          0
L1I TOTAL     ACCESS:   68473086  HIT:   68472394  MISS:        692
L1I LOAD      ACCESS:   68473086  HIT:   68472394  MISS:        692
L1I RFO       ACCESS:          0  HIT:          0  MISS:          0
L1I PREFETCH  ACCESS:          0  HIT:          0  MISS:          0
L1I WRITEBACK ACCESS:          0  HIT:          0  MISS:          0
L2C TOTAL     ACCESS:    5111668  HIT:    1863287  MISS:    3248381
L2C LOAD      ACCESS:    4108150  HIT:     936908  MISS:    3171242
L2C RFO       ACCESS:      66839  HIT:       2995  MISS:      63844
L2C PREFETCH  ACCESS:          0  HIT:          0  MISS:          0
L2C WRITEBACK ACCESS:     936679  HIT:     923384  MISS:      13295
LLC TOTAL     ACCESS:    4016510  HIT:    3663801  MISS:     352709
LLC LOAD      ACCESS:    3171242  HIT:    2840422  MISS:     330820
LLC RFO       ACCESS:      63844  HIT:      42388  MISS:      21456
LLC PREFETCH  ACCESS:          0  HIT:          0  MISS:          0
LLC WRITEBACK ACCESS:     781424  HIT:     780991  MISS:        433

CPU 1 cumulative IPC: 0.70574 instructions: 165344102 cycles: 234284573
L1D TOTAL     ACCESS:   26764331  HIT:   24390925  MISS:    2373406
L1D LOAD      ACCESS:   24301850  HIT:   22076991  MISS:    2224859
L1D RFO       ACCESS:    2462481  HIT:    2313934  MISS:     148547
L1D PREFETCH  ACCESS:          0  HIT:          0  MISS:          0
L1D WRITEBACK ACCESS:          0  HIT:          0  MISS:          0
L1I TOTAL     ACCESS:   44450783  HIT:   44450544  MISS:        239
L1I LOAD      ACCESS:   44450783  HIT:   44450544  MISS:        239
L1I RFO       ACCESS:          0  HIT:          0  MISS:          0
L1I PREFETCH  ACCESS:          0  HIT:          0  MISS:          0
L1I WRITEBACK ACCESS:          0  HIT:          0  MISS:          0
L2C TOTAL     ACCESS:    2560356  HIT:     485314  MISS:    2075042
L2C LOAD      ACCESS:    2225095  HIT:     284701  MISS:    1940394
L2C RFO       ACCESS:     148546  HIT:      14440  MISS:     134106
L2C PREFETCH  ACCESS:          0  HIT:          0  MISS:          0
L2C WRITEBACK ACCESS:     186715  HIT:     186173  MISS:        542
LLC TOTAL     ACCESS:    2241603  HIT:    1457662  MISS:     783941
LLC LOAD      ACCESS:    1940394  HIT:    1189445  MISS:     750949
LLC RFO       ACCESS:     134106  HIT:     101170  MISS:      32936
LLC PREFETCH  ACCESS:          0  HIT:          0  MISS:          0
LLC WRITEBACK ACCESS:     167103  HIT:     167047  MISS:         56

CPU 2 cumulative IPC: 0.606796 instructions: 142162853 cycles: 234284573
L1D TOTAL     ACCESS:   68976288  HIT:   66115157  MISS:    2861131
L1D LOAD      ACCESS:   58371353  HIT:   55583329  MISS:    2788024
L1D RFO       ACCESS:   10604935  HIT:   10531828  MISS:      73107
L1D PREFETCH  ACCESS:          0  HIT:          0  MISS:          0
L1D WRITEBACK ACCESS:          0  HIT:          0  MISS:          0
L1I TOTAL     ACCESS:   34639438  HIT:   34639438  MISS:          0
L1I LOAD      ACCESS:   34639438  HIT:   34639438  MISS:          0
L1I RFO       ACCESS:          0  HIT:          0  MISS:          0
L1I PREFETCH  ACCESS:          0  HIT:          0  MISS:          0
L1I WRITEBACK ACCESS:          0  HIT:          0  MISS:          0
L2C TOTAL     ACCESS:    2944694  HIT:     333844  MISS:    2610850
L2C LOAD      ACCESS:    2787301  HIT:     244845  MISS:    2542456
L2C RFO       ACCESS:      72742  HIT:       5849  MISS:      66893
L2C PREFETCH  ACCESS:          0  HIT:          0  MISS:          0
L2C WRITEBACK ACCESS:      84651  HIT:      83150  MISS:       1501
LLC TOTAL     ACCESS:    2677750  HIT:     109431  MISS:    2568319
LLC LOAD      ACCESS:    2542456  HIT:      41253  MISS:    2501203
LLC RFO       ACCESS:      66893  HIT:          0  MISS:      66893
LLC PREFETCH  ACCESS:          0  HIT:          0  MISS:          0
LLC WRITEBACK ACCESS:      68401  HIT:      68178  MISS:        223

CPU 3 cumulative IPC: 1.26074 instructions: 295372967 cycles: 234284573
L1D TOTAL     ACCESS:   62505266  HIT:   60871636  MISS:    1633630
L1D LOAD      ACCESS:   50399793  HIT:   48835083  MISS:    1564710
L1D RFO       ACCESS:   12105473  HIT:   12036553  MISS:      68920
L1D PREFETCH  ACCESS:          0  HIT:          0  MISS:          0
L1D WRITEBACK ACCESS:          0  HIT:          0  MISS:          0
L1I TOTAL     ACCESS:   69935988  HIT:   69935988  MISS:          0
L1I LOAD      ACCESS:   69935988  HIT:   69935988  MISS:          0
L1I RFO       ACCESS:          0  HIT:          0  MISS:          0
L1I PREFETCH  ACCESS:          0  HIT:          0  MISS:          0
L1I WRITEBACK ACCESS:          0  HIT:          0  MISS:          0
L2C TOTAL     ACCESS:    1920169  HIT:    1869459  MISS:      50710
L2C LOAD      ACCESS:    1564636  HIT:    1514214  MISS:      50422
L2C RFO       ACCESS:      68903  HIT:      68635  MISS:        268
L2C PREFETCH  ACCESS:          0  HIT:          0  MISS:          0
L2C WRITEBACK ACCESS:     286630  HIT:     286610  MISS:         20
LLC TOTAL     ACCESS:      60845  HIT:       4395  MISS:      56450
LLC LOAD      ACCESS:      50422  HIT:       1891  MISS:      48531
LLC RFO       ACCESS:        268  HIT:        175  MISS:         93
LLC PREFETCH  ACCESS:          0  HIT:          0  MISS:          0
LLC WRITEBACK ACCESS:      10155  HIT:       2329  MISS:       7826

CPU 4 cumulative IPC: 0.668496 instructions: 156618359 cycles: 234284573
L1D TOTAL     ACCESS:   48767703  HIT:   47561679  MISS:    1206024
L1D LOAD      ACCESS:   31830115  HIT:   31182593  MISS:     647522
L1D RFO       ACCESS:   16937588  HIT:   16379086  MISS:     558502
L1D PREFETCH  ACCESS:          0  HIT:          0  MISS:          0
L1D WRITEBACK ACCESS:          0  HIT:          0  MISS:          0
L1I TOTAL     ACCESS:   43170242  HIT:   43119840  MISS:      50402
L1I LOAD      ACCESS:   43170242  HIT:   43119840  MISS:      50402
L1I RFO       ACCESS:          0  HIT:          0  MISS:          0
L1I PREFETCH  ACCESS:          0  HIT:          0  MISS:          0
L1I WRITEBACK ACCESS:          0  HIT:          0  MISS:          0
L2C TOTAL     ACCESS:    1829677  HIT:    1573246  MISS:     256431
L2C LOAD      ACCESS:     687996  HIT:     593827  MISS:      94169
L2C RFO       ACCESS:     555926  HIT:     394179  MISS:     161747
L2C PREFETCH  ACCESS:          0  HIT:          0  MISS:          0
L2C WRITEBACK ACCESS:     585755  HIT:     585240  MISS:        515
LLC TOTAL     ACCESS:     427313  HIT:     345510  MISS:      81803
LLC LOAD      ACCESS:      94168  HIT:      68267  MISS:      25901
LLC RFO       ACCESS:     161703  HIT:     128848  MISS:      32855
LLC PREFETCH  ACCESS:          0  HIT:          0  MISS:          0
LLC WRITEBACK ACCESS:     171442  HIT:     148395  MISS:      23047

CPU 5 cumulative IPC: 0.902987 instructions: 211555938 cycles: 234284573
L1D TOTAL     ACCESS:   36663924  HIT:   33137372  MISS:    3526552
L1D LOAD      ACCESS:   32396190  HIT:   29123352  MISS:    3272838
L1D RFO       ACCESS:    4267734  HIT:    4014020  MISS:     253714
L1D PREFETCH  ACCESS:          0  HIT:          0  MISS:          0
L1D WRITEBACK ACCESS:          0  HIT:          0  MISS:          0
L1I TOTAL     ACCESS:   57101039  HIT:   57100727  MISS:        312
L1I LOAD      ACCESS:   57101039  HIT:   57100727  MISS:        312
L1I RFO       ACCESS:          0  HIT:          0  MISS:          0
L1I PREFETCH  ACCESS:          0  HIT:          0  MISS:          0
L1I WRITEBACK ACCESS:          0  HIT:          0  MISS:          0
L2C TOTAL     ACCESS:    3891361  HIT:    1038426  MISS:    2852935
L2C LOAD      ACCESS:    3273146  HIT:     641179  MISS:    2631967
L2C RFO       ACCESS:     253698  HIT:      33448  MISS:     220250
L2C PREFETCH  ACCESS:          0  HIT:          0  MISS:          0
L2C WRITEBACK ACCESS:     364517  HIT:     363799  MISS:        718
LLC TOTAL     ACCESS:    3162348  HIT:    2889994  MISS:     272354
LLC LOAD      ACCESS:    2631966  HIT:    2371773  MISS:     260193
LLC RFO       ACCESS:     220250  HIT:     208089  MISS:      12161
LLC PREFETCH  ACCESS:          0  HIT:          0  MISS:          0
LLC WRITEBACK ACCESS:     310132  HIT:     310132  MISS:          0

CPU 6 cumulative IPC: 0.576154 instructions: 134984057 cycles: 234284573
L1D TOTAL     ACCESS:   37685706  HIT:   36196086  MISS:    1489620
L1D LOAD      ACCESS:   32985100  HIT:   31944265  MISS:    1040835
L1D RFO       ACCESS:    4700606  HIT:    4251821  MISS:     448785
L1D PREFETCH  ACCESS:          0  HIT:          0  MISS:          0
L1D WRITEBACK ACCESS:          0  HIT:          0  MISS:          0
L1I TOTAL     ACCESS:   30066979  HIT:   30066693  MISS:        286
L1I LOAD      ACCESS:   30066979  HIT:   30066693  MISS:        286
L1I RFO       ACCESS:          0  HIT:          0  MISS:          0
L1I PREFETCH  ACCESS:          0  HIT:          0  MISS:          0
L1I WRITEBACK ACCESS:          0  HIT:          0  MISS:          0
L2C TOTAL     ACCESS:    2125119  HIT:     847892  MISS:    1277227
L2C LOAD      ACCESS:    1041121  HIT:     151044  MISS:     890077
L2C RFO       ACCESS:     448729  HIT:      62370  MISS:     386359
L2C PREFETCH  ACCESS:          0  HIT:          0  MISS:          0
L2C WRITEBACK ACCESS:     635269  HIT:     634478  MISS:        791
LLC TOTAL     ACCESS:    1838985  HIT:     705899  MISS:    1133086
LLC LOAD      ACCESS:     890077  HIT:      96416  MISS:     793661
LLC RFO       ACCESS:     386359  HIT:      47616  MISS:     338743
LLC PREFETCH  ACCESS:          0  HIT:          0  MISS:          0
LLC WRITEBACK ACCESS:     562549  HIT:     561867  MISS:        682

CPU 7 cumulative IPC: 0.426831 instructions: 100000000 cycles: 234284573
L1D TOTAL     ACCESS:   37121205  HIT:   35684134  MISS:    1437071
L1D LOAD      ACCESS:   22983812  HIT:   21744954  MISS:    1238858
L1D RFO       ACCESS:   14137393  HIT:   13939180  MISS:     198213
L1D PREFETCH  ACCESS:          0  HIT:          0  MISS:          0
L1D WRITEBACK ACCESS:          0  HIT:          0  MISS:          0
L1I TOTAL     ACCESS:   30548182  HIT:   30143500  MISS:     404682
L1I LOAD      ACCESS:   30548182  HIT:   30143500  MISS:     404682
L1I RFO       ACCESS:          0  HIT:          0  MISS:          0
L1I PREFETCH  ACCESS:          0  HIT:          0  MISS:          0
L1I WRITEBACK ACCESS:          0  HIT:          0  MISS:          0
L2C TOTAL     ACCESS:    2102433  HIT:    2101471  MISS:        962
L2C LOAD      ACCESS:    1643540  HIT:    1642660  MISS:        880
L2C RFO       ACCESS:     198110  HIT:     198028  MISS:         82
L2C PREFETCH  ACCESS:          0  HIT:          0  MISS:          0
L2C WRITEBACK ACCESS:     260783  HIT:     260783  MISS:          0
LLC TOTAL     ACCESS:        980  HIT:        113  MISS:        867
LLC LOAD      ACCESS:        880  HIT:         83  MISS:        797
LLC RFO       ACCESS:         82  HIT:         16  MISS:         66
LLC PREFETCH  ACCESS:          0  HIT:          0  MISS:          0
LLC WRITEBACK ACCESS:         18  HIT:         14  MISS:          4

Region of Interest Statistics

CPU 0 cumulative IPC: 1.34573 instructions: 100000003 cycles: 74309006
L1D TOTAL     ACCESS:   18038299  HIT:   16724544  MISS:    1313755
L1D LOAD      ACCESS:   14305278  HIT:   13024835  MISS:    1280443
L1D RFO       ACCESS:    3733021  HIT:    3699709  MISS:      33312
L1D PREFETCH  ACCESS:          0  HIT:          0  MISS:          0
L1D WRITEBACK ACCESS:          0  HIT:          0  MISS:          0
L1D PREFETCH  REQUESTED:          0  ISSUED:          0  USEFUL:          0  USELESS:          0
L1I TOTAL     ACCESS:   21641336  HIT:   21640871  MISS:        465
L1I LOAD      ACCESS:   21641336  HIT:   21640871  MISS:        465
L1I RFO       ACCESS:          0  HIT:          0  MISS:          0
L1I PREFETCH  ACCESS:          0  HIT:          0  MISS:          0
L1I WRITEBACK ACCESS:          0  HIT:          0  MISS:          0
L1I PREFETCH  REQUESTED:          0  ISSUED:          0  USEFUL:          0  USELESS:          0
L2C TOTAL     ACCESS:    1726825  HIT:     673878  MISS:    1052947
L2C LOAD      ACCESS:    1280908  HIT:     267074  MISS:    1013834
L2C RFO       ACCESS:      33312  HIT:       1045  MISS:      32267
L2C PREFETCH  ACCESS:          0  HIT:          0  MISS:          0
L2C WRITEBACK ACCESS:     412605  HIT:     405759  MISS:       6846
L2C PREFETCH  REQUESTED:          0  ISSUED:          0  USEFUL:          0  USELESS:          0
LLC TOTAL     ACCESS:    1391040  HIT:    1283448  MISS:     107592
LLC LOAD      ACCESS:    1013836  HIT:     917437  MISS:      96399
LLC RFO       ACCESS:      32267  HIT:      21333  MISS:      10934
LLC PREFETCH  ACCESS:          0  HIT:          0  MISS:          0
LLC WRITEBACK ACCESS:     344937  HIT:     344678  MISS:        259
LLC PREFETCH  REQUESTED:          0  ISSUED:          0  USEFUL:          0  USELESS:          0
Major fault: 0 Minor fault: 3563

CPU 1 cumulative IPC: 0.713065 instructions: 100000003 cycles: 140239612
L1D TOTAL     ACCESS:   16228281  HIT:   14789643  MISS:    1438638
L1D LOAD      ACCESS:   14702021  HIT:   13352166  MISS:    1349855
L1D RFO       ACCESS:    1526260  HIT:    1437477  MISS:      88783
L1D PREFETCH  ACCESS:          0  HIT:          0  MISS:          0
L1D WRITEBACK ACCESS:          0  HIT:          0  MISS:          0
L1D PREFETCH  REQUESTED:          0  ISSUED:          0  USEFUL:          0  USELESS:          0
L1I TOTAL     ACCESS:   26828043  HIT:   26827904  MISS:        139
L1I LOAD      ACCESS:   26828043  HIT:   26827904  MISS:        139
L1I RFO       ACCESS:          0  HIT:          0  MISS:          0
L1I PREFETCH  ACCESS:          0  HIT:          0  MISS:          0
L1I WRITEBACK ACCESS:          0  HIT:          0  MISS:          0
L1I PREFETCH  REQUESTED:          0  ISSUED:          0  USEFUL:          0  USELESS:          0
L2C TOTAL     ACCESS:    1550169  HIT:     295941  MISS:    1254228
L2C LOAD      ACCESS:    1349993  HIT:     175829  MISS:    1174164
L2C RFO       ACCESS:      88782  HIT:       9054  MISS:      79728
L2C PREFETCH  ACCESS:          0  HIT:          0  MISS:          0
L2C WRITEBACK ACCESS:     111394  HIT:     111058  MISS:        336
L2C PREFETCH  REQUESTED:          0  ISSUED:          0  USEFUL:          0  USELESS:          0
LLC TOTAL     ACCESS:    1353298  HIT:     888228  MISS:     465070
LLC LOAD      ACCESS:    1174164  HIT:     727475  MISS:     446689
LLC RFO       ACCESS:      79728  HIT:      61386  MISS:      18342
LLC PREFETCH  ACCESS:          0  HIT:          0  MISS:          0
LLC WRITEBACK ACCESS:      99406  HIT:      99367  MISS:         39
LLC PREFETCH  REQUESTED:          0  ISSUED:          0  USEFUL:          0  USELESS:          0
Major fault: 0 Minor fault: 2337

CPU 2 cumulative IPC: 0.607397 instructions: 100000000 cycles: 164636885
L1D TOTAL     ACCESS:   48521729  HIT:   46509167  MISS:    2012562
L1D LOAD      ACCESS:   41061102  HIT:   39099961  MISS:    1961141
L1D RFO       ACCESS:    7460627  HIT:    7409206  MISS:      51421
L1D PREFETCH  ACCESS:          0  HIT:          0  MISS:          0
L1D WRITEBACK ACCESS:          0  HIT:          0  MISS:          0
L1D PREFETCH  REQUESTED:          0  ISSUED:          0  USEFUL:          0  USELESS:          0
L1I TOTAL     ACCESS:   24371500  HIT:   24371500  MISS:          0
L1I LOAD      ACCESS:   24371500  HIT:   24371500  MISS:          0
L1I RFO       ACCESS:          0  HIT:          0  MISS:          0
L1I PREFETCH  ACCESS:          0  HIT:          0  MISS:          0
L1I WRITEBACK ACCESS:          0  HIT:          0  MISS:          0
L1I PREFETCH  REQUESTED:          0  ISSUED:          0  USEFUL:          0  USELESS:          0
L2C TOTAL     ACCESS:    2071360  HIT:     234835  MISS:    1836525
L2C LOAD      ACCESS:    1960649  HIT:     172231  MISS:    1788418
L2C RFO       ACCESS:      51163  HIT:       4109  MISS:      47054
L2C PREFETCH  ACCESS:          0  HIT:          0  MISS:          0
L2C WRITEBACK ACCESS:      59548  HIT:      58495  MISS:       1053
L2C PREFETCH  REQUESTED:          0  ISSUED:          0  USEFUL:          0  USELESS:          0
LLC TOTAL     ACCESS:    1883581  HIT:      76724  MISS:    1806857
LLC LOAD      ACCESS:    1788418  HIT:      28768  MISS:    1759650
LLC RFO       ACCESS:      47054  HIT:          0  MISS:      47054
LLC PREFETCH  ACCESS:          0  HIT:          0  MISS:          0
LLC WRITEBACK ACCESS:      48109  HIT:      47956  MISS:        153
LLC PREFETCH  REQUESTED:          0  ISSUED:          0  USEFUL:          0  USELESS:          0
Major fault: 0 Minor fault: 44302

CPU 3 cumulative IPC: 1.26872 instructions: 100000002 cycles: 78819485
L1D TOTAL     ACCESS:   21033716  HIT:   20492728  MISS:     540988
L1D LOAD      ACCESS:   16970944  HIT:   16453610  MISS:     517334
L1D RFO       ACCESS:    4062772  HIT:    4039118  MISS:      23654
L1D PREFETCH  ACCESS:          0  HIT:          0  MISS:          0
L1D WRITEBACK ACCESS:          0  HIT:          0  MISS:          0
L1D PREFETCH  REQUESTED:          0  ISSUED:          0  USEFUL:          0  USELESS:          0
L1I TOTAL     ACCESS:   23694313  HIT:   23694313  MISS:          0
L1I LOAD      ACCESS:   23694313  HIT:   23694313  MISS:          0
L1I RFO       ACCESS:          0  HIT:          0  MISS:          0
L1I PREFETCH  ACCESS:          0  HIT:          0  MISS:          0
L1I WRITEBACK ACCESS:          0  HIT:          0  MISS:          0
L1I PREFETCH  REQUESTED:          0  ISSUED:          0  USEFUL:          0  USELESS:          0
L2C TOTAL     ACCESS:     634664  HIT:     618105  MISS:      16559
L2C LOAD      ACCESS:     517311  HIT:     500846  MISS:      16465
L2C RFO       ACCESS:      23651  HIT:      23567  MISS:         84
L2C PREFETCH  ACCESS:          0  HIT:          0  MISS:          0
L2C WRITEBACK ACCESS:      93702  HIT:      93692  MISS:         10
L2C PREFETCH  REQUESTED:          0  ISSUED:          0  USEFUL:          0  USELESS:          0
LLC TOTAL     ACCESS:      19681  HIT:       1165  MISS:      18516
LLC LOAD      ACCESS:      16465  HIT:        490  MISS:      15975
LLC RFO       ACCESS:         84  HIT:         61  MISS:         23
LLC PREFETCH  ACCESS:          0  HIT:          0  MISS:          0
LLC WRITEBACK ACCESS:       3132  HIT:        614  MISS:       2518
LLC PREFETCH  REQUESTED:          0  ISSUED:          0  USEFUL:          0  USELESS:          0
Major fault: 0 Minor fault: 584

CPU 4 cumulative IPC: 0.697905 instructions: 100000003 cycles: 143285992
L1D TOTAL     ACCESS:   30218823  HIT:   29268540  MISS:     950283
L1D LOAD      ACCESS:   20222253  HIT:   19712764  MISS:     509489
L1D RFO       ACCESS:    9996570  HIT:    9555776  MISS:     440794
L1D PREFETCH  ACCESS:          0  HIT:          0  MISS:          0
L1D WRITEBACK ACCESS:          0  HIT:          0  MISS:          0
L1D PREFETCH  REQUESTED:          0  ISSUED:          0  USEFUL:          0  USELESS:          0
L1I TOTAL     ACCESS:   26488465  HIT:   26445458  MISS:      43007
L1I LOAD      ACCESS:   26488465  HIT:   26445458  MISS:      43007
L1I RFO       ACCESS:          0  HIT:          0  MISS:          0
L1I PREFETCH  ACCESS:          0  HIT:          0  MISS:          0
L1I WRITEBACK ACCESS:          0  HIT:          0  MISS:          0
L1I PREFETCH  REQUESTED:          0  ISSUED:          0  USEFUL:          0  USELESS:          0
L2C TOTAL     ACCESS:    1447550  HIT:    1238581  MISS:     208969
L2C LOAD      ACCESS:     545502  HIT:     470648  MISS:      74854
L2C RFO       ACCESS:     439086  HIT:     305384  MISS:     133702
L2C PREFETCH  ACCESS:          0  HIT:          0  MISS:          0
L2C WRITEBACK ACCESS:     462962  HIT:     462549  MISS:        413
L2C PREFETCH  REQUESTED:          0  ISSUED:          0  USEFUL:          0  USELESS:          0
LLC TOTAL     ACCESS:     349623  HIT:     301269  MISS:      48354
LLC LOAD      ACCESS:      74853  HIT:      58018  MISS:      16835
LLC RFO       ACCESS:     133667  HIT:     115619  MISS:      18048
LLC PREFETCH  ACCESS:          0  HIT:          0  MISS:          0
LLC WRITEBACK ACCESS:     141103  HIT:     127632  MISS:      13471
LLC PREFETCH  REQUESTED:          0  ISSUED:          0  USEFUL:          0  USELESS:          0
Major fault: 0 Minor fault: 542

CPU 5 cumulative IPC: 0.857227 instructions: 100000002 cycles: 116655204
L1D TOTAL     ACCESS:   17496085  HIT:   15792373  MISS:    1703712
L1D LOAD      ACCESS:   15344565  HIT:   13762139  MISS:    1582426
L1D RFO       ACCESS:    2151520  HIT:    2030234  MISS:     121286
L1D PREFETCH  ACCESS:          0  HIT:          0  MISS:          0
L1D WRITEBACK ACCESS:          0  HIT:          0  MISS:          0
L1D PREFETCH  REQUESTED:          0  ISSUED:          0  USEFUL:          0  USELESS:          0
L1I TOTAL     ACCESS:   26915405  HIT:   26915243  MISS:        162
L1I LOAD      ACCESS:   26915405  HIT:   26915243  MISS:        162
L1I RFO       ACCESS:          0  HIT:          0  MISS:          0
L1I PREFETCH  ACCESS:          0  HIT:          0  MISS:          0
L1I WRITEBACK ACCESS:          0  HIT:          0  MISS:          0
L1I PREFETCH  REQUESTED:          0  ISSUED:          0  USEFUL:          0  USELESS:          0
L2C TOTAL     ACCESS:    1881972  HIT:     526205  MISS:    1355767
L2C LOAD      ACCESS:    1582586  HIT:     330766  MISS:    1251820
L2C RFO       ACCESS:     121283  HIT:      17660  MISS:     103623
L2C PREFETCH  ACCESS:          0  HIT:          0  MISS:          0
L2C WRITEBACK ACCESS:     178103  HIT:     177779  MISS:        324
L2C PREFETCH  REQUESTED:          0  ISSUED:          0  USEFUL:          0  USELESS:          0
LLC TOTAL     ACCESS:    1501829  HIT:    1332127  MISS:     169702
LLC LOAD      ACCESS:    1251819  HIT:    1089978  MISS:     161841
LLC RFO       ACCESS:     103623  HIT:      95762  MISS:       7861
LLC PREFETCH  ACCESS:          0  HIT:          0  MISS:          0
LLC WRITEBACK ACCESS:     146387  HIT:     146387  MISS:          0
LLC PREFETCH  REQUESTED:          0  ISSUED:          0  USEFUL:          0  USELESS:          0
Major fault: 0 Minor fault: 3416

CPU 6 cumulative IPC: 0.53499 instructions: 100000003 cycles: 186919299
L1D TOTAL     ACCESS:   28577343  HIT:   27259341  MISS:    1318002
L1D LOAD      ACCESS:   24272317  HIT:   23317302  MISS:     955015
L1D RFO       ACCESS:    4305026  HIT:    3942039  MISS:     362987
L1D PREFETCH  ACCESS:          0  HIT:          0  MISS:          0
L1D WRITEBACK ACCESS:          0  HIT:          0  MISS:          0
L1D PREFETCH  REQUESTED:          0  ISSUED:          0  USEFUL:          0  USELESS:          0
L1I TOTAL     ACCESS:   22266138  HIT:   22265852  MISS:        286
L1I LOAD      ACCESS:   22266138  HIT:   22265852  MISS:        286
L1I RFO       ACCESS:          0  HIT:          0  MISS:          0
L1I PREFETCH  ACCESS:          0  HIT:          0  MISS:          0
L1I WRITEBACK ACCESS:          0  HIT:          0  MISS:          0
L1I PREFETCH  REQUESTED:          0  ISSUED:          0  USEFUL:          0  USELESS:          0
L2C TOTAL     ACCESS:    1867699  HIT:     762090  MISS:    1105609
L2C LOAD      ACCESS:     955301  HIT:     151044  MISS:     804257
L2C RFO       ACCESS:     362931  HIT:      62370  MISS:     300561
L2C PREFETCH  ACCESS:          0  HIT:          0  MISS:          0
L2C WRITEBACK ACCESS:     549467  HIT:     548676  MISS:        791
L2C PREFETCH  REQUESTED:          0  ISSUED:          0  USEFUL:          0  USELESS:          0
LLC TOTAL     ACCESS:    1581488  HIT:     620015  MISS:     961473
LLC LOAD      ACCESS:     804257  HIT:      96411  MISS:     707846
LLC RFO       ACCESS:     300561  HIT:      47616  MISS:     252945
LLC PREFETCH  ACCESS:          0  HIT:          0  MISS:          0
LLC WRITEBACK ACCESS:     476670  HIT:     475988  MISS:        682
LLC PREFETCH  REQUESTED:          0  ISSUED:          0  USEFUL:          0  USELESS:          0
Major fault: 0 Minor fault: 14229

CPU 7 cumulative IPC: 0.426831 instructions: 100000000 cycles: 234284573
L1D TOTAL     ACCESS:   37121205  HIT:   35684134  MISS:    1437071
L1D LOAD      ACCESS:   22983812  HIT:   21744954  MISS:    1238858
L1D RFO       ACCESS:   14137393  HIT:   13939180  MISS:     198213
L1D PREFETCH  ACCESS:          0  HIT:          0  MISS:          0
L1D WRITEBACK ACCESS:          0  HIT:          0  MISS:          0
L1D PREFETCH  REQUESTED:          0  ISSUED:          0  USEFUL:          0  USELESS:          0
L1I TOTAL     ACCESS:   30548182  HIT:   30143500  MISS:     404682
L1I LOAD      ACCESS:   30548182  HIT:   30143500  MISS:     404682
L1I RFO       ACCESS:          0  HIT:          0  MISS:          0
L1I PREFETCH  ACCESS:          0  HIT:          0  MISS:          0
L1I WRITEBACK ACCESS:          0  HIT:          0  MISS:          0
L1I PREFETCH  REQUESTED:          0  ISSUED:          0  USEFUL:          0  USELESS:          0
L2C TOTAL     ACCESS:    2102433  HIT:    2101471  MISS:        962
L2C LOAD      ACCESS:    1643540  HIT:    1642660  MISS:        880
L2C RFO       ACCESS:     198110  HIT:     198028  MISS:         82
L2C PREFETCH  ACCESS:          0  HIT:          0  MISS:          0
L2C WRITEBACK ACCESS:     260783  HIT:     260783  MISS:          0
L2C PREFETCH  REQUESTED:          0  ISSUED:          0  USEFUL:          0  USELESS:          0
LLC TOTAL     ACCESS:        980  HIT:        113  MISS:        867
LLC LOAD      ACCESS:        880  HIT:         83  MISS:        797
LLC RFO       ACCESS:         82  HIT:         16  MISS:         66
LLC PREFETCH  ACCESS:          0  HIT:          0  MISS:          0
LLC WRITEBACK ACCESS:         18  HIT:         14  MISS:          4
LLC PREFETCH  REQUESTED:          0  ISSUED:          0  USEFUL:          0  USELESS:          0
Major fault: 0 Minor fault: 207

DRAM Statistics
 CHANNEL 0
 RQ ROW_BUFFER_HIT:    1593702  ROW_BUFFER_MISS:    1014282
 DBUS_CONGESTED:    1801567
 WQ ROW_BUFFER_HIT:      45343  ROW_BUFFER_MISS:     372889  FULL:          0

 CHANNEL 1
 RQ ROW_BUFFER_HIT:    1591671  ROW_BUFFER_MISS:    1017029
 DBUS_CONGESTED:    1801567
 WQ ROW_BUFFER_HIT:      45352  ROW_BUFFER_MISS:     373289  FULL:          0

 AVG_CONGESTED_CYCLE: 12
