
*** ChampSim Multicore Out-of-Order Simulator ***

Warmup Instructions: 20000000
Simulation Instructions: 100000000
Number of CPUs: 8
LLC sets: 16384
LLC ways: 16
Off-chip DRAM Size: 8192 MB Channels: 2 Width: 64-bit Data Rate: 1600 MT/s

CPU 0 runs /scratch/user/djimenez/champsim-traces/speccpu2006/xz/470.lbm-1274B.champsimtrace.xz
CPU 1 runs /scratch/user/djimenez/champsim-traces/speccpu2006/xz/444.namd-33B.champsimtrace.xz
CPU 2 runs /scratch/user/djimenez/champsim-traces/speccpu2006/xz/459.GemsFDTD-765B.champsimtrace.xz
CPU 3 runs /scratch/user/djimenez/champsim-traces/speccpu2006/xz/410.bwaves-945B.champsimtrace.xz
CPU 4 runs /scratch/user/djimenez/champsim-traces/speccpu2006/xz/482.sphinx3-234B.champsimtrace.xz
CPU 5 runs /scratch/user/djimenez/champsim-traces/speccpu2006/xz/437.leslie3d-134B.champsimtrace.xz
CPU 6 runs /scratch/user/djimenez/champsim-traces/speccpu2006/xz/401.bzip2-277B.champsimtrace.xz
CPU 7 runs /scratch/user/djimenez/champsim-traces/speccpu2006/xz/444.namd-120B.champsimtrace.xz
Heartbeat CPU 6 instructions: 10000001 cycles: 3342271 heartbeat IPC: 2.99198 cumulative IPC: 2.99198 (Simulation time: 0 hr 2 min 50 sec) 
Heartbeat CPU 3 instructions: 10000002 cycles: 3637510 heartbeat IPC: 2.74913 cumulative IPC: 2.74913 (Simulation time: 0 hr 3 min 5 sec) 
Heartbeat CPU 0 instructions: 10000003 cycles: 3764559 heartbeat IPC: 2.65635 cumulative IPC: 2.65635 (Simulation time: 0 hr 3 min 11 sec) 
Heartbeat CPU 4 instructions: 10000003 cycles: 3848233 heartbeat IPC: 2.5986 cumulative IPC: 2.5986 (Simulation time: 0 hr 3 min 16 sec) 
Heartbeat CPU 1 instructions: 10000001 cycles: 4119934 heartbeat IPC: 2.42722 cumulative IPC: 2.42722 (Simulation time: 0 hr 3 min 30 sec) 
Heartbeat CPU 7 instructions: 10000003 cycles: 4671139 heartbeat IPC: 2.14081 cumulative IPC: 2.14081 (Simulation time: 0 hr 3 min 58 sec) 
Heartbeat CPU 5 instructions: 10000000 cycles: 5000908 heartbeat IPC: 1.99964 cumulative IPC: 1.99964 (Simulation time: 0 hr 4 min 14 sec) 
Heartbeat CPU 6 instructions: 20000000 cycles: 6934980 heartbeat IPC: 2.78341 cumulative IPC: 2.88393 (Simulation time: 0 hr 5 min 53 sec) 
Heartbeat CPU 3 instructions: 20000000 cycles: 7269283 heartbeat IPC: 2.75348 cumulative IPC: 2.7513 (Simulation time: 0 hr 6 min 10 sec) 
Heartbeat CPU 0 instructions: 20000000 cycles: 7523579 heartbeat IPC: 2.66027 cumulative IPC: 2.65831 (Simulation time: 0 hr 6 min 23 sec) 
Heartbeat CPU 4 instructions: 20000000 cycles: 7680462 heartbeat IPC: 2.60945 cumulative IPC: 2.60401 (Simulation time: 0 hr 6 min 31 sec) 
Heartbeat CPU 2 instructions: 10000001 cycles: 8129654 heartbeat IPC: 1.23006 cumulative IPC: 1.23006 (Simulation time: 0 hr 6 min 54 sec) 
Heartbeat CPU 1 instructions: 20000000 cycles: 8218637 heartbeat IPC: 2.4398 cumulative IPC: 2.43349 (Simulation time: 0 hr 6 min 58 sec) 
Heartbeat CPU 7 instructions: 20000000 cycles: 8803681 heartbeat IPC: 2.41982 cumulative IPC: 2.27178 (Simulation time: 0 hr 7 min 28 sec) 
Heartbeat CPU 5 instructions: 20000000 cycles: 9992451 heartbeat IPC: 2.00339 cumulative IPC: 2.00151 (Simulation time: 0 hr 8 min 28 sec) 
Heartbeat CPU 3 instructions: 30000000 cycles: 10894887 heartbeat IPC: 2.75816 cumulative IPC: 0.917862 (Simulation time: 0 hr 9 min 12 sec) 
Heartbeat CPU 0 instructions: 30000003 cycles: 11286880 heartbeat IPC: 2.65724 cumulative IPC: 0.885985 (Simulation time: 0 hr 9 min 32 sec) 
Heartbeat CPU 4 instructions: 30000000 cycles: 11588770 heartbeat IPC: 2.55865 cumulative IPC: 0.862904 (Simulation time: 0 hr 9 min 48 sec) 
Heartbeat CPU 6 instructions: 30000002 cycles: 11893855 heartbeat IPC: 2.01659 cumulative IPC: 0.84077 (Simulation time: 0 hr 10 min 3 sec) 
Heartbeat CPU 1 instructions: 30000001 cycles: 12450650 heartbeat IPC: 2.36294 cumulative IPC: 0.803171 (Simulation time: 0 hr 10 min 29 sec) 
Heartbeat CPU 7 instructions: 30000003 cycles: 13379883 heartbeat IPC: 2.18522 cumulative IPC: 0.747391 (Simulation time: 0 hr 11 min 12 sec) 
Heartbeat CPU 3 instructions: 40000000 cycles: 14523935 heartbeat IPC: 2.75554 cumulative IPC: 1.37704 (Simulation time: 0 hr 12 min 5 sec) 
Heartbeat CPU 5 instructions: 30000000 cycles: 14978757 heartbeat IPC: 2.00549 cumulative IPC: 0.667612 (Simulation time: 0 hr 12 min 26 sec) 
Heartbeat CPU 0 instructions: 40000000 cycles: 15050288 heartbeat IPC: 2.65717 cumulative IPC: 1.32888 (Simulation time: 0 hr 12 min 30 sec) 
Heartbeat CPU 4 instructions: 40000000 cycles: 15364732 heartbeat IPC: 2.64833 cumulative IPC: 1.30168 (Simulation time: 0 hr 12 min 45 sec) 
Heartbeat CPU 2 instructions: 20000000 cycles: 16258652 heartbeat IPC: 1.23016 cumulative IPC: 1.23011 (Simulation time: 0 hr 13 min 33 sec) 

Warmup complete CPU 0 instructions: 43210530 cycles: 16258653 (Simulation time: 0 hr 13 min 33 sec) 
Warmup complete CPU 1 instructions: 39324934 cycles: 16258653 (Simulation time: 0 hr 13 min 33 sec) 
Warmup complete CPU 2 instructions: 20000001 cycles: 16258653 (Simulation time: 0 hr 13 min 33 sec) 
Warmup complete CPU 3 instructions: 44786073 cycles: 16258652 (Simulation time: 0 hr 13 min 33 sec) 
Warmup complete CPU 4 instructions: 42421953 cycles: 16258652 (Simulation time: 0 hr 13 min 33 sec) 
Warmup complete CPU 5 instructions: 32562356 cycles: 16258652 (Simulation time: 0 hr 13 min 33 sec) 
Warmup complete CPU 6 instructions: 38793856 cycles: 16258652 (Simulation time: 0 hr 13 min 33 sec) 
Warmup complete CPU 7 instructions: 36564542 cycles: 16258652 (Simulation time: 0 hr 13 min 33 sec) 

Heartbeat CPU 1 instructions: 40000000 cycles: 16819508 heartbeat IPC: 2.28893 cumulative IPC: 1.20364 (Simulation time: 0 hr 13 min 56 sec) 
Heartbeat CPU 6 instructions: 40000000 cycles: 17723339 heartbeat IPC: 1.71542 cumulative IPC: 0.823482 (Simulation time: 0 hr 14 min 21 sec) 
Heartbeat CPU 7 instructions: 40000000 cycles: 18655813 heartbeat IPC: 1.8954 cumulative IPC: 1.43314 (Simulation time: 0 hr 14 min 46 sec) 
Heartbeat CPU 3 instructions: 50000000 cycles: 22100491 heartbeat IPC: 1.31986 cumulative IPC: 0.892515 (Simulation time: 0 hr 16 min 8 sec) 
Heartbeat CPU 1 instructions: 50000002 cycles: 24709641 heartbeat IPC: 1.26741 cumulative IPC: 1.26317 (Simulation time: 0 hr 17 min 10 sec) 
Heartbeat CPU 0 instructions: 50000000 cycles: 25559294 heartbeat IPC: 0.951565 cumulative IPC: 0.73 (Simulation time: 0 hr 17 min 31 sec) 
Heartbeat CPU 7 instructions: 50000001 cycles: 27143703 heartbeat IPC: 1.17815 cumulative IPC: 1.2343 (Simulation time: 0 hr 18 min 9 sec) 
Heartbeat CPU 5 instructions: 40000000 cycles: 27780769 heartbeat IPC: 0.781127 cumulative IPC: 0.64551 (Simulation time: 0 hr 18 min 24 sec) 
Heartbeat CPU 6 instructions: 50000000 cycles: 29406005 heartbeat IPC: 0.855969 cumulative IPC: 0.85235 (Simulation time: 0 hr 19 min 3 sec) 
Heartbeat CPU 1 instructions: 60000000 cycles: 32543516 heartbeat IPC: 1.27651 cumulative IPC: 1.26959 (Simulation time: 0 hr 20 min 19 sec) 
Heartbeat CPU 3 instructions: 60000000 cycles: 33335022 heartbeat IPC: 0.890113 cumulative IPC: 0.890934 (Simulation time: 0 hr 20 min 38 sec) 
Heartbeat CPU 4 instructions: 50000001 cycles: 34051652 heartbeat IPC: 0.535134 cumulative IPC: 0.425901 (Simulation time: 0 hr 20 min 56 sec) 
Heartbeat CPU 7 instructions: 60000000 cycles: 35122186 heartbeat IPC: 1.25337 cumulative IPC: 1.24237 (Simulation time: 0 hr 21 min 23 sec) 
Heartbeat CPU 2 instructions: 30000001 cycles: 37000662 heartbeat IPC: 0.482113 cumulative IPC: 0.482113 (Simulation time: 0 hr 22 min 10 sec) 
Heartbeat CPU 1 instructions: 70000000 cycles: 39339457 heartbeat IPC: 1.47147 cumulative IPC: 1.32903 (Simulation time: 0 hr 23 min 9 sec) 
Heartbeat CPU 0 instructions: 60000000 cycles: 39763819 heartbeat IPC: 0.704001 cumulative IPC: 0.714289 (Simulation time: 0 hr 23 min 20 sec) 
Heartbeat CPU 6 instructions: 60000000 cycles: 41966357 heartbeat IPC: 0.796156 cumulative IPC: 0.824894 (Simulation time: 0 hr 24 min 14 sec) 
Heartbeat CPU 7 instructions: 70000003 cycles: 42910645 heartbeat IPC: 1.28395 cumulative IPC: 1.25452 (Simulation time: 0 hr 24 min 40 sec) 
Heartbeat CPU 5 instructions: 50000000 cycles: 43473984 heartbeat IPC: 0.637218 cumulative IPC: 0.640729 (Simulation time: 0 hr 24 min 56 sec) 
Heartbeat CPU 3 instructions: 70000002 cycles: 44531892 heartbeat IPC: 0.893107 cumulative IPC: 0.891795 (Simulation time: 0 hr 25 min 22 sec) 
Heartbeat CPU 1 instructions: 80000000 cycles: 47290830 heartbeat IPC: 1.25764 cumulative IPC: 1.31074 (Simulation time: 0 hr 26 min 28 sec) 
Heartbeat CPU 7 instructions: 80000000 cycles: 50458486 heartbeat IPC: 1.32488 cumulative IPC: 1.27005 (Simulation time: 0 hr 27 min 46 sec) 
Heartbeat CPU 1 instructions: 90000001 cycles: 54312954 heartbeat IPC: 1.42407 cumulative IPC: 1.33165 (Simulation time: 0 hr 29 min 31 sec) 
Heartbeat CPU 0 instructions: 70000000 cycles: 54442733 heartbeat IPC: 0.681249 cumulative IPC: 0.701587 (Simulation time: 0 hr 29 min 35 sec) 
Heartbeat CPU 3 instructions: 80000000 cycles: 55680797 heartbeat IPC: 0.896949 cumulative IPC: 0.893252 (Simulation time: 0 hr 30 min 9 sec) 
Heartbeat CPU 7 instructions: 90000000 cycles: 57723319 heartbeat IPC: 1.37649 cumulative IPC: 1.2887 (Simulation time: 0 hr 31 min 7 sec) 
Heartbeat CPU 4 instructions: 60000000 cycles: 58037788 heartbeat IPC: 0.416907 cumulative IPC: 0.420737 (Simulation time: 0 hr 31 min 17 sec) 
Heartbeat CPU 2 instructions: 40000000 cycles: 58185607 heartbeat IPC: 0.472033 cumulative IPC: 0.47702 (Simulation time: 0 hr 31 min 21 sec) 
Heartbeat CPU 6 instructions: 70000000 cycles: 59099000 heartbeat IPC: 0.583681 cumulative IPC: 0.728429 (Simulation time: 0 hr 31 min 44 sec) 
Heartbeat CPU 5 instructions: 60000000 cycles: 59440358 heartbeat IPC: 0.626316 cumulative IPC: 0.6354 (Simulation time: 0 hr 31 min 53 sec) 
Heartbeat CPU 1 instructions: 100000000 cycles: 62324411 heartbeat IPC: 1.24821 cumulative IPC: 1.31714 (Simulation time: 0 hr 33 min 12 sec) 
Heartbeat CPU 7 instructions: 100000000 cycles: 64967835 heartbeat IPC: 1.38035 cumulative IPC: 1.30233 (Simulation time: 0 hr 34 min 21 sec) 
Heartbeat CPU 3 instructions: 90000000 cycles: 66864642 heartbeat IPC: 0.894147 cumulative IPC: 0.89345 (Simulation time: 0 hr 35 min 9 sec) 
Heartbeat CPU 6 instructions: 80000000 cycles: 68796953 heartbeat IPC: 1.03115 cumulative IPC: 0.784307 (Simulation time: 0 hr 36 min 9 sec) 
Heartbeat CPU 0 instructions: 80000000 cycles: 69247844 heartbeat IPC: 0.675442 cumulative IPC: 0.694283 (Simulation time: 0 hr 36 min 23 sec) 
Heartbeat CPU 1 instructions: 110000000 cycles: 69404096 heartbeat IPC: 1.41249 cumulative IPC: 1.32984 (Simulation time: 0 hr 36 min 29 sec) 
Heartbeat CPU 7 instructions: 110000001 cycles: 72807605 heartbeat IPC: 1.27555 cumulative IPC: 1.29862 (Simulation time: 0 hr 38 min 9 sec) 
Heartbeat CPU 5 instructions: 70000000 cycles: 75415472 heartbeat IPC: 0.625974 cumulative IPC: 0.632854 (Simulation time: 0 hr 39 min 23 sec) 
Heartbeat CPU 1 instructions: 120000000 cycles: 77179517 heartbeat IPC: 1.2861 cumulative IPC: 1.32426 (Simulation time: 0 hr 40 min 8 sec) 
Heartbeat CPU 6 instructions: 90000000 cycles: 77745880 heartbeat IPC: 1.11745 cumulative IPC: 0.832793 (Simulation time: 0 hr 40 min 22 sec) 
Heartbeat CPU 3 instructions: 100000000 cycles: 78080199 heartbeat IPC: 0.891619 cumulative IPC: 0.893118 (Simulation time: 0 hr 40 min 30 sec) 
Heartbeat CPU 7 instructions: 120000000 cycles: 80554825 heartbeat IPC: 1.29079 cumulative IPC: 1.29767 (Simulation time: 0 hr 41 min 29 sec) 
Heartbeat CPU 4 instructions: 70000000 cycles: 82520326 heartbeat IPC: 0.408454 cumulative IPC: 0.416199 (Simulation time: 0 hr 42 min 15 sec) 
Heartbeat CPU 1 instructions: 130000000 cycles: 84246796 heartbeat IPC: 1.41497 cumulative IPC: 1.33369 (Simulation time: 0 hr 42 min 55 sec) 
Heartbeat CPU 0 instructions: 90000003 cycles: 84454195 heartbeat IPC: 0.65762 cumulative IPC: 0.686108 (Simulation time: 0 hr 42 min 59 sec) 
Heartbeat CPU 7 instructions: 130000000 cycles: 88683316 heartbeat IPC: 1.23024 cumulative IPC: 1.29011 (Simulation time: 0 hr 44 min 36 sec) 
Heartbeat CPU 3 instructions: 110000000 cycles: 89279801 heartbeat IPC: 0.892889 cumulative IPC: 0.893083 (Simulation time: 0 hr 44 min 50 sec) 
Heartbeat CPU 6 instructions: 100000000 cycles: 90049543 heartbeat IPC: 0.812766 cumulative IPC: 0.829454 (Simulation time: 0 hr 45 min 7 sec) 
Heartbeat CPU 2 instructions: 50000000 cycles: 90947762 heartbeat IPC: 0.30523 cumulative IPC: 0.401665 (Simulation time: 0 hr 45 min 27 sec) 
Heartbeat CPU 5 instructions: 80000000 cycles: 91765072 heartbeat IPC: 0.611636 cumulative IPC: 0.62826 (Simulation time: 0 hr 45 min 46 sec) 
Finished CPU 1 instructions: 100000001 cycles: 75821546 cumulative IPC: 1.31889 (Simulation time: 0 hr 45 min 54 sec) 
Heartbeat CPU 1 instructions: 140000000 cycles: 92636636 heartbeat IPC: 1.19192 cumulative IPC: 1.31812 (Simulation time: 0 hr 46 min 6 sec) 
Finished CPU 7 instructions: 100000002 cycles: 77246494 cumulative IPC: 1.29456 (Simulation time: 0 hr 46 min 27 sec) 
Heartbeat CPU 7 instructions: 140000000 cycles: 95832780 heartbeat IPC: 1.39871 cumulative IPC: 1.29986 (Simulation time: 0 hr 47 min 22 sec) 
Heartbeat CPU 0 instructions: 100000000 cycles: 100036658 heartbeat IPC: 0.641747 cumulative IPC: 0.677857 (Simulation time: 0 hr 49 min 0 sec) 
Heartbeat CPU 1 instructions: 150000002 cycles: 100413813 heartbeat IPC: 1.28581 cumulative IPC: 1.31513 (Simulation time: 0 hr 49 min 9 sec) 
Heartbeat CPU 3 instructions: 120000000 cycles: 100443216 heartbeat IPC: 0.895783 cumulative IPC: 0.893441 (Simulation time: 0 hr 49 min 9 sec) 
Heartbeat CPU 6 instructions: 110000000 cycles: 101570510 heartbeat IPC: 0.867983 cumulative IPC: 0.834657 (Simulation time: 0 hr 49 min 35 sec) 
Heartbeat CPU 7 instructions: 150000001 cycles: 103919492 heartbeat IPC: 1.2366 cumulative IPC: 1.29403 (Simulation time: 0 hr 50 min 30 sec) 
Heartbeat CPU 4 instructions: 80000000 cycles: 107147991 heartbeat IPC: 0.406047 cumulative IPC: 0.413448 (Simulation time: 0 hr 51 min 44 sec) 
Heartbeat CPU 5 instructions: 90000002 cycles: 107984329 heartbeat IPC: 0.616551 cumulative IPC: 0.626189 (Simulation time: 0 hr 52 min 4 sec) 
Heartbeat CPU 1 instructions: 160000000 cycles: 108436664 heartbeat IPC: 1.24644 cumulative IPC: 1.30915 (Simulation time: 0 hr 52 min 15 sec) 
Heartbeat CPU 7 instructions: 160000000 cycles: 110640276 heartbeat IPC: 1.48792 cumulative IPC: 1.30783 (Simulation time: 0 hr 53 min 7 sec) 
Heartbeat CPU 3 instructions: 130000002 cycles: 111631551 heartbeat IPC: 0.893788 cumulative IPC: 0.893482 (Simulation time: 0 hr 53 min 30 sec) 
Heartbeat CPU 6 instructions: 120000000 cycles: 113268214 heartbeat IPC: 0.854869 cumulative IPC: 0.837094 (Simulation time: 0 hr 54 min 10 sec) 
Heartbeat CPU 0 instructions: 110000002 cycles: 115619629 heartbeat IPC: 0.641726 cumulative IPC: 0.67219 (Simulation time: 0 hr 55 min 5 sec) 
Heartbeat CPU 1 instructions: 170000003 cycles: 115656381 heartbeat IPC: 1.3851 cumulative IPC: 1.31467 (Simulation time: 0 hr 55 min 6 sec) 
Heartbeat CPU 7 instructions: 170000003 cycles: 118169543 heartbeat IPC: 1.32815 cumulative IPC: 1.30933 (Simulation time: 0 hr 56 min 7 sec) 
Heartbeat CPU 3 instructions: 140000000 cycles: 122879712 heartbeat IPC: 0.889034 cumulative IPC: 0.893012 (Simulation time: 0 hr 58 min 1 sec) 
Heartbeat CPU 1 instructions: 180000000 cycles: 123287343 heartbeat IPC: 1.31045 cumulative IPC: 1.31437 (Simulation time: 0 hr 58 min 12 sec) 
Heartbeat CPU 5 instructions: 100000000 cycles: 124325924 heartbeat IPC: 0.611935 cumulative IPC: 0.624034 (Simulation time: 0 hr 58 min 36 sec) 
Heartbeat CPU 6 instructions: 130000001 cycles: 124987045 heartbeat IPC: 0.853328 cumulative IPC: 0.838844 (Simulation time: 0 hr 58 min 52 sec) 
Heartbeat CPU 7 instructions: 180000000 cycles: 125478979 heartbeat IPC: 1.36809 cumulative IPC: 1.31327 (Simulation time: 0 hr 59 min 3 sec) 
Finished CPU 3 instructions: 100000001 cycles: 111979228 cumulative IPC: 0.893023 (Simulation time: 1 hr 0 min 7 sec) 
Heartbeat CPU 1 instructions: 190000001 cycles: 131245522 heartbeat IPC: 1.25657 cumulative IPC: 1.31037 (Simulation time: 1 hr 1 min 19 sec) 
Heartbeat CPU 0 instructions: 120000000 cycles: 131492765 heartbeat IPC: 0.629995 cumulative IPC: 0.666378 (Simulation time: 1 hr 1 min 25 sec) 
Heartbeat CPU 4 instructions: 90000000 cycles: 132183012 heartbeat IPC: 0.39944 cumulative IPC: 0.410423 (Simulation time: 1 hr 1 min 42 sec) 
Heartbeat CPU 7 instructions: 190000003 cycles: 133506713 heartbeat IPC: 1.24568 cumulative IPC: 1.30864 (Simulation time: 1 hr 2 min 15 sec) 
Heartbeat CPU 3 instructions: 150000002 cycles: 134074284 heartbeat IPC: 0.89329 cumulative IPC: 0.893039 (Simulation time: 1 hr 2 min 29 sec) 
Heartbeat CPU 2 instructions: 60000000 cycles: 138019656 heartbeat IPC: 0.212441 cumulative IPC: 0.328512 (Simulation time: 1 hr 4 min 11 sec) 
Heartbeat CPU 1 instructions: 200000000 cycles: 139109084 heartbeat IPC: 1.27169 cumulative IPC: 1.30789 (Simulation time: 1 hr 4 min 39 sec) 
Heartbeat CPU 5 instructions: 110000001 cycles: 140418493 heartbeat IPC: 0.621405 cumulative IPC: 0.623693 (Simulation time: 1 hr 5 min 13 sec) 
Finished CPU 6 instructions: 100000003 cycles: 124770704 cumulative IPC: 0.80147 (Simulation time: 1 hr 5 min 28 sec) 
Heartbeat CPU 7 instructions: 200000000 cycles: 141457158 heartbeat IPC: 1.25779 cumulative IPC: 1.30541 (Simulation time: 1 hr 5 min 40 sec) 
Heartbeat CPU 6 instructions: 140000000 cycles: 142165635 heartbeat IPC: 0.58212 cumulative IPC: 0.803817 (Simulation time: 1 hr 6 min 5 sec) 
Heartbeat CPU 3 instructions: 160000000 cycles: 145384758 heartbeat IPC: 0.884136 cumulative IPC: 0.892259 (Simulation time: 1 hr 9 min 8 sec) 
Heartbeat CPU 0 instructions: 130000002 cycles: 146247075 heartbeat IPC: 0.677768 cumulative IPC: 0.667671 (Simulation time: 1 hr 9 min 58 sec) 
Heartbeat CPU 1 instructions: 210000001 cycles: 146536956 heartbeat IPC: 1.34628 cumulative IPC: 1.31008 (Simulation time: 1 hr 10 min 15 sec) 
Heartbeat CPU 7 instructions: 210000001 cycles: 148595030 heartbeat IPC: 1.40098 cumulative IPC: 1.31057 (Simulation time: 1 hr 12 min 3 sec) 
Heartbeat CPU 6 instructions: 150000002 cycles: 150801426 heartbeat IPC: 1.15797 cumulative IPC: 0.826549 (Simulation time: 1 hr 13 min 3 sec) 
Heartbeat CPU 1 instructions: 220000000 cycles: 153590178 heartbeat IPC: 1.41779 cumulative IPC: 1.31561 (Simulation time: 1 hr 14 min 16 sec) 
Heartbeat CPU 5 instructions: 120000000 cycles: 156110587 heartbeat IPC: 0.637264 cumulative IPC: 0.625216 (Simulation time: 1 hr 15 min 20 sec) 
Heartbeat CPU 7 instructions: 220000000 cycles: 156552248 heartbeat IPC: 1.25672 cumulative IPC: 1.30751 (Simulation time: 1 hr 15 min 31 sec) 
Heartbeat CPU 3 instructions: 170000002 cycles: 156680635 heartbeat IPC: 0.885279 cumulative IPC: 0.891697 (Simulation time: 1 hr 15 min 34 sec) 
Heartbeat CPU 4 instructions: 100000000 cycles: 156817288 heartbeat IPC: 0.405938 cumulative IPC: 0.409637 (Simulation time: 1 hr 15 min 38 sec) 
Heartbeat CPU 2 instructions: 70000001 cycles: 159518546 heartbeat IPC: 0.46514 cumulative IPC: 0.349016 (Simulation time: 1 hr 16 min 45 sec) 
Heartbeat CPU 0 instructions: 140000000 cycles: 160873305 heartbeat IPC: 0.683703 cumulative IPC: 0.669292 (Simulation time: 1 hr 17 min 18 sec) 
Heartbeat CPU 6 instructions: 160000000 cycles: 161222709 heartbeat IPC: 0.959575 cumulative IPC: 0.836112 (Simulation time: 1 hr 17 min 26 sec) 
Heartbeat CPU 1 instructions: 230000002 cycles: 161241187 heartbeat IPC: 1.30702 cumulative IPC: 1.31516 (Simulation time: 1 hr 17 min 27 sec) 
Heartbeat CPU 7 instructions: 230000002 cycles: 163279864 heartbeat IPC: 1.48641 cumulative IPC: 1.3157 (Simulation time: 1 hr 18 min 20 sec) 
Finished CPU 0 instructions: 100000000 cycles: 149102314 cumulative IPC: 0.67068 (Simulation time: 1 hr 19 min 11 sec) 
Heartbeat CPU 3 instructions: 180000000 cycles: 167910198 heartbeat IPC: 0.890506 cumulative IPC: 0.891609 (Simulation time: 1 hr 20 min 13 sec) 
Heartbeat CPU 1 instructions: 240000000 cycles: 168347476 heartbeat IPC: 1.4072 cumulative IPC: 1.31946 (Simulation time: 1 hr 20 min 24 sec) 
Heartbeat CPU 7 instructions: 240000000 cycles: 170507714 heartbeat IPC: 1.38354 cumulative IPC: 1.31888 (Simulation time: 1 hr 21 min 16 sec) 
Heartbeat CPU 5 instructions: 130000000 cycles: 171407063 heartbeat IPC: 0.653745 cumulative IPC: 0.628029 (Simulation time: 1 hr 21 min 39 sec) 
Heartbeat CPU 6 instructions: 170000000 cycles: 173596722 heartbeat IPC: 0.808145 cumulative IPC: 0.833912 (Simulation time: 1 hr 22 min 35 sec) 
Heartbeat CPU 0 instructions: 150000002 cycles: 174939804 heartbeat IPC: 0.710909 cumulative IPC: 0.672981 (Simulation time: 1 hr 23 min 10 sec) 
Finished CPU 5 instructions: 100000003 cycles: 159090175 cumulative IPC: 0.628574 (Simulation time: 1 hr 23 min 21 sec) 
Heartbeat CPU 1 instructions: 250000000 cycles: 176338389 heartbeat IPC: 1.25142 cumulative IPC: 1.31606 (Simulation time: 1 hr 23 min 47 sec) 
Heartbeat CPU 7 instructions: 250000000 cycles: 178020770 heartbeat IPC: 1.33102 cumulative IPC: 1.31944 (Simulation time: 1 hr 24 min 32 sec) 
Heartbeat CPU 3 instructions: 190000001 cycles: 179088318 heartbeat IPC: 0.894605 cumulative IPC: 0.891815 (Simulation time: 1 hr 25 min 1 sec) 
Heartbeat CPU 4 instructions: 110000003 cycles: 180143045 heartbeat IPC: 0.428711 cumulative IPC: 0.412352 (Simulation time: 1 hr 25 min 29 sec) 
Heartbeat CPU 2 instructions: 80000000 cycles: 180721669 heartbeat IPC: 0.471629 cumulative IPC: 0.364824 (Simulation time: 1 hr 25 min 44 sec) 
Heartbeat CPU 1 instructions: 260000000 cycles: 184283749 heartbeat IPC: 1.2586 cumulative IPC: 1.31335 (Simulation time: 1 hr 27 min 17 sec) 
Heartbeat CPU 6 instructions: 180000000 cycles: 184974031 heartbeat IPC: 0.878942 cumulative IPC: 0.836949 (Simulation time: 1 hr 27 min 35 sec) 
Heartbeat CPU 7 instructions: 260000000 cycles: 185860935 heartbeat IPC: 1.27548 cumulative IPC: 1.31741 (Simulation time: 1 hr 27 min 58 sec) 
Heartbeat CPU 5 instructions: 140000000 cycles: 186854273 heartbeat IPC: 0.647366 cumulative IPC: 0.62978 (Simulation time: 1 hr 28 min 24 sec) 
Heartbeat CPU 0 instructions: 160000000 cycles: 189180453 heartbeat IPC: 0.702215 cumulative IPC: 0.675389 (Simulation time: 1 hr 29 min 24 sec) 
Heartbeat CPU 3 instructions: 200000000 cycles: 190326630 heartbeat IPC: 0.889813 cumulative IPC: 0.891686 (Simulation time: 1 hr 29 min 54 sec) 
Heartbeat CPU 1 instructions: 270000001 cycles: 191192936 heartbeat IPC: 1.44735 cumulative IPC: 1.31864 (Simulation time: 1 hr 30 min 16 sec) 
Heartbeat CPU 7 instructions: 270000001 cycles: 193870554 heartbeat IPC: 1.2485 cumulative IPC: 1.3143 (Simulation time: 1 hr 31 min 29 sec) 
Heartbeat CPU 6 instructions: 190000000 cycles: 196516732 heartbeat IPC: 0.866348 cumulative IPC: 0.838831 (Simulation time: 1 hr 32 min 37 sec) 
Heartbeat CPU 1 instructions: 280000000 cycles: 199084131 heartbeat IPC: 1.26724 cumulative IPC: 1.31642 (Simulation time: 1 hr 33 min 42 sec) 
Heartbeat CPU 7 instructions: 280000000 cycles: 201352779 heartbeat IPC: 1.3365 cumulative IPC: 1.3152 (Simulation time: 1 hr 34 min 37 sec) 
Heartbeat CPU 3 instructions: 210000000 cycles: 201522708 heartbeat IPC: 0.89317 cumulative IPC: 0.891775 (Simulation time: 1 hr 34 min 41 sec) 
Heartbeat CPU 2 instructions: 90000003 cycles: 202101633 heartbeat IPC: 0.467728 cumulative IPC: 0.376662 (Simulation time: 1 hr 34 min 56 sec) 
Heartbeat CPU 4 instructions: 120000000 cycles: 203080197 heartbeat IPC: 0.435974 cumulative IPC: 0.415252 (Simulation time: 1 hr 35 min 20 sec) 
Heartbeat CPU 0 instructions: 170000003 cycles: 203813330 heartbeat IPC: 0.683393 cumulative IPC: 0.676013 (Simulation time: 1 hr 35 min 38 sec) 
Heartbeat CPU 1 instructions: 290000001 cycles: 206201009 heartbeat IPC: 1.40511 cumulative IPC: 1.31974 (Simulation time: 1 hr 36 min 36 sec) 
Heartbeat CPU 5 instructions: 150000002 cycles: 206372804 heartbeat IPC: 0.512334 cumulative IPC: 0.617722 (Simulation time: 1 hr 36 min 40 sec) 
Heartbeat CPU 7 instructions: 290000001 cycles: 208950096 heartbeat IPC: 1.31625 cumulative IPC: 1.31524 (Simulation time: 1 hr 37 min 41 sec) 
Heartbeat CPU 6 instructions: 200000000 cycles: 210870184 heartbeat IPC: 0.696697 cumulative IPC: 0.828348 (Simulation time: 1 hr 38 min 29 sec) 
Heartbeat CPU 3 instructions: 220000000 cycles: 212689872 heartbeat IPC: 0.895482 cumulative IPC: 0.891986 (Simulation time: 1 hr 39 min 13 sec) 
Heartbeat CPU 1 instructions: 300000000 cycles: 214222167 heartbeat IPC: 1.2467 cumulative IPC: 1.31678 (Simulation time: 1 hr 39 min 49 sec) 
Heartbeat CPU 7 instructions: 300000000 cycles: 216266210 heartbeat IPC: 1.36685 cumulative IPC: 1.31713 (Simulation time: 1 hr 40 min 36 sec) 
Heartbeat CPU 0 instructions: 180000000 cycles: 219283492 heartbeat IPC: 0.646405 cumulative IPC: 0.673757 (Simulation time: 1 hr 41 min 47 sec) 
Heartbeat CPU 1 instructions: 310000000 cycles: 222257720 heartbeat IPC: 1.24447 cumulative IPC: 1.31396 (Simulation time: 1 hr 42 min 58 sec) 
Heartbeat CPU 7 instructions: 310000001 cycles: 223048116 heartbeat IPC: 1.47451 cumulative IPC: 1.32229 (Simulation time: 1 hr 43 min 16 sec) 
Heartbeat CPU 3 instructions: 230000001 cycles: 223927075 heartbeat IPC: 0.889901 cumulative IPC: 0.891873 (Simulation time: 1 hr 43 min 37 sec) 
Heartbeat CPU 2 instructions: 100000000 cycles: 224041319 heartbeat IPC: 0.455795 cumulative IPC: 0.385018 (Simulation time: 1 hr 43 min 39 sec) 
Heartbeat CPU 6 instructions: 210000001 cycles: 225406154 heartbeat IPC: 0.687949 cumulative IPC: 0.81859 (Simulation time: 1 hr 44 min 12 sec) 
Heartbeat CPU 4 instructions: 130000003 cycles: 228716998 heartbeat IPC: 0.390064 cumulative IPC: 0.412213 (Simulation time: 1 hr 45 min 32 sec) 
Heartbeat CPU 1 instructions: 320000000 cycles: 229259384 heartbeat IPC: 1.42823 cumulative IPC: 1.31772 (Simulation time: 1 hr 45 min 45 sec) 
Heartbeat CPU 7 instructions: 320000000 cycles: 230900000 heartbeat IPC: 1.27358 cumulative IPC: 1.32051 (Simulation time: 1 hr 46 min 25 sec) 
Heartbeat CPU 0 instructions: 190000000 cycles: 234798956 heartbeat IPC: 0.644518 cumulative IPC: 0.671681 (Simulation time: 1 hr 47 min 56 sec) 
Heartbeat CPU 6 instructions: 220000000 cycles: 234979044 heartbeat IPC: 1.04462 cumulative IPC: 0.828483 (Simulation time: 1 hr 48 min 0 sec) 
Heartbeat CPU 5 instructions: 160000000 cycles: 235341052 heartbeat IPC: 0.345205 cumulative IPC: 0.581688 (Simulation time: 1 hr 48 min 8 sec) 
Heartbeat CPU 3 instructions: 240000000 cycles: 235454386 heartbeat IPC: 0.867505 cumulative IPC: 0.890592 (Simulation time: 1 hr 48 min 11 sec) 
Heartbeat CPU 1 instructions: 330000001 cycles: 237142387 heartbeat IPC: 1.26855 cumulative IPC: 1.31596 (Simulation time: 1 hr 48 min 51 sec) 
Heartbeat CPU 7 instructions: 330000001 cycles: 238666521 heartbeat IPC: 1.28758 cumulative IPC: 1.31936 (Simulation time: 1 hr 49 min 27 sec) 
Heartbeat CPU 1 instructions: 340000000 cycles: 244394968 heartbeat IPC: 1.37882 cumulative IPC: 1.31796 (Simulation time: 1 hr 51 min 34 sec) 
Heartbeat CPU 6 instructions: 230000000 cycles: 245511526 heartbeat IPC: 0.949444 cumulative IPC: 0.83404 (Simulation time: 1 hr 51 min 58 sec) 
Heartbeat CPU 2 instructions: 110000003 cycles: 245814838 heartbeat IPC: 0.459274 cumulative IPC: 0.392061 (Simulation time: 1 hr 52 min 5 sec) 
Heartbeat CPU 3 instructions: 250000002 cycles: 246754605 heartbeat IPC: 0.884939 cumulative IPC: 0.890315 (Simulation time: 1 hr 52 min 26 sec) 
Heartbeat CPU 7 instructions: 340000000 cycles: 246882972 heartbeat IPC: 1.21707 cumulative IPC: 1.31571 (Simulation time: 1 hr 52 min 28 sec) 
Heartbeat CPU 0 instructions: 200000000 cycles: 249577594 heartbeat IPC: 0.676652 cumulative IPC: 0.671996 (Simulation time: 1 hr 53 min 27 sec) 
Heartbeat CPU 1 instructions: 350000001 cycles: 252506018 heartbeat IPC: 1.23289 cumulative IPC: 1.31504 (Simulation time: 1 hr 54 min 32 sec) 
Heartbeat CPU 4 instructions: 140000000 cycles: 253762083 heartbeat IPC: 0.39928 cumulative IPC: 0.410849 (Simulation time: 1 hr 54 min 59 sec) 
Heartbeat CPU 7 instructions: 350000003 cycles: 254086466 heartbeat IPC: 1.38822 cumulative IPC: 1.31791 (Simulation time: 1 hr 55 min 6 sec) 
Heartbeat CPU 6 instructions: 240000000 cycles: 258001731 heartbeat IPC: 0.800627 cumulative IPC: 0.832314 (Simulation time: 1 hr 56 min 31 sec) 
Heartbeat CPU 3 instructions: 260000000 cycles: 258108454 heartbeat IPC: 0.880758 cumulative IPC: 0.889866 (Simulation time: 1 hr 56 min 33 sec) 
Finished CPU 4 instructions: 100000000 cycles: 243885033 cumulative IPC: 0.410029 (Simulation time: 1 hr 57 min 17 sec) 
Heartbeat CPU 1 instructions: 360000000 cycles: 260444857 heartbeat IPC: 1.25963 cumulative IPC: 1.31324 (Simulation time: 1 hr 57 min 23 sec) 
Heartbeat CPU 7 instructions: 360000000 cycles: 262211410 heartbeat IPC: 1.23078 cumulative IPC: 1.31503 (Simulation time: 1 hr 58 min 2 sec) 
Heartbeat CPU 5 instructions: 170000001 cycles: 263539004 heartbeat IPC: 0.354636 cumulative IPC: 0.555797 (Simulation time: 1 hr 58 min 31 sec) 
Heartbeat CPU 0 instructions: 210000000 cycles: 264263623 heartbeat IPC: 0.680919 cumulative IPC: 0.672525 (Simulation time: 1 hr 58 min 46 sec) 
Heartbeat CPU 2 instructions: 120000000 cycles: 267353262 heartbeat IPC: 0.464286 cumulative IPC: 0.398256 (Simulation time: 1 hr 59 min 56 sec) 
Finished CPU 2 instructions: 100000001 cycles: 251094618 cumulative IPC: 0.398256 (Simulation time: 1 hr 59 min 56 sec) 

CPU 0 Branch Prediction Accuracy: 99.7951% MPKI: 0.0249922

CPU 1 Branch Prediction Accuracy: 96.6732% MPKI: 1.71429

CPU 2 Branch Prediction Accuracy: 99.886% MPKI: 0.00681

CPU 3 Branch Prediction Accuracy: 94.3069% MPKI: 5.59451

CPU 4 Branch Prediction Accuracy: 97.104% MPKI: 2.11399

CPU 5 Branch Prediction Accuracy: 99.1301% MPKI: 0.263443

CPU 6 Branch Prediction Accuracy: 93.3148% MPKI: 9.62194

CPU 7 Branch Prediction Accuracy: 96.759% MPKI: 1.83121

ChampSim completed all CPUs

Total Simulation Statistics (not including warmup)

CPU 0 cumulative IPC: 0.672452 instructions: 168849098 cycles: 251094618
L1D TOTAL     ACCESS:   28254596  HIT:   20334192  MISS:    7920404
L1D LOAD      ACCESS:   11298006  HIT:   10097847  MISS:    1200159
L1D RFO       ACCESS:   16956590  HIT:   10236345  MISS:    6720245
L1D PREFETCH  ACCESS:          0  HIT:          0  MISS:          0
L1D WRITEBACK ACCESS:          0  HIT:          0  MISS:          0
L1I TOTAL     ACCESS:   39237917  HIT:   39237917  MISS:          0
L1I LOAD      ACCESS:   39237917  HIT:   39237917  MISS:          0
L1I RFO       ACCESS:          0  HIT:          0  MISS:          0
L1I PREFETCH  ACCESS:          0  HIT:          0  MISS:          0
L1I WRITEBACK ACCESS:          0  HIT:          0  MISS:          0
L2C TOTAL     ACCESS:   14640646  HIT:    9762863  MISS:    4877783
L2C LOAD      ACCESS:    1200159  HIT:          0  MISS:    1200159
L2C RFO       ACCESS:    6720244  HIT:    3042764  MISS:    3677480
L2C PREFETCH  ACCESS:          0  HIT:          0  MISS:          0
L2C WRITEBACK ACCESS:    6720243  HIT:    6720099  MISS:        144
LLC TOTAL     ACCESS:    8555369  HIT:    5977591  MISS:    2577778
LLC LOAD      ACCESS:    1200159  HIT:        129  MISS:    1200030
LLC RFO       ACCESS:    3677476  HIT:    2299792  MISS:    1377684
LLC PREFETCH  ACCESS:          0  HIT:          0  MISS:          0
LLC WRITEBACK ACCESS:    3677734  HIT:    3677670  MISS:         64

CPU 1 cumulative IPC: 1.31606 instructions: 330455240 cycles: 251094618
L1D TOTAL     ACCESS:   66224363  HIT:   64402785  MISS:    1821578
L1D LOAD      ACCESS:   51863762  HIT:   50117019  MISS:    1746743
L1D RFO       ACCESS:   14360601  HIT:   14285766  MISS:      74835
L1D PREFETCH  ACCESS:          0  HIT:          0  MISS:          0
L1D WRITEBACK ACCESS:          0  HIT:          0  MISS:          0
L1I TOTAL     ACCESS:   78778897  HIT:   78778897  MISS:          0
L1I LOAD      ACCESS:   78778897  HIT:   78778897  MISS:          0
L1I RFO       ACCESS:          0  HIT:          0  MISS:          0
L1I PREFETCH  ACCESS:          0  HIT:          0  MISS:          0
L1I WRITEBACK ACCESS:          0  HIT:          0  MISS:          0
L2C TOTAL     ACCESS:    2140936  HIT:    2088496  MISS:      52440
L2C LOAD      ACCESS:    1746562  HIT:    1694467  MISS:      52095
L2C RFO       ACCESS:      74810  HIT:      74500  MISS:        310
L2C PREFETCH  ACCESS:          0  HIT:          0  MISS:          0
L2C WRITEBACK ACCESS:     319564  HIT:     319529  MISS:         35
LLC TOTAL     ACCESS:      62737  HIT:       4755  MISS:      57982
LLC LOAD      ACCESS:      52095  HIT:       2456  MISS:      49639
LLC RFO       ACCESS:        310  HIT:        205  MISS:        105
LLC PREFETCH  ACCESS:          0  HIT:          0  MISS:          0
LLC WRITEBACK ACCESS:      10332  HIT:       2094  MISS:       8238

CPU 2 cumulative IPC: 0.398256 instructions: 100000001 cycles: 251094618
L1D TOTAL     ACCESS:   58787243  HIT:   57251098  MISS:    1536145
L1D LOAD      ACCESS:   51556415  HIT:   50020328  MISS:    1536087
L1D RFO       ACCESS:    7230828  HIT:    7230770  MISS:         58
L1D PREFETCH  ACCESS:          0  HIT:          0  MISS:          0
L1D WRITEBACK ACCESS:          0  HIT:          0  MISS:          0
L1I TOTAL     ACCESS:   28324222  HIT:   28324113  MISS:        109
L1I LOAD      ACCESS:   28324222  HIT:   28324113  MISS:        109
L1I RFO       ACCESS:          0  HIT:          0  MISS:          0
L1I PREFETCH  ACCESS:          0  HIT:          0  MISS:          0
L1I WRITEBACK ACCESS:          0  HIT:          0  MISS:          0
L2C TOTAL     ACCESS:    2241470  HIT:     864816  MISS:    1376654
L2C LOAD      ACCESS:    1536071  HIT:     159483  MISS:    1376588
L2C RFO       ACCESS:         41  HIT:         30  MISS:         11
L2C PREFETCH  ACCESS:          0  HIT:          0  MISS:          0
L2C WRITEBACK ACCESS:     705358  HIT:     705303  MISS:         55
LLC TOTAL     ACCESS:    2080746  HIT:     859980  MISS:    1220766
LLC LOAD      ACCESS:    1376588  HIT:     155862  MISS:    1220726
LLC RFO       ACCESS:         11  HIT:          0  MISS:         11
LLC PREFETCH  ACCESS:          0  HIT:          0  MISS:          0
LLC WRITEBACK ACCESS:     704147  HIT:     704118  MISS:         29

CPU 3 cumulative IPC: 0.889931 instructions: 223456870 cycles: 251094619
L1D TOTAL     ACCESS:   50910315  HIT:   50902919  MISS:       7396
L1D LOAD      ACCESS:   28102816  HIT:   28101521  MISS:       1295
L1D RFO       ACCESS:   22807499  HIT:   22801398  MISS:       6101
L1D PREFETCH  ACCESS:          0  HIT:          0  MISS:          0
L1D WRITEBACK ACCESS:          0  HIT:          0  MISS:          0
L1I TOTAL     ACCESS:   55605495  HIT:   55605495  MISS:          0
L1I LOAD      ACCESS:   55605495  HIT:   55605495  MISS:          0
L1I RFO       ACCESS:          0  HIT:          0  MISS:          0
L1I PREFETCH  ACCESS:          0  HIT:          0  MISS:          0
L1I WRITEBACK ACCESS:          0  HIT:          0  MISS:          0
L2C TOTAL     ACCESS:      13580  HIT:       6969  MISS:       6611
L2C LOAD      ACCESS:       1295  HIT:        684  MISS:        611
L2C RFO       ACCESS:       6101  HIT:        119  MISS:       5982
L2C PREFETCH  ACCESS:          0  HIT:          0  MISS:          0
L2C WRITEBACK ACCESS:       6184  HIT:       6166  MISS:         18
LLC TOTAL     ACCESS:       9243  HIT:          4  MISS:       9239
LLC LOAD      ACCESS:        611  HIT:          0  MISS:        611
LLC RFO       ACCESS:       5982  HIT:          0  MISS:       5982
LLC PREFETCH  ACCESS:          0  HIT:          0  MISS:          0
LLC WRITEBACK ACCESS:       2650  HIT:          4  MISS:       2646

CPU 4 cumulative IPC: 0.409949 instructions: 102936073 cycles: 251094619
L1D TOTAL     ACCESS:   16486934  HIT:   14954799  MISS:    1532135
L1D LOAD      ACCESS:   14844081  HIT:   13384526  MISS:    1459555
L1D RFO       ACCESS:    1642853  HIT:    1570273  MISS:      72580
L1D PREFETCH  ACCESS:          0  HIT:          0  MISS:          0
L1D WRITEBACK ACCESS:          0  HIT:          0  MISS:          0
L1I TOTAL     ACCESS:   27289643  HIT:   27289572  MISS:         71
L1I LOAD      ACCESS:   27289643  HIT:   27289572  MISS:         71
L1I RFO       ACCESS:          0  HIT:          0  MISS:          0
L1I PREFETCH  ACCESS:          0  HIT:          0  MISS:          0
L1I WRITEBACK ACCESS:          0  HIT:          0  MISS:          0
L2C TOTAL     ACCESS:    1627971  HIT:     326133  MISS:    1301838
L2C LOAD      ACCESS:    1459626  HIT:     222034  MISS:    1237592
L2C RFO       ACCESS:      72578  HIT:       8596  MISS:      63982
L2C PREFETCH  ACCESS:          0  HIT:          0  MISS:          0
L2C WRITEBACK ACCESS:      95767  HIT:      95503  MISS:        264
LLC TOTAL     ACCESS:    1385070  HIT:     203382  MISS:    1181688
LLC LOAD      ACCESS:    1237590  HIT:     103339  MISS:    1134251
LLC RFO       ACCESS:      63982  HIT:      16687  MISS:      47295
LLC PREFETCH  ACCESS:          0  HIT:          0  MISS:          0
LLC WRITEBACK ACCESS:      83498  HIT:      83356  MISS:        142

CPU 5 cumulative IPC: 0.552714 instructions: 138783497 cycles: 251094619
L1D TOTAL     ACCESS:   40987336  HIT:   39032649  MISS:    1954687
L1D LOAD      ACCESS:   35321001  HIT:   33744520  MISS:    1576481
L1D RFO       ACCESS:    5666335  HIT:    5288129  MISS:     378206
L1D PREFETCH  ACCESS:          0  HIT:          0  MISS:          0
L1D WRITEBACK ACCESS:          0  HIT:          0  MISS:          0
L1I TOTAL     ACCESS:   32327274  HIT:   32327158  MISS:        116
L1I LOAD      ACCESS:   32327274  HIT:   32327158  MISS:        116
L1I RFO       ACCESS:          0  HIT:          0  MISS:          0
L1I PREFETCH  ACCESS:          0  HIT:          0  MISS:          0
L1I WRITEBACK ACCESS:          0  HIT:          0  MISS:          0
L2C TOTAL     ACCESS:    2580495  HIT:    1461647  MISS:    1118848
L2C LOAD      ACCESS:    1576587  HIT:     596559  MISS:     980028
L2C RFO       ACCESS:     377831  HIT:     240808  MISS:     137023
L2C PREFETCH  ACCESS:          0  HIT:          0  MISS:          0
L2C WRITEBACK ACCESS:     626077  HIT:     624280  MISS:       1797
LLC TOTAL     ACCESS:    1461247  HIT:     722953  MISS:     738294
LLC LOAD      ACCESS:     980028  HIT:     315022  MISS:     665006
LLC RFO       ACCESS:     137023  HIT:      65042  MISS:      71981
LLC PREFETCH  ACCESS:          0  HIT:          0  MISS:          0
LLC WRITEBACK ACCESS:     344196  HIT:     342889  MISS:       1307

CPU 6 cumulative IPC: 0.831809 instructions: 208862852 cycles: 251094619
L1D TOTAL     ACCESS:   49239386  HIT:   47759722  MISS:    1479664
L1D LOAD      ACCESS:   28615623  HIT:   27337966  MISS:    1277657
L1D RFO       ACCESS:   20623763  HIT:   20421756  MISS:     202007
L1D PREFETCH  ACCESS:          0  HIT:          0  MISS:          0
L1D WRITEBACK ACCESS:          0  HIT:          0  MISS:          0
L1I TOTAL     ACCESS:   43541684  HIT:   43541675  MISS:          9
L1I LOAD      ACCESS:   43541684  HIT:   43541675  MISS:          9
L1I RFO       ACCESS:          0  HIT:          0  MISS:          0
L1I PREFETCH  ACCESS:          0  HIT:          0  MISS:          0
L1I WRITEBACK ACCESS:          0  HIT:          0  MISS:          0
L2C TOTAL     ACCESS:    1832091  HIT:     889781  MISS:     942310
L2C LOAD      ACCESS:    1277662  HIT:     504006  MISS:     773656
L2C RFO       ACCESS:     202007  HIT:      33616  MISS:     168391
L2C PREFETCH  ACCESS:          0  HIT:          0  MISS:          0
L2C WRITEBACK ACCESS:     352422  HIT:     352159  MISS:        263
LLC TOTAL     ACCESS:    1243994  HIT:     811256  MISS:     432738
LLC LOAD      ACCESS:     773656  HIT:     516114  MISS:     257542
LLC RFO       ACCESS:     168391  HIT:       5069  MISS:     163322
LLC PREFETCH  ACCESS:          0  HIT:          0  MISS:          0
LLC WRITEBACK ACCESS:     301947  HIT:     290073  MISS:      11874

CPU 7 cumulative IPC: 1.31642 instructions: 330545890 cycles: 251094619
L1D TOTAL     ACCESS:   65715679  HIT:   63763743  MISS:    1951936
L1D LOAD      ACCESS:   54756682  HIT:   52885459  MISS:    1871223
L1D RFO       ACCESS:   10958997  HIT:   10878284  MISS:      80713
L1D PREFETCH  ACCESS:          0  HIT:          0  MISS:          0
L1D WRITEBACK ACCESS:          0  HIT:          0  MISS:          0
L1I TOTAL     ACCESS:   78394625  HIT:   78394605  MISS:         20
L1I LOAD      ACCESS:   78394625  HIT:   78394605  MISS:         20
L1I RFO       ACCESS:          0  HIT:          0  MISS:          0
L1I PREFETCH  ACCESS:          0  HIT:          0  MISS:          0
L1I WRITEBACK ACCESS:          0  HIT:          0  MISS:          0
L2C TOTAL     ACCESS:    2283587  HIT:    2223420  MISS:      60167
L2C LOAD      ACCESS:    1871178  HIT:    1811421  MISS:      59757
L2C RFO       ACCESS:      80685  HIT:      80322  MISS:        363
L2C PREFETCH  ACCESS:          0  HIT:          0  MISS:          0
L2C WRITEBACK ACCESS:     331724  HIT:     331677  MISS:         47
LLC TOTAL     ACCESS:      71574  HIT:       7198  MISS:      64376
LLC LOAD      ACCESS:      59757  HIT:       3536  MISS:      56221
LLC RFO       ACCESS:        363  HIT:        225  MISS:        138
LLC PREFETCH  ACCESS:          0  HIT:          0  MISS:          0
LLC WRITEBACK ACCESS:      11454  HIT:       3437  MISS:       8017

Region of Interest Statistics

CPU 0 cumulative IPC: 0.67068 instructions: 100000000 cycles: 149102314
L1D TOTAL     ACCESS:   16729575  HIT:   12039953  MISS:    4689622
L1D LOAD      ACCESS:    6688295  HIT:    5977688  MISS:     710607
L1D RFO       ACCESS:   10041280  HIT:    6062265  MISS:    3979015
L1D PREFETCH  ACCESS:          0  HIT:          0  MISS:          0
L1D WRITEBACK ACCESS:          0  HIT:          0  MISS:          0
L1D PREFETCH  REQUESTED:          0  ISSUED:          0  USEFUL:          0  USELESS:          0
L1I TOTAL     ACCESS:   23220799  HIT:   23220799  MISS:          0
L1I LOAD      ACCESS:   23220799  HIT:   23220799  MISS:          0
L1I RFO       ACCESS:          0  HIT:          0  MISS:          0
L1I PREFETCH  ACCESS:          0  HIT:          0  MISS:          0
L1I WRITEBACK ACCESS:          0  HIT:          0  MISS:          0
L1I PREFETCH  REQUESTED:          0  ISSUED:          0  USEFUL:          0  USELESS:          0
L2C TOTAL     ACCESS:    8668633  HIT:    5762604  MISS:    2906029
L2C LOAD      ACCESS:     710607  HIT:          0  MISS:     710607
L2C RFO       ACCESS:    3979013  HIT:    1783675  MISS:    2195338
L2C PREFETCH  ACCESS:          0  HIT:          0  MISS:          0
L2C WRITEBACK ACCESS:    3979013  HIT:    3978929  MISS:         84
L2C PREFETCH  REQUESTED:          0  ISSUED:          0  USEFUL:          0  USELESS:          0
LLC TOTAL     ACCESS:    5101555  HIT:    3542163  MISS:    1559392
LLC LOAD      ACCESS:     710607  HIT:         75  MISS:     710532
LLC RFO       ACCESS:    2195334  HIT:    1346516  MISS:     848818
LLC PREFETCH  ACCESS:          0  HIT:          0  MISS:          0
LLC WRITEBACK ACCESS:    2195614  HIT:    2195572  MISS:         42
LLC PREFETCH  REQUESTED:          0  ISSUED:          0  USEFUL:          0  USELESS:          0
Major fault: 0 Minor fault: 47889

CPU 1 cumulative IPC: 1.31889 instructions: 100000001 cycles: 75821546
L1D TOTAL     ACCESS:   19894539  HIT:   19343772  MISS:     550767
L1D LOAD      ACCESS:   15620398  HIT:   15091833  MISS:     528565
L1D RFO       ACCESS:    4274141  HIT:    4251939  MISS:      22202
L1D PREFETCH  ACCESS:          0  HIT:          0  MISS:          0
L1D WRITEBACK ACCESS:          0  HIT:          0  MISS:          0
L1D PREFETCH  REQUESTED:          0  ISSUED:          0  USEFUL:          0  USELESS:          0
L1I TOTAL     ACCESS:   23835489  HIT:   23835489  MISS:          0
L1I LOAD      ACCESS:   23835489  HIT:   23835489  MISS:          0
L1I RFO       ACCESS:          0  HIT:          0  MISS:          0
L1I PREFETCH  ACCESS:          0  HIT:          0  MISS:          0
L1I WRITEBACK ACCESS:          0  HIT:          0  MISS:          0
L1I PREFETCH  REQUESTED:          0  ISSUED:          0  USEFUL:          0  USELESS:          0
L2C TOTAL     ACCESS:     644934  HIT:     628267  MISS:      16667
L2C LOAD      ACCESS:     528505  HIT:     511949  MISS:      16556
L2C RFO       ACCESS:      22193  HIT:      22094  MISS:         99
L2C PREFETCH  ACCESS:          0  HIT:          0  MISS:          0
L2C WRITEBACK ACCESS:      94236  HIT:      94224  MISS:         12
L2C PREFETCH  REQUESTED:          0  ISSUED:          0  USEFUL:          0  USELESS:          0
LLC TOTAL     ACCESS:      19911  HIT:       1486  MISS:      18425
LLC LOAD      ACCESS:      16556  HIT:        800  MISS:      15756
LLC RFO       ACCESS:         99  HIT:         63  MISS:         36
LLC PREFETCH  ACCESS:          0  HIT:          0  MISS:          0
LLC WRITEBACK ACCESS:       3256  HIT:        623  MISS:       2633
LLC PREFETCH  REQUESTED:          0  ISSUED:          0  USEFUL:          0  USELESS:          0
Major fault: 0 Minor fault: 699

CPU 2 cumulative IPC: 0.398256 instructions: 100000001 cycles: 251094618
L1D TOTAL     ACCESS:   58787243  HIT:   57251098  MISS:    1536145
L1D LOAD      ACCESS:   51556415  HIT:   50020328  MISS:    1536087
L1D RFO       ACCESS:    7230828  HIT:    7230770  MISS:         58
L1D PREFETCH  ACCESS:          0  HIT:          0  MISS:          0
L1D WRITEBACK ACCESS:          0  HIT:          0  MISS:          0
L1D PREFETCH  REQUESTED:          0  ISSUED:          0  USEFUL:          0  USELESS:          0
L1I TOTAL     ACCESS:   28324222  HIT:   28324113  MISS:        109
L1I LOAD      ACCESS:   28324222  HIT:   28324113  MISS:        109
L1I RFO       ACCESS:          0  HIT:          0  MISS:          0
L1I PREFETCH  ACCESS:          0  HIT:          0  MISS:          0
L1I WRITEBACK ACCESS:          0  HIT:          0  MISS:          0
L1I PREFETCH  REQUESTED:          0  ISSUED:          0  USEFUL:          0  USELESS:          0
L2C TOTAL     ACCESS:    2241470  HIT:     864816  MISS:    1376654
L2C LOAD      ACCESS:    1536071  HIT:     159483  MISS:    1376588
L2C RFO       ACCESS:         41  HIT:         30  MISS:         11
L2C PREFETCH  ACCESS:          0  HIT:          0  MISS:          0
L2C WRITEBACK ACCESS:     705358  HIT:     705303  MISS:         55
L2C PREFETCH  REQUESTED:          0  ISSUED:          0  USEFUL:          0  USELESS:          0
LLC TOTAL     ACCESS:    2080746  HIT:     859980  MISS:    1220766
LLC LOAD      ACCESS:    1376588  HIT:     155862  MISS:    1220726
LLC RFO       ACCESS:         11  HIT:          0  MISS:         11
LLC PREFETCH  ACCESS:          0  HIT:          0  MISS:          0
LLC WRITEBACK ACCESS:     704147  HIT:     704118  MISS:         29
LLC PREFETCH  REQUESTED:          0  ISSUED:          0  USEFUL:          0  USELESS:          0
Major fault: 0 Minor fault: 154885

CPU 3 cumulative IPC: 0.893023 instructions: 100000001 cycles: 111979228
L1D TOTAL     ACCESS:   22817868  HIT:   22816765  MISS:       1103
L1D LOAD      ACCESS:   12638628  HIT:   12638429  MISS:        199
L1D RFO       ACCESS:   10179240  HIT:   10178336  MISS:        904
L1D PREFETCH  ACCESS:          0  HIT:          0  MISS:          0
L1D WRITEBACK ACCESS:          0  HIT:          0  MISS:          0
L1D PREFETCH  REQUESTED:          0  ISSUED:          0  USEFUL:          0  USELESS:          0
L1I TOTAL     ACCESS:   24901740  HIT:   24901740  MISS:          0
L1I LOAD      ACCESS:   24901740  HIT:   24901740  MISS:          0
L1I RFO       ACCESS:          0  HIT:          0  MISS:          0
L1I PREFETCH  ACCESS:          0  HIT:          0  MISS:          0
L1I WRITEBACK ACCESS:          0  HIT:          0  MISS:          0
L1I PREFETCH  REQUESTED:          0  ISSUED:          0  USEFUL:          0  USELESS:          0
L2C TOTAL     ACCESS:       2013  HIT:       1020  MISS:        993
L2C LOAD      ACCESS:        199  HIT:        103  MISS:         96
L2C RFO       ACCESS:        904  HIT:          7  MISS:        897
L2C PREFETCH  ACCESS:          0  HIT:          0  MISS:          0
L2C WRITEBACK ACCESS:        910  HIT:        910  MISS:          0
L2C PREFETCH  REQUESTED:          0  ISSUED:          0  USEFUL:          0  USELESS:          0
LLC TOTAL     ACCESS:        993  HIT:          0  MISS:        993
LLC LOAD      ACCESS:         96  HIT:          0  MISS:         96
LLC RFO       ACCESS:        897  HIT:          0  MISS:        897
LLC PREFETCH  ACCESS:          0  HIT:          0  MISS:          0
LLC WRITEBACK ACCESS:          0  HIT:          0  MISS:          0
LLC PREFETCH  REQUESTED:          0  ISSUED:          0  USEFUL:          0  USELESS:          0
Major fault: 0 Minor fault: 135

CPU 4 cumulative IPC: 0.410029 instructions: 100000000 cycles: 243885033
L1D TOTAL     ACCESS:   15994069  HIT:   14509570  MISS:    1484499
L1D LOAD      ACCESS:   14403734  HIT:   12988050  MISS:    1415684
L1D RFO       ACCESS:    1590335  HIT:    1521520  MISS:      68815
L1D PREFETCH  ACCESS:          0  HIT:          0  MISS:          0
L1D WRITEBACK ACCESS:          0  HIT:          0  MISS:          0
L1D PREFETCH  REQUESTED:          0  ISSUED:          0  USEFUL:          0  USELESS:          0
L1I TOTAL     ACCESS:   26500581  HIT:   26500510  MISS:         71
L1I LOAD      ACCESS:   26500581  HIT:   26500510  MISS:         71
L1I RFO       ACCESS:          0  HIT:          0  MISS:          0
L1I PREFETCH  ACCESS:          0  HIT:          0  MISS:          0
L1I WRITEBACK ACCESS:          0  HIT:          0  MISS:          0
L1I PREFETCH  REQUESTED:          0  ISSUED:          0  USEFUL:          0  USELESS:          0
L2C TOTAL     ACCESS:    1574003  HIT:     311918  MISS:    1262085
L2C LOAD      ACCESS:    1415755  HIT:     214757  MISS:    1200998
L2C RFO       ACCESS:      68813  HIT:       7975  MISS:      60838
L2C PREFETCH  ACCESS:          0  HIT:          0  MISS:          0
L2C WRITEBACK ACCESS:      89435  HIT:      89186  MISS:        249
L2C PREFETCH  REQUESTED:          0  ISSUED:          0  USEFUL:          0  USELESS:          0
LLC TOTAL     ACCESS:    1340088  HIT:     192987  MISS:    1147101
LLC LOAD      ACCESS:    1200996  HIT:      98901  MISS:    1102095
LLC RFO       ACCESS:      60838  HIT:      15964  MISS:      44874
LLC PREFETCH  ACCESS:          0  HIT:          0  MISS:          0
LLC WRITEBACK ACCESS:      78254  HIT:      78122  MISS:        132
LLC PREFETCH  REQUESTED:          0  ISSUED:          0  USEFUL:          0  USELESS:          0
Major fault: 0 Minor fault: 4116

CPU 5 cumulative IPC: 0.628574 instructions: 100000003 cycles: 159090175
L1D TOTAL     ACCESS:   29954972  HIT:   28543321  MISS:    1411651
L1D LOAD      ACCESS:   26139490  HIT:   24994939  MISS:    1144551
L1D RFO       ACCESS:    3815482  HIT:    3548382  MISS:     267100
L1D PREFETCH  ACCESS:          0  HIT:          0  MISS:          0
L1D WRITEBACK ACCESS:          0  HIT:          0  MISS:          0
L1D PREFETCH  REQUESTED:          0  ISSUED:          0  USEFUL:          0  USELESS:          0
L1I TOTAL     ACCESS:   23667348  HIT:   23667348  MISS:          0
L1I LOAD      ACCESS:   23667348  HIT:   23667348  MISS:          0
L1I RFO       ACCESS:          0  HIT:          0  MISS:          0
L1I PREFETCH  ACCESS:          0  HIT:          0  MISS:          0
L1I WRITEBACK ACCESS:          0  HIT:          0  MISS:          0
L1I PREFETCH  REQUESTED:          0  ISSUED:          0  USEFUL:          0  USELESS:          0
L2C TOTAL     ACCESS:    1831718  HIT:    1141467  MISS:     690251
L2C LOAD      ACCESS:    1144541  HIT:     513113  MISS:     631428
L2C RFO       ACCESS:     266770  HIT:     209432  MISS:      57338
L2C PREFETCH  ACCESS:          0  HIT:          0  MISS:          0
L2C WRITEBACK ACCESS:     420407  HIT:     418922  MISS:       1485
L2C PREFETCH  REQUESTED:          0  ISSUED:          0  USEFUL:          0  USELESS:          0
LLC TOTAL     ACCESS:     864361  HIT:     507849  MISS:     356512
LLC LOAD      ACCESS:     631428  HIT:     276103  MISS:     355325
LLC RFO       ACCESS:      57338  HIT:      57260  MISS:         78
LLC PREFETCH  ACCESS:          0  HIT:          0  MISS:          0
LLC WRITEBACK ACCESS:     175595  HIT:     174486  MISS:       1109
LLC PREFETCH  REQUESTED:          0  ISSUED:          0  USEFUL:          0  USELESS:          0
Major fault: 0 Minor fault: 11843

CPU 6 cumulative IPC: 0.80147 instructions: 100000003 cycles: 124770704
L1D TOTAL     ACCESS:   24739618  HIT:   24055495  MISS:     684123
L1D LOAD      ACCESS:   14241424  HIT:   13654414  MISS:     587010
L1D RFO       ACCESS:   10498194  HIT:   10401081  MISS:      97113
L1D PREFETCH  ACCESS:          0  HIT:          0  MISS:          0
L1D WRITEBACK ACCESS:          0  HIT:          0  MISS:          0
L1D PREFETCH  REQUESTED:          0  ISSUED:          0  USEFUL:          0  USELESS:          0
L1I TOTAL     ACCESS:   20954850  HIT:   20954843  MISS:          7
L1I LOAD      ACCESS:   20954850  HIT:   20954843  MISS:          7
L1I RFO       ACCESS:          0  HIT:          0  MISS:          0
L1I PREFETCH  ACCESS:          0  HIT:          0  MISS:          0
L1I WRITEBACK ACCESS:          0  HIT:          0  MISS:          0
L1I PREFETCH  REQUESTED:          0  ISSUED:          0  USEFUL:          0  USELESS:          0
L2C TOTAL     ACCESS:     878442  HIT:     417840  MISS:     460602
L2C LOAD      ACCESS:     587015  HIT:     210803  MISS:     376212
L2C RFO       ACCESS:      97113  HIT:      12891  MISS:      84222
L2C PREFETCH  ACCESS:          0  HIT:          0  MISS:          0
L2C WRITEBACK ACCESS:     194314  HIT:     194146  MISS:        168
L2C PREFETCH  REQUESTED:          0  ISSUED:          0  USEFUL:          0  USELESS:          0
LLC TOTAL     ACCESS:     636571  HIT:     411720  MISS:     224851
LLC LOAD      ACCESS:     376212  HIT:     241281  MISS:     134931
LLC RFO       ACCESS:      84222  HIT:       1384  MISS:      82838
LLC PREFETCH  ACCESS:          0  HIT:          0  MISS:          0
LLC WRITEBACK ACCESS:     176137  HIT:     169055  MISS:       7082
LLC PREFETCH  REQUESTED:          0  ISSUED:          0  USEFUL:          0  USELESS:          0
Major fault: 0 Minor fault: 1543

CPU 7 cumulative IPC: 1.29456 instructions: 100000002 cycles: 77246494
L1D TOTAL     ACCESS:   20258392  HIT:   19650836  MISS:     607556
L1D LOAD      ACCESS:   16734136  HIT:   16151213  MISS:     582923
L1D RFO       ACCESS:    3524256  HIT:    3499623  MISS:      24633
L1D PREFETCH  ACCESS:          0  HIT:          0  MISS:          0
L1D WRITEBACK ACCESS:          0  HIT:          0  MISS:          0
L1D PREFETCH  REQUESTED:          0  ISSUED:          0  USEFUL:          0  USELESS:          0
L1I TOTAL     ACCESS:   23785696  HIT:   23785676  MISS:         20
L1I LOAD      ACCESS:   23785696  HIT:   23785676  MISS:         20
L1I RFO       ACCESS:          0  HIT:          0  MISS:          0
L1I PREFETCH  ACCESS:          0  HIT:          0  MISS:          0
L1I WRITEBACK ACCESS:          0  HIT:          0  MISS:          0
L1I PREFETCH  REQUESTED:          0  ISSUED:          0  USEFUL:          0  USELESS:          0
L2C TOTAL     ACCESS:     716960  HIT:     699601  MISS:      17359
L2C LOAD      ACCESS:     582921  HIT:     565649  MISS:      17272
L2C RFO       ACCESS:      24624  HIT:      24553  MISS:         71
L2C PREFETCH  ACCESS:          0  HIT:          0  MISS:          0
L2C WRITEBACK ACCESS:     109415  HIT:     109399  MISS:         16
L2C PREFETCH  REQUESTED:          0  ISSUED:          0  USEFUL:          0  USELESS:          0
LLC TOTAL     ACCESS:      20492  HIT:       1888  MISS:      18604
LLC LOAD      ACCESS:      17272  HIT:       1178  MISS:      16094
LLC RFO       ACCESS:         71  HIT:         41  MISS:         30
LLC PREFETCH  ACCESS:          0  HIT:          0  MISS:          0
LLC WRITEBACK ACCESS:       3149  HIT:        669  MISS:       2480
LLC PREFETCH  REQUESTED:          0  ISSUED:          0  USEFUL:          0  USELESS:          0
Major fault: 0 Minor fault: 784

DRAM Statistics
 CHANNEL 0
 RQ ROW_BUFFER_HIT:    1185291  ROW_BUFFER_MISS:    1939891
 DBUS_CONGESTED:    4307200
 WQ ROW_BUFFER_HIT:     126650  ROW_BUFFER_MISS:    1219720  FULL:          0

 CHANNEL 1
 RQ ROW_BUFFER_HIT:    1179821  ROW_BUFFER_MISS:    1944703
 DBUS_CONGESTED:    4307200
 WQ ROW_BUFFER_HIT:     127290  ROW_BUFFER_MISS:    1218962  FULL:          0

 AVG_CONGESTED_CYCLE: 13
