
*** ChampSim Multicore Out-of-Order Simulator ***

Warmup Instructions: 20000000
Simulation Instructions: 100000000
Number of CPUs: 8
LLC sets: 16384
LLC ways: 16
Off-chip DRAM Size: 8192 MB Channels: 2 Width: 64-bit Data Rate: 1600 MT/s

CPU 0 runs /scratch/user/djimenez/champsim-traces/speccpu2006/xz/482.sphinx3-234B.champsimtrace.xz
CPU 1 runs /scratch/user/djimenez/champsim-traces/speccpu2006/xz/445.gobmk-30B.champsimtrace.xz
CPU 2 runs /scratch/user/djimenez/champsim-traces/speccpu2006/xz/453.povray-252B.champsimtrace.xz
CPU 3 runs /scratch/user/djimenez/champsim-traces/speccpu2006/xz/458.sjeng-1088B.champsimtrace.xz
CPU 4 runs /scratch/user/djimenez/champsim-traces/speccpu2006/xz/453.povray-800B.champsimtrace.xz
CPU 5 runs /scratch/user/djimenez/champsim-traces/speccpu2006/xz/445.gobmk-36B.champsimtrace.xz
CPU 6 runs /scratch/user/djimenez/champsim-traces/speccpu2006/xz/465.tonto-1914B.champsimtrace.xz
CPU 7 runs /scratch/user/djimenez/champsim-traces/speccpu2006/xz/401.bzip2-38B.champsimtrace.xz
Heartbeat CPU 0 instructions: 10000003 cycles: 3847880 heartbeat IPC: 2.59883 cumulative IPC: 2.59883 (Simulation time: 0 hr 2 min 32 sec) 
Heartbeat CPU 7 instructions: 10000002 cycles: 4085980 heartbeat IPC: 2.44739 cumulative IPC: 2.44739 (Simulation time: 0 hr 2 min 41 sec) 
Heartbeat CPU 6 instructions: 10000001 cycles: 5000258 heartbeat IPC: 1.9999 cumulative IPC: 1.9999 (Simulation time: 0 hr 3 min 18 sec) 
Heartbeat CPU 3 instructions: 10000000 cycles: 5578418 heartbeat IPC: 1.79262 cumulative IPC: 1.79262 (Simulation time: 0 hr 3 min 41 sec) 
Heartbeat CPU 1 instructions: 10000003 cycles: 6366894 heartbeat IPC: 1.57063 cumulative IPC: 1.57063 (Simulation time: 0 hr 4 min 46 sec) 
Heartbeat CPU 5 instructions: 10000000 cycles: 6465551 heartbeat IPC: 1.54666 cumulative IPC: 1.54666 (Simulation time: 0 hr 4 min 55 sec) 
Heartbeat CPU 4 instructions: 10000000 cycles: 6646020 heartbeat IPC: 1.50466 cumulative IPC: 1.50466 (Simulation time: 0 hr 5 min 12 sec) 
Heartbeat CPU 2 instructions: 10000003 cycles: 6684560 heartbeat IPC: 1.49599 cumulative IPC: 1.49599 (Simulation time: 0 hr 5 min 16 sec) 
Heartbeat CPU 0 instructions: 20000000 cycles: 7689850 heartbeat IPC: 2.60283 cumulative IPC: 2.60083 (Simulation time: 0 hr 6 min 47 sec) 
Heartbeat CPU 7 instructions: 20000000 cycles: 9492147 heartbeat IPC: 1.84974 cumulative IPC: 2.107 (Simulation time: 0 hr 9 min 31 sec) 
Heartbeat CPU 6 instructions: 20000000 cycles: 9848920 heartbeat IPC: 2.06242 cumulative IPC: 2.03068 (Simulation time: 0 hr 9 min 46 sec) 
Heartbeat CPU 3 instructions: 20000000 cycles: 11128128 heartbeat IPC: 1.8019 cumulative IPC: 1.79725 (Simulation time: 0 hr 10 min 40 sec) 
Heartbeat CPU 0 instructions: 30000000 cycles: 11609514 heartbeat IPC: 2.55124 cumulative IPC: 0.861363 (Simulation time: 0 hr 11 min 1 sec) 
Heartbeat CPU 1 instructions: 20000000 cycles: 12700709 heartbeat IPC: 1.57883 cumulative IPC: 1.57472 (Simulation time: 0 hr 11 min 46 sec) 
Heartbeat CPU 5 instructions: 20000000 cycles: 12893690 heartbeat IPC: 1.55566 cumulative IPC: 1.55115 (Simulation time: 0 hr 11 min 54 sec) 
Heartbeat CPU 2 instructions: 20000000 cycles: 13282498 heartbeat IPC: 1.51562 cumulative IPC: 1.50574 (Simulation time: 0 hr 12 min 9 sec) 
Heartbeat CPU 4 instructions: 20000000 cycles: 13409070 heartbeat IPC: 1.47862 cumulative IPC: 1.49153 (Simulation time: 0 hr 12 min 14 sec) 

Warmup complete CPU 0 instructions: 34845339 cycles: 13409071 (Simulation time: 0 hr 12 min 14 sec) 
Warmup complete CPU 1 instructions: 21050235 cycles: 13409071 (Simulation time: 0 hr 12 min 14 sec) 
Warmup complete CPU 2 instructions: 20193332 cycles: 13409071 (Simulation time: 0 hr 12 min 14 sec) 
Warmup complete CPU 3 instructions: 24115982 cycles: 13409071 (Simulation time: 0 hr 12 min 14 sec) 
Warmup complete CPU 4 instructions: 20000001 cycles: 13409071 (Simulation time: 0 hr 12 min 14 sec) 
Warmup complete CPU 5 instructions: 20813527 cycles: 13409070 (Simulation time: 0 hr 12 min 14 sec) 
Warmup complete CPU 6 instructions: 26867924 cycles: 13409070 (Simulation time: 0 hr 12 min 14 sec) 
Warmup complete CPU 7 instructions: 26026546 cycles: 13409070 (Simulation time: 0 hr 12 min 14 sec) 

Heartbeat CPU 6 instructions: 30000003 cycles: 17951575 heartbeat IPC: 1.23416 cumulative IPC: 0.689505 (Simulation time: 0 hr 13 min 44 sec) 
Heartbeat CPU 0 instructions: 40000000 cycles: 18531893 heartbeat IPC: 1.44459 cumulative IPC: 1.00622 (Simulation time: 0 hr 13 min 56 sec) 
Heartbeat CPU 7 instructions: 30000000 cycles: 21269171 heartbeat IPC: 0.849111 cumulative IPC: 0.505522 (Simulation time: 0 hr 14 min 51 sec) 
Heartbeat CPU 3 instructions: 30000000 cycles: 23115112 heartbeat IPC: 0.834238 cumulative IPC: 0.606222 (Simulation time: 0 hr 15 min 27 sec) 
Heartbeat CPU 0 instructions: 50000001 cycles: 27794556 heartbeat IPC: 1.0796 cumulative IPC: 1.05347 (Simulation time: 0 hr 17 min 5 sec) 
Heartbeat CPU 1 instructions: 30000002 cycles: 32302058 heartbeat IPC: 0.510169 cumulative IPC: 0.473708 (Simulation time: 0 hr 18 min 46 sec) 
Heartbeat CPU 6 instructions: 40000000 cycles: 33020716 heartbeat IPC: 0.663608 cumulative IPC: 0.669606 (Simulation time: 0 hr 19 min 3 sec) 
Heartbeat CPU 5 instructions: 30000001 cycles: 34152660 heartbeat IPC: 0.47039 cumulative IPC: 0.442858 (Simulation time: 0 hr 19 min 26 sec) 
Heartbeat CPU 2 instructions: 30000000 cycles: 36265463 heartbeat IPC: 0.435105 cumulative IPC: 0.429056 (Simulation time: 0 hr 20 min 12 sec) 
Heartbeat CPU 0 instructions: 60000000 cycles: 37148875 heartbeat IPC: 1.06902 cumulative IPC: 1.0596 (Simulation time: 0 hr 20 min 31 sec) 
Heartbeat CPU 7 instructions: 40000000 cycles: 37675787 heartbeat IPC: 0.60951 cumulative IPC: 0.575828 (Simulation time: 0 hr 20 min 43 sec) 
Heartbeat CPU 4 instructions: 30000003 cycles: 38486282 heartbeat IPC: 0.398769 cumulative IPC: 0.398769 (Simulation time: 0 hr 21 min 1 sec) 
Heartbeat CPU 3 instructions: 40000000 cycles: 39690809 heartbeat IPC: 0.603293 cumulative IPC: 0.604375 (Simulation time: 0 hr 21 min 28 sec) 
Heartbeat CPU 0 instructions: 70000000 cycles: 46079015 heartbeat IPC: 1.1198 cumulative IPC: 1.07606 (Simulation time: 0 hr 23 min 57 sec) 
Heartbeat CPU 6 instructions: 50000003 cycles: 47228571 heartbeat IPC: 0.703836 cumulative IPC: 0.683986 (Simulation time: 0 hr 24 min 24 sec) 
Heartbeat CPU 7 instructions: 50000001 cycles: 48229356 heartbeat IPC: 0.947547 cumulative IPC: 0.688491 (Simulation time: 0 hr 24 min 47 sec) 
Heartbeat CPU 1 instructions: 40000000 cycles: 53540158 heartbeat IPC: 0.470852 cumulative IPC: 0.472197 (Simulation time: 0 hr 26 min 42 sec) 
Heartbeat CPU 0 instructions: 80000000 cycles: 55158112 heartbeat IPC: 1.10143 cumulative IPC: 1.08157 (Simulation time: 0 hr 27 min 17 sec) 
Heartbeat CPU 5 instructions: 40000000 cycles: 56720824 heartbeat IPC: 0.443102 cumulative IPC: 0.442985 (Simulation time: 0 hr 27 min 49 sec) 
Heartbeat CPU 3 instructions: 50000000 cycles: 56831891 heartbeat IPC: 0.583394 cumulative IPC: 0.596093 (Simulation time: 0 hr 27 min 51 sec) 
Heartbeat CPU 6 instructions: 60000000 cycles: 58992916 heartbeat IPC: 0.850026 cumulative IPC: 0.726838 (Simulation time: 0 hr 28 min 38 sec) 
Heartbeat CPU 7 instructions: 60000000 cycles: 59241021 heartbeat IPC: 0.908128 cumulative IPC: 0.741261 (Simulation time: 0 hr 28 min 43 sec) 
Heartbeat CPU 2 instructions: 40000000 cycles: 59512685 heartbeat IPC: 0.430159 cumulative IPC: 0.429612 (Simulation time: 0 hr 28 min 49 sec) 
Heartbeat CPU 4 instructions: 40000000 cycles: 63195521 heartbeat IPC: 0.404707 cumulative IPC: 0.401716 (Simulation time: 0 hr 30 min 5 sec) 
Heartbeat CPU 0 instructions: 90000000 cycles: 64383261 heartbeat IPC: 1.08399 cumulative IPC: 1.08201 (Simulation time: 0 hr 30 min 31 sec) 
Heartbeat CPU 7 instructions: 70000000 cycles: 70283873 heartbeat IPC: 0.905563 cumulative IPC: 0.773162 (Simulation time: 0 hr 32 min 35 sec) 
Heartbeat CPU 6 instructions: 70000000 cycles: 70331506 heartbeat IPC: 0.881944 cumulative IPC: 0.757734 (Simulation time: 0 hr 32 min 36 sec) 
Heartbeat CPU 0 instructions: 100000000 cycles: 73752831 heartbeat IPC: 1.06728 cumulative IPC: 1.07972 (Simulation time: 0 hr 33 min 55 sec) 
Heartbeat CPU 3 instructions: 60000000 cycles: 73941224 heartbeat IPC: 0.584476 cumulative IPC: 0.592809 (Simulation time: 0 hr 33 min 59 sec) 
Heartbeat CPU 1 instructions: 50000001 cycles: 76090964 heartbeat IPC: 0.443443 cumulative IPC: 0.461852 (Simulation time: 0 hr 35 min 29 sec) 
Heartbeat CPU 7 instructions: 80000000 cycles: 77333188 heartbeat IPC: 1.41858 cumulative IPC: 0.844336 (Simulation time: 0 hr 36 min 30 sec) 
Heartbeat CPU 5 instructions: 50000001 cycles: 79091065 heartbeat IPC: 0.447022 cumulative IPC: 0.44436 (Simulation time: 0 hr 37 min 51 sec) 
Heartbeat CPU 2 instructions: 50000000 cycles: 82778045 heartbeat IPC: 0.429824 cumulative IPC: 0.429683 (Simulation time: 0 hr 40 min 22 sec) 
Heartbeat CPU 0 instructions: 110000003 cycles: 83189518 heartbeat IPC: 1.05969 cumulative IPC: 1.07702 (Simulation time: 0 hr 40 min 41 sec) 
Heartbeat CPU 6 instructions: 80000000 cycles: 83336006 heartbeat IPC: 0.768965 cumulative IPC: 0.759823 (Simulation time: 0 hr 40 min 48 sec) 
Heartbeat CPU 4 instructions: 50000001 cycles: 87829071 heartbeat IPC: 0.40595 cumulative IPC: 0.403117 (Simulation time: 0 hr 42 min 19 sec) 
Heartbeat CPU 7 instructions: 90000001 cycles: 87986060 heartbeat IPC: 0.938714 cumulative IPC: 0.857818 (Simulation time: 0 hr 42 min 22 sec) 
Heartbeat CPU 3 instructions: 70000003 cycles: 90830848 heartbeat IPC: 0.59208 cumulative IPC: 0.59265 (Simulation time: 0 hr 43 min 33 sec) 
Heartbeat CPU 0 instructions: 120000000 cycles: 93001321 heartbeat IPC: 1.01918 cumulative IPC: 1.06989 (Simulation time: 0 hr 44 min 57 sec) 
Heartbeat CPU 1 instructions: 60000000 cycles: 97823848 heartbeat IPC: 0.460132 cumulative IPC: 0.461409 (Simulation time: 0 hr 46 min 34 sec) 
Heartbeat CPU 6 instructions: 90000002 cycles: 98412494 heartbeat IPC: 0.663285 cumulative IPC: 0.7427 (Simulation time: 0 hr 46 min 45 sec) 
Heartbeat CPU 7 instructions: 100000000 cycles: 100603486 heartbeat IPC: 0.792555 cumulative IPC: 0.848374 (Simulation time: 0 hr 47 min 25 sec) 
Heartbeat CPU 5 instructions: 60000000 cycles: 102030980 heartbeat IPC: 0.435921 cumulative IPC: 0.442176 (Simulation time: 0 hr 47 min 51 sec) 
Heartbeat CPU 0 instructions: 130000003 cycles: 103113277 heartbeat IPC: 0.988929 cumulative IPC: 1.06076 (Simulation time: 0 hr 48 min 11 sec) 
Heartbeat CPU 2 instructions: 60000000 cycles: 105989464 heartbeat IPC: 0.430822 cumulative IPC: 0.429969 (Simulation time: 0 hr 49 min 6 sec) 
Heartbeat CPU 3 instructions: 80000000 cycles: 107492547 heartbeat IPC: 0.600179 cumulative IPC: 0.593983 (Simulation time: 0 hr 49 min 34 sec) 
Finished CPU 0 instructions: 100000001 cycles: 94173057 cumulative IPC: 1.06187 (Simulation time: 0 hr 49 min 36 sec) 
Heartbeat CPU 4 instructions: 60000000 cycles: 112024665 heartbeat IPC: 0.413298 cumulative IPC: 0.405615 (Simulation time: 0 hr 51 min 0 sec) 
Heartbeat CPU 0 instructions: 140000000 cycles: 112570475 heartbeat IPC: 1.0574 cumulative IPC: 1.06044 (Simulation time: 0 hr 51 min 10 sec) 
Heartbeat CPU 6 instructions: 100000000 cycles: 113505953 heartbeat IPC: 0.662539 cumulative IPC: 0.730613 (Simulation time: 0 hr 51 min 27 sec) 
Heartbeat CPU 7 instructions: 110000000 cycles: 114119106 heartbeat IPC: 0.739885 cumulative IPC: 0.833814 (Simulation time: 0 hr 51 min 38 sec) 
Heartbeat CPU 1 instructions: 70000000 cycles: 120627311 heartbeat IPC: 0.43853 cumulative IPC: 0.456543 (Simulation time: 0 hr 53 min 41 sec) 
Heartbeat CPU 0 instructions: 150000001 cycles: 122788878 heartbeat IPC: 0.978627 cumulative IPC: 1.0528 (Simulation time: 0 hr 54 min 21 sec) 
Heartbeat CPU 3 instructions: 90000003 cycles: 124407730 heartbeat IPC: 0.591185 cumulative IPC: 0.593557 (Simulation time: 0 hr 54 min 50 sec) 
Heartbeat CPU 5 instructions: 70000001 cycles: 124935289 heartbeat IPC: 0.436599 cumulative IPC: 0.441031 (Simulation time: 0 hr 55 min 0 sec) 
Heartbeat CPU 7 instructions: 120000000 cycles: 127568562 heartbeat IPC: 0.743524 cumulative IPC: 0.823177 (Simulation time: 0 hr 55 min 51 sec) 
Heartbeat CPU 6 instructions: 110000002 cycles: 128666622 heartbeat IPC: 0.659602 cumulative IPC: 0.721272 (Simulation time: 0 hr 56 min 11 sec) 
Heartbeat CPU 2 instructions: 70000001 cycles: 128952100 heartbeat IPC: 0.43549 cumulative IPC: 0.431066 (Simulation time: 0 hr 56 min 16 sec) 
Heartbeat CPU 0 instructions: 160000000 cycles: 132995902 heartbeat IPC: 0.979717 cumulative IPC: 1.04656 (Simulation time: 0 hr 57 min 32 sec) 
Heartbeat CPU 4 instructions: 70000000 cycles: 134980103 heartbeat IPC: 0.435627 cumulative IPC: 0.411282 (Simulation time: 0 hr 58 min 10 sec) 
Finished CPU 7 instructions: 100000003 cycles: 122557464 cumulative IPC: 0.815944 (Simulation time: 0 hr 58 min 30 sec) 
Heartbeat CPU 3 instructions: 100000000 cycles: 141165640 heartbeat IPC: 0.596733 cumulative IPC: 0.593974 (Simulation time: 1 hr 0 min 8 sec) 
Heartbeat CPU 6 instructions: 120000000 cycles: 141207260 heartbeat IPC: 0.797407 cumulative IPC: 0.728743 (Simulation time: 1 hr 0 min 9 sec) 
Heartbeat CPU 7 instructions: 130000002 cycles: 141292690 heartbeat IPC: 0.728644 cumulative IPC: 0.813032 (Simulation time: 1 hr 0 min 11 sec) 
Heartbeat CPU 1 instructions: 80000000 cycles: 142291810 heartbeat IPC: 0.461585 cumulative IPC: 0.457391 (Simulation time: 1 hr 0 min 29 sec) 
Heartbeat CPU 0 instructions: 170000001 cycles: 143718144 heartbeat IPC: 0.932641 cumulative IPC: 1.03719 (Simulation time: 1 hr 0 min 55 sec) 
Heartbeat CPU 5 instructions: 80000000 cycles: 147527315 heartbeat IPC: 0.442634 cumulative IPC: 0.441301 (Simulation time: 1 hr 2 min 13 sec) 
Finished CPU 6 instructions: 100000002 cycles: 135867137 cumulative IPC: 0.736013 (Simulation time: 1 hr 2 min 46 sec) 
Heartbeat CPU 2 instructions: 80000000 cycles: 151605191 heartbeat IPC: 0.441441 cumulative IPC: 0.432767 (Simulation time: 1 hr 3 min 29 sec) 
Heartbeat CPU 6 instructions: 130000000 cycles: 152880934 heartbeat IPC: 0.856628 cumulative IPC: 0.739447 (Simulation time: 1 hr 3 min 52 sec) 
Heartbeat CPU 0 instructions: 180000000 cycles: 153756639 heartbeat IPC: 0.996165 cumulative IPC: 1.03425 (Simulation time: 1 hr 4 min 9 sec) 
Heartbeat CPU 7 instructions: 140000000 cycles: 154971447 heartbeat IPC: 0.73106 cumulative IPC: 0.805111 (Simulation time: 1 hr 4 min 33 sec) 
Heartbeat CPU 4 instructions: 80000000 cycles: 157530030 heartbeat IPC: 0.44346 cumulative IPC: 0.416317 (Simulation time: 1 hr 5 min 22 sec) 
Heartbeat CPU 3 instructions: 110000001 cycles: 158033077 heartbeat IPC: 0.592858 cumulative IPC: 0.593843 (Simulation time: 1 hr 5 min 31 sec) 
Heartbeat CPU 0 instructions: 190000003 cycles: 163534053 heartbeat IPC: 1.02277 cumulative IPC: 1.0335 (Simulation time: 1 hr 7 min 15 sec) 
Heartbeat CPU 6 instructions: 140000000 cycles: 164281607 heartbeat IPC: 0.877141 cumulative IPC: 0.749852 (Simulation time: 1 hr 7 min 30 sec) 
Heartbeat CPU 1 instructions: 90000002 cycles: 164648760 heartbeat IPC: 0.447288 cumulative IPC: 0.455897 (Simulation time: 1 hr 7 min 37 sec) 
Heartbeat CPU 7 instructions: 150000003 cycles: 168430058 heartbeat IPC: 0.743019 cumulative IPC: 0.79972 (Simulation time: 1 hr 8 min 47 sec) 
Heartbeat CPU 5 instructions: 90000001 cycles: 170507761 heartbeat IPC: 0.435153 cumulative IPC: 0.440401 (Simulation time: 1 hr 9 min 26 sec) 
Heartbeat CPU 0 instructions: 200000000 cycles: 173383810 heartbeat IPC: 1.01525 cumulative IPC: 1.03238 (Simulation time: 1 hr 10 min 28 sec) 
Heartbeat CPU 2 instructions: 90000000 cycles: 174097432 heartbeat IPC: 0.444598 cumulative IPC: 0.434423 (Simulation time: 1 hr 10 min 42 sec) 
Heartbeat CPU 3 instructions: 120000000 cycles: 175244489 heartbeat IPC: 0.58101 cumulative IPC: 0.592479 (Simulation time: 1 hr 11 min 3 sec) 
Heartbeat CPU 6 instructions: 150000000 cycles: 175707723 heartbeat IPC: 0.875188 cumulative IPC: 0.758676 (Simulation time: 1 hr 11 min 12 sec) 
Heartbeat CPU 4 instructions: 90000001 cycles: 180058675 heartbeat IPC: 0.443879 cumulative IPC: 0.420043 (Simulation time: 1 hr 12 min 33 sec) 
Heartbeat CPU 7 instructions: 160000000 cycles: 181931436 heartbeat IPC: 0.740665 cumulative IPC: 0.794989 (Simulation time: 1 hr 13 min 8 sec) 
Finished CPU 3 instructions: 100000002 cycles: 168597781 cumulative IPC: 0.593128 (Simulation time: 1 hr 13 min 9 sec) 
Heartbeat CPU 0 instructions: 210000003 cycles: 182930475 heartbeat IPC: 1.04749 cumulative IPC: 1.03323 (Simulation time: 1 hr 13 min 27 sec) 
Heartbeat CPU 1 instructions: 100000000 cycles: 187032807 heartbeat IPC: 0.446747 cumulative IPC: 0.454718 (Simulation time: 1 hr 14 min 42 sec) 
Heartbeat CPU 6 instructions: 160000000 cycles: 190009854 heartbeat IPC: 0.699197 cumulative IPC: 0.753859 (Simulation time: 1 hr 15 min 39 sec) 
Heartbeat CPU 3 instructions: 130000003 cycles: 191611277 heartbeat IPC: 0.610994 cumulative IPC: 0.594179 (Simulation time: 1 hr 16 min 8 sec) 
Heartbeat CPU 0 instructions: 220000000 cycles: 192378152 heartbeat IPC: 1.05846 cumulative IPC: 1.03456 (Simulation time: 1 hr 16 min 22 sec) 
Heartbeat CPU 5 instructions: 100000000 cycles: 193367559 heartbeat IPC: 0.437449 cumulative IPC: 0.440026 (Simulation time: 1 hr 16 min 41 sec) 
Heartbeat CPU 7 instructions: 170000000 cycles: 196231001 heartbeat IPC: 0.699322 cumulative IPC: 0.787506 (Simulation time: 1 hr 17 min 35 sec) 
Heartbeat CPU 2 instructions: 100000000 cycles: 196553873 heartbeat IPC: 0.445307 cumulative IPC: 0.435757 (Simulation time: 1 hr 17 min 40 sec) 
Heartbeat CPU 0 instructions: 230000002 cycles: 201367584 heartbeat IPC: 1.11242 cumulative IPC: 1.03829 (Simulation time: 1 hr 19 min 10 sec) 
Heartbeat CPU 4 instructions: 100000000 cycles: 202547134 heartbeat IPC: 0.444672 cumulative IPC: 0.422971 (Simulation time: 1 hr 19 min 32 sec) 
Heartbeat CPU 6 instructions: 170000001 cycles: 205106706 heartbeat IPC: 0.66239 cumulative IPC: 0.746655 (Simulation time: 1 hr 20 min 21 sec) 
Heartbeat CPU 3 instructions: 140000000 cycles: 208192814 heartbeat IPC: 0.60308 cumulative IPC: 0.594937 (Simulation time: 1 hr 21 min 19 sec) 
Heartbeat CPU 1 instructions: 110000002 cycles: 209580879 heartbeat IPC: 0.443497 cumulative IPC: 0.453428 (Simulation time: 1 hr 21 min 46 sec) 
Heartbeat CPU 7 instructions: 180000000 cycles: 209807780 heartbeat IPC: 0.736552 cumulative IPC: 0.783984 (Simulation time: 1 hr 21 min 50 sec) 
Heartbeat CPU 0 instructions: 240000000 cycles: 210355077 heartbeat IPC: 1.11266 cumulative IPC: 1.04168 (Simulation time: 1 hr 22 min 0 sec) 
Heartbeat CPU 5 instructions: 110000002 cycles: 215932456 heartbeat IPC: 0.443166 cumulative IPC: 0.440376 (Simulation time: 1 hr 23 min 46 sec) 
Heartbeat CPU 2 instructions: 110000003 cycles: 219029825 heartbeat IPC: 0.44492 cumulative IPC: 0.436759 (Simulation time: 1 hr 24 min 49 sec) 
Heartbeat CPU 0 instructions: 250000000 cycles: 219344922 heartbeat IPC: 1.11237 cumulative IPC: 1.04477 (Simulation time: 1 hr 24 min 55 sec) 
Heartbeat CPU 6 instructions: 180000000 cycles: 220190821 heartbeat IPC: 0.662949 cumulative IPC: 0.740549 (Simulation time: 1 hr 25 min 12 sec) 
Heartbeat CPU 7 instructions: 190000001 cycles: 221326342 heartbeat IPC: 0.868164 cumulative IPC: 0.788648 (Simulation time: 1 hr 25 min 34 sec) 
Heartbeat CPU 3 instructions: 150000000 cycles: 224821084 heartbeat IPC: 0.601385 cumulative IPC: 0.595444 (Simulation time: 1 hr 26 min 41 sec) 
Heartbeat CPU 4 instructions: 110000001 cycles: 225025585 heartbeat IPC: 0.444871 cumulative IPC: 0.425298 (Simulation time: 1 hr 26 min 45 sec) 
Heartbeat CPU 0 instructions: 260000000 cycles: 229048202 heartbeat IPC: 1.03058 cumulative IPC: 1.04413 (Simulation time: 1 hr 28 min 3 sec) 
Heartbeat CPU 7 instructions: 200000000 cycles: 230259407 heartbeat IPC: 1.11944 cumulative IPC: 0.802274 (Simulation time: 1 hr 28 min 26 sec) 
Heartbeat CPU 1 instructions: 120000000 cycles: 232635917 heartbeat IPC: 0.433745 cumulative IPC: 0.451358 (Simulation time: 1 hr 29 min 8 sec) 
Finished CPU 1 instructions: 100000000 cycles: 221639620 cumulative IPC: 0.451183 (Simulation time: 1 hr 29 min 52 sec) 
Heartbeat CPU 6 instructions: 190000001 cycles: 235248062 heartbeat IPC: 0.664132 cumulative IPC: 0.735363 (Simulation time: 1 hr 29 min 55 sec) 
Heartbeat CPU 0 instructions: 270000001 cycles: 238665394 heartbeat IPC: 1.0398 cumulative IPC: 1.04394 (Simulation time: 1 hr 30 min 56 sec) 
Heartbeat CPU 5 instructions: 120000000 cycles: 238671549 heartbeat IPC: 0.439771 cumulative IPC: 0.440315 (Simulation time: 1 hr 30 min 56 sec) 
Heartbeat CPU 7 instructions: 210000001 cycles: 240399081 heartbeat IPC: 0.986225 cumulative IPC: 0.810491 (Simulation time: 1 hr 31 min 26 sec) 
Finished CPU 5 instructions: 100000002 cycles: 227146143 cumulative IPC: 0.440245 (Simulation time: 1 hr 31 min 29 sec) 
Heartbeat CPU 3 instructions: 160000000 cycles: 241422664 heartbeat IPC: 0.602352 cumulative IPC: 0.595947 (Simulation time: 1 hr 31 min 45 sec) 
Heartbeat CPU 2 instructions: 120000000 cycles: 241444878 heartbeat IPC: 0.446129 cumulative IPC: 0.43768 (Simulation time: 1 hr 31 min 45 sec) 
Finished CPU 2 instructions: 100000000 cycles: 228463414 cumulative IPC: 0.437707 (Simulation time: 1 hr 31 min 54 sec) 
Heartbeat CPU 4 instructions: 120000000 cycles: 247660323 heartbeat IPC: 0.441799 cumulative IPC: 0.426892 (Simulation time: 1 hr 33 min 42 sec) 
Finished CPU 4 instructions: 100000000 cycles: 234251265 cumulative IPC: 0.426892 (Simulation time: 1 hr 33 min 42 sec) 

CPU 0 Branch Prediction Accuracy: 97.0358% MPKI: 2.48681

CPU 1 Branch Prediction Accuracy: 84.5007% MPKI: 24.1858

CPU 2 Branch Prediction Accuracy: 97.2282% MPKI: 2.76563

CPU 3 Branch Prediction Accuracy: 92.2891% MPKI: 15.0364

CPU 4 Branch Prediction Accuracy: 96.8409% MPKI: 3.07888

CPU 5 Branch Prediction Accuracy: 84.9578% MPKI: 23.4847

CPU 6 Branch Prediction Accuracy: 98.4224% MPKI: 1.75562

CPU 7 Branch Prediction Accuracy: 91.5967% MPKI: 11.2102

ChampSim completed all CPUs

Total Simulation Statistics (not including warmup)

CPU 0 cumulative IPC: 1.04496 instructions: 244783844 cycles: 234251265
L1D TOTAL     ACCESS:   40156901  HIT:   36490913  MISS:    3665988
L1D LOAD      ACCESS:   36161511  HIT:   32663883  MISS:    3497628
L1D RFO       ACCESS:    3995390  HIT:    3827030  MISS:     168360
L1D PREFETCH  ACCESS:          0  HIT:          0  MISS:          0
L1D WRITEBACK ACCESS:          0  HIT:          0  MISS:          0
L1I TOTAL     ACCESS:   64530456  HIT:   64530291  MISS:        165
L1I LOAD      ACCESS:   64530456  HIT:   64530291  MISS:        165
L1I RFO       ACCESS:          0  HIT:          0  MISS:          0
L1I PREFETCH  ACCESS:          0  HIT:          0  MISS:          0
L1I WRITEBACK ACCESS:          0  HIT:          0  MISS:          0
L2C TOTAL     ACCESS:    3903847  HIT:     804589  MISS:    3099258
L2C LOAD      ACCESS:    3497793  HIT:     544710  MISS:    2953083
L2C RFO       ACCESS:     168356  HIT:      22778  MISS:     145578
L2C PREFETCH  ACCESS:          0  HIT:          0  MISS:          0
L2C WRITEBACK ACCESS:     237698  HIT:     237101  MISS:        597
LLC TOTAL     ACCESS:    3301305  HIT:    3246239  MISS:      55066
LLC LOAD      ACCESS:    2953082  HIT:    2899428  MISS:      53654
LLC RFO       ACCESS:     145578  HIT:     144166  MISS:       1412
LLC PREFETCH  ACCESS:          0  HIT:          0  MISS:          0
LLC WRITEBACK ACCESS:     202645  HIT:     202645  MISS:          0

CPU 1 cumulative IPC: 0.450781 instructions: 105596058 cycles: 234251265
L1D TOTAL     ACCESS:   34616089  HIT:   34385866  MISS:     230223
L1D LOAD      ACCESS:   19844715  HIT:   19723263  MISS:     121452
L1D RFO       ACCESS:   14771374  HIT:   14662603  MISS:     108771
L1D PREFETCH  ACCESS:          0  HIT:          0  MISS:          0
L1D WRITEBACK ACCESS:          0  HIT:          0  MISS:          0
L1I TOTAL     ACCESS:   23468902  HIT:   23082760  MISS:     386142
L1I LOAD      ACCESS:   23468902  HIT:   23082760  MISS:     386142
L1I RFO       ACCESS:          0  HIT:          0  MISS:          0
L1I PREFETCH  ACCESS:          0  HIT:          0  MISS:          0
L1I WRITEBACK ACCESS:          0  HIT:          0  MISS:          0
L2C TOTAL     ACCESS:     771722  HIT:     701919  MISS:      69803
L2C LOAD      ACCESS:     507591  HIT:     451737  MISS:      55854
L2C RFO       ACCESS:     108765  HIT:      95271  MISS:      13494
L2C PREFETCH  ACCESS:          0  HIT:          0  MISS:          0
L2C WRITEBACK ACCESS:     155366  HIT:     154911  MISS:        455
LLC TOTAL     ACCESS:     108000  HIT:      72407  MISS:      35593
LLC LOAD      ACCESS:      55854  HIT:      24423  MISS:      31431
LLC RFO       ACCESS:      13494  HIT:      10084  MISS:       3410
LLC PREFETCH  ACCESS:          0  HIT:          0  MISS:          0
LLC WRITEBACK ACCESS:      38652  HIT:      37900  MISS:        752

CPU 2 cumulative IPC: 0.437939 instructions: 102587811 cycles: 234251265
L1D TOTAL     ACCESS:   37328012  HIT:   35671439  MISS:    1656573
L1D LOAD      ACCESS:   23372483  HIT:   21900928  MISS:    1471555
L1D RFO       ACCESS:   13955529  HIT:   13770511  MISS:     185018
L1D PREFETCH  ACCESS:          0  HIT:          0  MISS:          0
L1D WRITEBACK ACCESS:          0  HIT:          0  MISS:          0
L1I TOTAL     ACCESS:   31731042  HIT:   31348532  MISS:     382510
L1I LOAD      ACCESS:   31731042  HIT:   31348532  MISS:     382510
L1I RFO       ACCESS:          0  HIT:          0  MISS:          0
L1I PREFETCH  ACCESS:          0  HIT:          0  MISS:          0
L1I WRITEBACK ACCESS:          0  HIT:          0  MISS:          0
L2C TOTAL     ACCESS:    2284546  HIT:    2274803  MISS:       9743
L2C LOAD      ACCESS:    1854064  HIT:    1844819  MISS:       9245
L2C RFO       ACCESS:     184998  HIT:     184502  MISS:        496
L2C PREFETCH  ACCESS:          0  HIT:          0  MISS:          0
L2C WRITEBACK ACCESS:     245484  HIT:     245482  MISS:          2
LLC TOTAL     ACCESS:      10193  HIT:      10028  MISS:        165
LLC LOAD      ACCESS:       9245  HIT:       9127  MISS:        118
LLC RFO       ACCESS:        496  HIT:        449  MISS:         47
LLC PREFETCH  ACCESS:          0  HIT:          0  MISS:          0
LLC WRITEBACK ACCESS:        452  HIT:        452  MISS:          0

CPU 3 cumulative IPC: 0.59594 instructions: 139599651 cycles: 234251265
L1D TOTAL     ACCESS:   37362734  HIT:   37213918  MISS:     148816
L1D LOAD      ACCESS:   26656984  HIT:   26555630  MISS:     101354
L1D RFO       ACCESS:   10705750  HIT:   10658288  MISS:      47462
L1D PREFETCH  ACCESS:          0  HIT:          0  MISS:          0
L1D WRITEBACK ACCESS:          0  HIT:          0  MISS:          0
L1I TOTAL     ACCESS:   32072795  HIT:   32071009  MISS:       1786
L1I LOAD      ACCESS:   32072795  HIT:   32071009  MISS:       1786
L1I RFO       ACCESS:          0  HIT:          0  MISS:          0
L1I PREFETCH  ACCESS:          0  HIT:          0  MISS:          0
L1I WRITEBACK ACCESS:          0  HIT:          0  MISS:          0
L2C TOTAL     ACCESS:     244513  HIT:     193743  MISS:      50770
L2C LOAD      ACCESS:     103137  HIT:      56076  MISS:      47061
L2C RFO       ACCESS:      47436  HIT:      43932  MISS:       3504
L2C PREFETCH  ACCESS:          0  HIT:          0  MISS:          0
L2C WRITEBACK ACCESS:      93940  HIT:      93735  MISS:        205
LLC TOTAL     ACCESS:      96286  HIT:      48329  MISS:      47957
LLC LOAD      ACCESS:      47061  HIT:       2757  MISS:      44304
LLC RFO       ACCESS:       3504  HIT:        872  MISS:       2632
LLC PREFETCH  ACCESS:          0  HIT:          0  MISS:          0
LLC WRITEBACK ACCESS:      45721  HIT:      44700  MISS:       1021

CPU 4 cumulative IPC: 0.426892 instructions: 100000000 cycles: 234251265
L1D TOTAL     ACCESS:   37121041  HIT:   35683970  MISS:    1437071
L1D LOAD      ACCESS:   22983623  HIT:   21744765  MISS:    1238858
L1D RFO       ACCESS:   14137418  HIT:   13939205  MISS:     198213
L1D PREFETCH  ACCESS:          0  HIT:          0  MISS:          0
L1D WRITEBACK ACCESS:          0  HIT:          0  MISS:          0
L1I TOTAL     ACCESS:   30547933  HIT:   30143251  MISS:     404682
L1I LOAD      ACCESS:   30547933  HIT:   30143251  MISS:     404682
L1I RFO       ACCESS:          0  HIT:          0  MISS:          0
L1I PREFETCH  ACCESS:          0  HIT:          0  MISS:          0
L1I WRITEBACK ACCESS:          0  HIT:          0  MISS:          0
L2C TOTAL     ACCESS:    2102433  HIT:    2101215  MISS:       1218
L2C LOAD      ACCESS:    1643540  HIT:    1642458  MISS:       1082
L2C RFO       ACCESS:     198110  HIT:     197974  MISS:        136
L2C PREFETCH  ACCESS:          0  HIT:          0  MISS:          0
L2C WRITEBACK ACCESS:     260783  HIT:     260783  MISS:          0
LLC TOTAL     ACCESS:       1292  HIT:        590  MISS:        702
LLC LOAD      ACCESS:       1082  HIT:        446  MISS:        636
LLC RFO       ACCESS:        136  HIT:         71  MISS:         65
LLC PREFETCH  ACCESS:          0  HIT:          0  MISS:          0
LLC WRITEBACK ACCESS:         74  HIT:         73  MISS:          1

CPU 5 cumulative IPC: 0.44008 instructions: 103089302 cycles: 234251266
L1D TOTAL     ACCESS:   34129619  HIT:   33773085  MISS:     356534
L1D LOAD      ACCESS:   19336368  HIT:   19119912  MISS:     216456
L1D RFO       ACCESS:   14793251  HIT:   14653173  MISS:     140078
L1D PREFETCH  ACCESS:          0  HIT:          0  MISS:          0
L1D WRITEBACK ACCESS:          0  HIT:          0  MISS:          0
L1I TOTAL     ACCESS:   23269946  HIT:   22927197  MISS:     342749
L1I LOAD      ACCESS:   23269946  HIT:   22927197  MISS:     342749
L1I RFO       ACCESS:          0  HIT:          0  MISS:          0
L1I PREFETCH  ACCESS:          0  HIT:          0  MISS:          0
L1I WRITEBACK ACCESS:          0  HIT:          0  MISS:          0
L2C TOTAL     ACCESS:     915675  HIT:     727122  MISS:     188553
L2C LOAD      ACCESS:     559204  HIT:     403927  MISS:     155277
L2C RFO       ACCESS:     140072  HIT:     107494  MISS:      32578
L2C PREFETCH  ACCESS:          0  HIT:          0  MISS:          0
L2C WRITEBACK ACCESS:     216399  HIT:     215701  MISS:        698
LLC TOTAL     ACCESS:     267784  HIT:     219748  MISS:      48036
LLC LOAD      ACCESS:     155277  HIT:     111048  MISS:      44229
LLC RFO       ACCESS:      32578  HIT:      29107  MISS:       3471
LLC PREFETCH  ACCESS:          0  HIT:          0  MISS:          0
LLC WRITEBACK ACCESS:      79929  HIT:      79593  MISS:        336

CPU 6 cumulative IPC: 0.733247 instructions: 171764151 cycles: 234251266
L1D TOTAL     ACCESS:   51895821  HIT:   50751352  MISS:    1144469
L1D LOAD      ACCESS:   34770335  HIT:   34168611  MISS:     601724
L1D RFO       ACCESS:   17125486  HIT:   16582741  MISS:     542745
L1D PREFETCH  ACCESS:          0  HIT:          0  MISS:          0
L1D WRITEBACK ACCESS:          0  HIT:          0  MISS:          0
L1I TOTAL     ACCESS:   44380636  HIT:   44181857  MISS:     198779
L1I LOAD      ACCESS:   44380636  HIT:   44181857  MISS:     198779
L1I RFO       ACCESS:          0  HIT:          0  MISS:          0
L1I PREFETCH  ACCESS:          0  HIT:          0  MISS:          0
L1I WRITEBACK ACCESS:          0  HIT:          0  MISS:          0
L2C TOTAL     ACCESS:    1938347  HIT:    1743426  MISS:     194921
L2C LOAD      ACCESS:     800486  HIT:     714114  MISS:      86372
L2C RFO       ACCESS:     542745  HIT:     434513  MISS:     108232
L2C PREFETCH  ACCESS:          0  HIT:          0  MISS:          0
L2C WRITEBACK ACCESS:     595116  HIT:     594799  MISS:        317
LLC TOTAL     ACCESS:     313738  HIT:     300021  MISS:      13717
LLC LOAD      ACCESS:      86372  HIT:      73717  MISS:      12655
LLC RFO       ACCESS:     108232  HIT:     107769  MISS:        463
LLC PREFETCH  ACCESS:          0  HIT:          0  MISS:          0
LLC WRITEBACK ACCESS:     119134  HIT:     118535  MISS:        599

CPU 7 cumulative IPC: 0.801183 instructions: 187678090 cycles: 234251266
L1D TOTAL     ACCESS:   57892730  HIT:   55522277  MISS:    2370453
L1D LOAD      ACCESS:   35096141  HIT:   33286116  MISS:    1810025
L1D RFO       ACCESS:   22796589  HIT:   22236161  MISS:     560428
L1D PREFETCH  ACCESS:          0  HIT:          0  MISS:          0
L1D WRITEBACK ACCESS:          0  HIT:          0  MISS:          0
L1I TOTAL     ACCESS:   44202770  HIT:   44202573  MISS:        197
L1I LOAD      ACCESS:   44202770  HIT:   44202573  MISS:        197
L1I RFO       ACCESS:          0  HIT:          0  MISS:          0
L1I PREFETCH  ACCESS:          0  HIT:          0  MISS:          0
L1I WRITEBACK ACCESS:          0  HIT:          0  MISS:          0
L2C TOTAL     ACCESS:    3154202  HIT:    1903020  MISS:    1251182
L2C LOAD      ACCESS:    1809769  HIT:     952454  MISS:     857315
L2C RFO       ACCESS:     560279  HIT:     167227  MISS:     393052
L2C PREFETCH  ACCESS:          0  HIT:          0  MISS:          0
L2C WRITEBACK ACCESS:     784154  HIT:     783339  MISS:        815
LLC TOTAL     ACCESS:    1726065  HIT:    1654727  MISS:      71338
LLC LOAD      ACCESS:     857311  HIT:     834372  MISS:      22939
LLC RFO       ACCESS:     393039  HIT:     344644  MISS:      48395
LLC PREFETCH  ACCESS:          0  HIT:          0  MISS:          0
LLC WRITEBACK ACCESS:     475715  HIT:     475711  MISS:          4

Region of Interest Statistics

CPU 0 cumulative IPC: 1.06187 instructions: 100000001 cycles: 94173057
L1D TOTAL     ACCESS:   16376169  HIT:   14894955  MISS:    1481214
L1D LOAD      ACCESS:   14769079  HIT:   13357021  MISS:    1412058
L1D RFO       ACCESS:    1607090  HIT:    1537934  MISS:      69156
L1D PREFETCH  ACCESS:          0  HIT:          0  MISS:          0
L1D WRITEBACK ACCESS:          0  HIT:          0  MISS:          0
L1D PREFETCH  REQUESTED:          0  ISSUED:          0  USEFUL:          0  USELESS:          0
L1I TOTAL     ACCESS:   26417161  HIT:   26417068  MISS:         93
L1I LOAD      ACCESS:   26417161  HIT:   26417068  MISS:         93
L1I RFO       ACCESS:          0  HIT:          0  MISS:          0
L1I PREFETCH  ACCESS:          0  HIT:          0  MISS:          0
L1I WRITEBACK ACCESS:          0  HIT:          0  MISS:          0
L1I PREFETCH  REQUESTED:          0  ISSUED:          0  USEFUL:          0  USELESS:          0
L2C TOTAL     ACCESS:    1572910  HIT:     316342  MISS:    1256568
L2C LOAD      ACCESS:    1412151  HIT:     216434  MISS:    1195717
L2C RFO       ACCESS:      69153  HIT:       8553  MISS:      60600
L2C PREFETCH  ACCESS:          0  HIT:          0  MISS:          0
L2C WRITEBACK ACCESS:      91606  HIT:      91355  MISS:        251
L2C PREFETCH  REQUESTED:          0  ISSUED:          0  USEFUL:          0  USELESS:          0
LLC TOTAL     ACCESS:    1335382  HIT:    1319095  MISS:      16287
LLC LOAD      ACCESS:    1195717  HIT:    1180016  MISS:      15701
LLC RFO       ACCESS:      60600  HIT:      60014  MISS:        586
LLC PREFETCH  ACCESS:          0  HIT:          0  MISS:          0
LLC WRITEBACK ACCESS:      79065  HIT:      79065  MISS:          0
LLC PREFETCH  REQUESTED:          0  ISSUED:          0  USEFUL:          0  USELESS:          0
Major fault: 0 Minor fault: 4224

CPU 1 cumulative IPC: 0.451183 instructions: 100000000 cycles: 221639620
L1D TOTAL     ACCESS:   32762831  HIT:   32541726  MISS:     221105
L1D LOAD      ACCESS:   18797632  HIT:   18680518  MISS:     117114
L1D RFO       ACCESS:   13965199  HIT:   13861208  MISS:     103991
L1D PREFETCH  ACCESS:          0  HIT:          0  MISS:          0
L1D WRITEBACK ACCESS:          0  HIT:          0  MISS:          0
L1D PREFETCH  REQUESTED:          0  ISSUED:          0  USEFUL:          0  USELESS:          0
L1I TOTAL     ACCESS:   22230911  HIT:   21866879  MISS:     364032
L1I LOAD      ACCESS:   22230911  HIT:   21866879  MISS:     364032
L1I RFO       ACCESS:          0  HIT:          0  MISS:          0
L1I PREFETCH  ACCESS:          0  HIT:          0  MISS:          0
L1I WRITEBACK ACCESS:          0  HIT:          0  MISS:          0
L1I PREFETCH  REQUESTED:          0  ISSUED:          0  USEFUL:          0  USELESS:          0
L2C TOTAL     ACCESS:     733690  HIT:     666432  MISS:      67258
L2C LOAD      ACCESS:     481143  HIT:     427426  MISS:      53717
L2C RFO       ACCESS:     103985  HIT:      90871  MISS:      13114
L2C PREFETCH  ACCESS:          0  HIT:          0  MISS:          0
L2C WRITEBACK ACCESS:     148562  HIT:     148135  MISS:        427
L2C PREFETCH  REQUESTED:          0  ISSUED:          0  USEFUL:          0  USELESS:          0
LLC TOTAL     ACCESS:     103791  HIT:      69805  MISS:      33986
LLC LOAD      ACCESS:      53717  HIT:      23741  MISS:      29976
LLC RFO       ACCESS:      13114  HIT:       9816  MISS:       3298
LLC PREFETCH  ACCESS:          0  HIT:          0  MISS:          0
LLC WRITEBACK ACCESS:      36960  HIT:      36248  MISS:        712
LLC PREFETCH  REQUESTED:          0  ISSUED:          0  USEFUL:          0  USELESS:          0
Major fault: 0 Minor fault: 3146

CPU 2 cumulative IPC: 0.437707 instructions: 100000000 cycles: 228463414
L1D TOTAL     ACCESS:   36397285  HIT:   34781487  MISS:    1615798
L1D LOAD      ACCESS:   22787266  HIT:   21351954  MISS:    1435312
L1D RFO       ACCESS:   13610019  HIT:   13429533  MISS:     180486
L1D PREFETCH  ACCESS:          0  HIT:          0  MISS:          0
L1D WRITEBACK ACCESS:          0  HIT:          0  MISS:          0
L1D PREFETCH  REQUESTED:          0  ISSUED:          0  USEFUL:          0  USELESS:          0
L1I TOTAL     ACCESS:   30938088  HIT:   30564278  MISS:     373810
L1I LOAD      ACCESS:   30938088  HIT:   30564278  MISS:     373810
L1I RFO       ACCESS:          0  HIT:          0  MISS:          0
L1I PREFETCH  ACCESS:          0  HIT:          0  MISS:          0
L1I WRITEBACK ACCESS:          0  HIT:          0  MISS:          0
L1I PREFETCH  REQUESTED:          0  ISSUED:          0  USEFUL:          0  USELESS:          0
L2C TOTAL     ACCESS:    2229073  HIT:    2219341  MISS:       9732
L2C LOAD      ACCESS:    1809121  HIT:    1799885  MISS:       9236
L2C RFO       ACCESS:     180467  HIT:     179973  MISS:        494
L2C PREFETCH  ACCESS:          0  HIT:          0  MISS:          0
L2C WRITEBACK ACCESS:     239485  HIT:     239483  MISS:          2
L2C PREFETCH  REQUESTED:          0  ISSUED:          0  USEFUL:          0  USELESS:          0
LLC TOTAL     ACCESS:      10182  HIT:      10019  MISS:        163
LLC LOAD      ACCESS:       9236  HIT:       9118  MISS:        118
LLC RFO       ACCESS:        494  HIT:        449  MISS:         45
LLC PREFETCH  ACCESS:          0  HIT:          0  MISS:          0
LLC WRITEBACK ACCESS:        452  HIT:        452  MISS:          0
LLC PREFETCH  REQUESTED:          0  ISSUED:          0  USEFUL:          0  USELESS:          0
Major fault: 0 Minor fault: 207

CPU 3 cumulative IPC: 0.593128 instructions: 100000002 cycles: 168597781
L1D TOTAL     ACCESS:   26884162  HIT:   26776210  MISS:     107952
L1D LOAD      ACCESS:   19188318  HIT:   19116772  MISS:      71546
L1D RFO       ACCESS:    7695844  HIT:    7659438  MISS:      36406
L1D PREFETCH  ACCESS:          0  HIT:          0  MISS:          0
L1D WRITEBACK ACCESS:          0  HIT:          0  MISS:          0
L1D PREFETCH  REQUESTED:          0  ISSUED:          0  USEFUL:          0  USELESS:          0
L1I TOTAL     ACCESS:   23005396  HIT:   23004127  MISS:       1269
L1I LOAD      ACCESS:   23005396  HIT:   23004127  MISS:       1269
L1I RFO       ACCESS:          0  HIT:          0  MISS:          0
L1I PREFETCH  ACCESS:          0  HIT:          0  MISS:          0
L1I WRITEBACK ACCESS:          0  HIT:          0  MISS:          0
L1I PREFETCH  REQUESTED:          0  ISSUED:          0  USEFUL:          0  USELESS:          0
L2C TOTAL     ACCESS:     179094  HIT:     142331  MISS:      36763
L2C LOAD      ACCESS:      72814  HIT:      38827  MISS:      33987
L2C RFO       ACCESS:      36384  HIT:      33755  MISS:       2629
L2C PREFETCH  ACCESS:          0  HIT:          0  MISS:          0
L2C WRITEBACK ACCESS:      69896  HIT:      69749  MISS:        147
L2C PREFETCH  REQUESTED:          0  ISSUED:          0  USEFUL:          0  USELESS:          0
LLC TOTAL     ACCESS:      69883  HIT:      35064  MISS:      34819
LLC LOAD      ACCESS:      33987  HIT:       1923  MISS:      32064
LLC RFO       ACCESS:       2629  HIT:        688  MISS:       1941
LLC PREFETCH  ACCESS:          0  HIT:          0  MISS:          0
LLC WRITEBACK ACCESS:      33267  HIT:      32453  MISS:        814
LLC PREFETCH  REQUESTED:          0  ISSUED:          0  USEFUL:          0  USELESS:          0
Major fault: 0 Minor fault: 17490

CPU 4 cumulative IPC: 0.426892 instructions: 100000000 cycles: 234251265
L1D TOTAL     ACCESS:   37121041  HIT:   35683970  MISS:    1437071
L1D LOAD      ACCESS:   22983623  HIT:   21744765  MISS:    1238858
L1D RFO       ACCESS:   14137418  HIT:   13939205  MISS:     198213
L1D PREFETCH  ACCESS:          0  HIT:          0  MISS:          0
L1D WRITEBACK ACCESS:          0  HIT:          0  MISS:          0
L1D PREFETCH  REQUESTED:          0  ISSUED:          0  USEFUL:          0  USELESS:          0
L1I TOTAL     ACCESS:   30547933  HIT:   30143251  MISS:     404682
L1I LOAD      ACCESS:   30547933  HIT:   30143251  MISS:     404682
L1I RFO       ACCESS:          0  HIT:          0  MISS:          0
L1I PREFETCH  ACCESS:          0  HIT:          0  MISS:          0
L1I WRITEBACK ACCESS:          0  HIT:          0  MISS:          0
L1I PREFETCH  REQUESTED:          0  ISSUED:          0  USEFUL:          0  USELESS:          0
L2C TOTAL     ACCESS:    2102433  HIT:    2101215  MISS:       1218
L2C LOAD      ACCESS:    1643540  HIT:    1642458  MISS:       1082
L2C RFO       ACCESS:     198110  HIT:     197974  MISS:        136
L2C PREFETCH  ACCESS:          0  HIT:          0  MISS:          0
L2C WRITEBACK ACCESS:     260783  HIT:     260783  MISS:          0
L2C PREFETCH  REQUESTED:          0  ISSUED:          0  USEFUL:          0  USELESS:          0
LLC TOTAL     ACCESS:       1292  HIT:        590  MISS:        702
LLC LOAD      ACCESS:       1082  HIT:        446  MISS:        636
LLC RFO       ACCESS:        136  HIT:         71  MISS:         65
LLC PREFETCH  ACCESS:          0  HIT:          0  MISS:          0
LLC WRITEBACK ACCESS:         74  HIT:         73  MISS:          1
LLC PREFETCH  REQUESTED:          0  ISSUED:          0  USEFUL:          0  USELESS:          0
Major fault: 0 Minor fault: 207

CPU 5 cumulative IPC: 0.440245 instructions: 100000002 cycles: 227146143
L1D TOTAL     ACCESS:   33057354  HIT:   32706030  MISS:     351324
L1D LOAD      ACCESS:   18743255  HIT:   18529266  MISS:     213989
L1D RFO       ACCESS:   14314099  HIT:   14176764  MISS:     137335
L1D PREFETCH  ACCESS:          0  HIT:          0  MISS:          0
L1D WRITEBACK ACCESS:          0  HIT:          0  MISS:          0
L1D PREFETCH  REQUESTED:          0  ISSUED:          0  USEFUL:          0  USELESS:          0
L1I TOTAL     ACCESS:   22576855  HIT:   22244712  MISS:     332143
L1I LOAD      ACCESS:   22576855  HIT:   22244712  MISS:     332143
L1I RFO       ACCESS:          0  HIT:          0  MISS:          0
L1I PREFETCH  ACCESS:          0  HIT:          0  MISS:          0
L1I WRITEBACK ACCESS:          0  HIT:          0  MISS:          0
L1I PREFETCH  REQUESTED:          0  ISSUED:          0  USEFUL:          0  USELESS:          0
L2C TOTAL     ACCESS:     895459  HIT:     708840  MISS:     186619
L2C LOAD      ACCESS:     546131  HIT:     392640  MISS:     153491
L2C RFO       ACCESS:     137329  HIT:     104889  MISS:      32440
L2C PREFETCH  ACCESS:          0  HIT:          0  MISS:          0
L2C WRITEBACK ACCESS:     211999  HIT:     211311  MISS:        688
L2C PREFETCH  REQUESTED:          0  ISSUED:          0  USEFUL:          0  USELESS:          0
LLC TOTAL     ACCESS:     265117  HIT:     218716  MISS:      46401
LLC LOAD      ACCESS:     153491  HIT:     110796  MISS:      42695
LLC RFO       ACCESS:      32440  HIT:      29069  MISS:       3371
LLC PREFETCH  ACCESS:          0  HIT:          0  MISS:          0
LLC WRITEBACK ACCESS:      79186  HIT:      78851  MISS:        335
LLC PREFETCH  REQUESTED:          0  ISSUED:          0  USEFUL:          0  USELESS:          0
Major fault: 0 Minor fault: 3337

CPU 6 cumulative IPC: 0.736013 instructions: 100000002 cycles: 135867137
L1D TOTAL     ACCESS:   30161060  HIT:   29483326  MISS:     677734
L1D LOAD      ACCESS:   20235083  HIT:   19879085  MISS:     355998
L1D RFO       ACCESS:    9925977  HIT:    9604241  MISS:     321736
L1D PREFETCH  ACCESS:          0  HIT:          0  MISS:          0
L1D WRITEBACK ACCESS:          0  HIT:          0  MISS:          0
L1D PREFETCH  REQUESTED:          0  ISSUED:          0  USEFUL:          0  USELESS:          0
L1I TOTAL     ACCESS:   25653029  HIT:   25528986  MISS:     124043
L1I LOAD      ACCESS:   25653029  HIT:   25528986  MISS:     124043
L1I RFO       ACCESS:          0  HIT:          0  MISS:          0
L1I PREFETCH  ACCESS:          0  HIT:          0  MISS:          0
L1I WRITEBACK ACCESS:          0  HIT:          0  MISS:          0
L1I PREFETCH  REQUESTED:          0  ISSUED:          0  USEFUL:          0  USELESS:          0
L2C TOTAL     ACCESS:    1155780  HIT:    1043859  MISS:     111921
L2C LOAD      ACCESS:     480032  HIT:     430006  MISS:      50026
L2C RFO       ACCESS:     321736  HIT:     260033  MISS:      61703
L2C PREFETCH  ACCESS:          0  HIT:          0  MISS:          0
L2C WRITEBACK ACCESS:     354012  HIT:     353820  MISS:        192
L2C PREFETCH  REQUESTED:          0  ISSUED:          0  USEFUL:          0  USELESS:          0
LLC TOTAL     ACCESS:     179946  HIT:     171650  MISS:       8296
LLC LOAD      ACCESS:      50026  HIT:      42261  MISS:       7765
LLC RFO       ACCESS:      61703  HIT:      61505  MISS:        198
LLC PREFETCH  ACCESS:          0  HIT:          0  MISS:          0
LLC WRITEBACK ACCESS:      68217  HIT:      67884  MISS:        333
LLC PREFETCH  REQUESTED:          0  ISSUED:          0  USEFUL:          0  USELESS:          0
Major fault: 0 Minor fault: 609

CPU 7 cumulative IPC: 0.815944 instructions: 100000003 cycles: 122557464
L1D TOTAL     ACCESS:   33433327  HIT:   32547746  MISS:     885581
L1D LOAD      ACCESS:   19388054  HIT:   18794333  MISS:     593721
L1D RFO       ACCESS:   14045273  HIT:   13753413  MISS:     291860
L1D PREFETCH  ACCESS:          0  HIT:          0  MISS:          0
L1D WRITEBACK ACCESS:          0  HIT:          0  MISS:          0
L1D PREFETCH  REQUESTED:          0  ISSUED:          0  USEFUL:          0  USELESS:          0
L1I TOTAL     ACCESS:   24517862  HIT:   24517673  MISS:        189
L1I LOAD      ACCESS:   24517862  HIT:   24517673  MISS:        189
L1I RFO       ACCESS:          0  HIT:          0  MISS:          0
L1I PREFETCH  ACCESS:          0  HIT:          0  MISS:          0
L1I WRITEBACK ACCESS:          0  HIT:          0  MISS:          0
L1I PREFETCH  REQUESTED:          0  ISSUED:          0  USEFUL:          0  USELESS:          0
L2C TOTAL     ACCESS:    1364576  HIT:     911155  MISS:     453421
L2C LOAD      ACCESS:     593460  HIT:     320232  MISS:     273228
L2C RFO       ACCESS:     291742  HIT:     112109  MISS:     179633
L2C PREFETCH  ACCESS:          0  HIT:          0  MISS:          0
L2C WRITEBACK ACCESS:     479374  HIT:     478814  MISS:        560
L2C PREFETCH  REQUESTED:          0  ISSUED:          0  USEFUL:          0  USELESS:          0
LLC TOTAL     ACCESS:     693426  HIT:     640394  MISS:      53032
LLC LOAD      ACCESS:     273226  HIT:     262885  MISS:      10341
LLC RFO       ACCESS:     179627  HIT:     136940  MISS:      42687
LLC PREFETCH  ACCESS:          0  HIT:          0  MISS:          0
LLC WRITEBACK ACCESS:     240573  HIT:     240569  MISS:          4
LLC PREFETCH  REQUESTED:          0  ISSUED:          0  USEFUL:          0  USELESS:          0
Major fault: 0 Minor fault: 1126

DRAM Statistics
 CHANNEL 0
 RQ ROW_BUFFER_HIT:      32410  ROW_BUFFER_MISS:     102358
 DBUS_CONGESTED:     104257
 WQ ROW_BUFFER_HIT:       3810  ROW_BUFFER_MISS:      48349  FULL:          0

 CHANNEL 1
 RQ ROW_BUFFER_HIT:      31953  ROW_BUFFER_MISS:     103057
 DBUS_CONGESTED:     104257
 WQ ROW_BUFFER_HIT:       3740  ROW_BUFFER_MISS:      48586  FULL:          0

 AVG_CONGESTED_CYCLE: 14
