
*** ChampSim Multicore Out-of-Order Simulator ***

Warmup Instructions: 20000000
Simulation Instructions: 100000000
Number of CPUs: 8
LLC sets: 16384
LLC ways: 16
Off-chip DRAM Size: 8192 MB Channels: 2 Width: 64-bit Data Rate: 1600 MT/s

CPU 0 runs /scratch/user/djimenez/champsim-traces/speccpu2006/xz/459.GemsFDTD-1320B.champsimtrace.xz
CPU 1 runs /scratch/user/djimenez/champsim-traces/speccpu2006/xz/458.sjeng-31B.champsimtrace.xz
CPU 2 runs /scratch/user/djimenez/champsim-traces/speccpu2006/xz/450.soplex-92B.champsimtrace.xz
CPU 3 runs /scratch/user/djimenez/champsim-traces/speccpu2006/xz/453.povray-576B.champsimtrace.xz
CPU 4 runs /scratch/user/djimenez/champsim-traces/speccpu2006/xz/483.xalancbmk-736B.champsimtrace.xz
CPU 5 runs /scratch/user/djimenez/champsim-traces/speccpu2006/xz/465.tonto-44B.champsimtrace.xz
CPU 6 runs /scratch/user/djimenez/champsim-traces/speccpu2006/xz/465.tonto-1914B.champsimtrace.xz
CPU 7 runs /scratch/user/djimenez/champsim-traces/speccpu2006/xz/429.mcf-22B.champsimtrace.xz
Heartbeat CPU 6 instructions: 10000001 cycles: 5000800 heartbeat IPC: 1.99968 cumulative IPC: 1.99968 (Simulation time: 0 hr 3 min 44 sec) 
Heartbeat CPU 2 instructions: 10000000 cycles: 5040721 heartbeat IPC: 1.98384 cumulative IPC: 1.98384 (Simulation time: 0 hr 3 min 46 sec) 
Heartbeat CPU 5 instructions: 10000000 cycles: 5237776 heartbeat IPC: 1.90921 cumulative IPC: 1.90921 (Simulation time: 0 hr 3 min 55 sec) 
Heartbeat CPU 4 instructions: 10000002 cycles: 5317474 heartbeat IPC: 1.88059 cumulative IPC: 1.88059 (Simulation time: 0 hr 3 min 59 sec) 
Heartbeat CPU 1 instructions: 10000001 cycles: 5605015 heartbeat IPC: 1.78412 cumulative IPC: 1.78412 (Simulation time: 0 hr 4 min 12 sec) 
Heartbeat CPU 7 instructions: 10000001 cycles: 5823790 heartbeat IPC: 1.7171 cumulative IPC: 1.7171 (Simulation time: 0 hr 4 min 22 sec) 
Heartbeat CPU 3 instructions: 10000000 cycles: 6674745 heartbeat IPC: 1.49818 cumulative IPC: 1.49818 (Simulation time: 0 hr 5 min 0 sec) 
Heartbeat CPU 0 instructions: 10000000 cycles: 6694138 heartbeat IPC: 1.49384 cumulative IPC: 1.49384 (Simulation time: 0 hr 5 min 1 sec) 
Heartbeat CPU 6 instructions: 20000000 cycles: 9849518 heartbeat IPC: 2.0624 cumulative IPC: 2.03056 (Simulation time: 0 hr 7 min 25 sec) 
Heartbeat CPU 2 instructions: 20000000 cycles: 10195445 heartbeat IPC: 1.93997 cumulative IPC: 1.96166 (Simulation time: 0 hr 7 min 41 sec) 
Heartbeat CPU 5 instructions: 20000000 cycles: 10356837 heartbeat IPC: 1.95348 cumulative IPC: 1.93109 (Simulation time: 0 hr 7 min 49 sec) 
Heartbeat CPU 4 instructions: 20000000 cycles: 10628558 heartbeat IPC: 1.88285 cumulative IPC: 1.88172 (Simulation time: 0 hr 8 min 2 sec) 
Heartbeat CPU 1 instructions: 20000000 cycles: 11119175 heartbeat IPC: 1.81351 cumulative IPC: 1.79869 (Simulation time: 0 hr 8 min 24 sec) 
Heartbeat CPU 7 instructions: 20000000 cycles: 11846419 heartbeat IPC: 1.6604 cumulative IPC: 1.68827 (Simulation time: 0 hr 8 min 56 sec) 
Heartbeat CPU 3 instructions: 20000000 cycles: 12199677 heartbeat IPC: 1.80998 cumulative IPC: 1.63939 (Simulation time: 0 hr 9 min 13 sec) 
Heartbeat CPU 0 instructions: 20000000 cycles: 13436280 heartbeat IPC: 1.48321 cumulative IPC: 1.48851 (Simulation time: 0 hr 10 min 7 sec) 

Warmup complete CPU 0 instructions: 20000001 cycles: 13436281 (Simulation time: 0 hr 10 min 7 sec) 
Warmup complete CPU 1 instructions: 24161396 cycles: 13436280 (Simulation time: 0 hr 10 min 7 sec) 
Warmup complete CPU 2 instructions: 26334935 cycles: 13436280 (Simulation time: 0 hr 10 min 7 sec) 
Warmup complete CPU 3 instructions: 21904122 cycles: 13436280 (Simulation time: 0 hr 10 min 7 sec) 
Warmup complete CPU 4 instructions: 25285257 cycles: 13436280 (Simulation time: 0 hr 10 min 7 sec) 
Warmup complete CPU 5 instructions: 25664523 cycles: 13436280 (Simulation time: 0 hr 10 min 7 sec) 
Warmup complete CPU 6 instructions: 26917377 cycles: 13436280 (Simulation time: 0 hr 10 min 7 sec) 
Warmup complete CPU 7 instructions: 22773589 cycles: 13436280 (Simulation time: 0 hr 10 min 7 sec) 

Heartbeat CPU 6 instructions: 30000003 cycles: 17939706 heartbeat IPC: 1.23607 cumulative IPC: 0.684507 (Simulation time: 0 hr 11 min 44 sec) 
Heartbeat CPU 4 instructions: 30000002 cycles: 19443295 heartbeat IPC: 1.13446 cumulative IPC: 0.784873 (Simulation time: 0 hr 12 min 23 sec) 
Heartbeat CPU 5 instructions: 30000001 cycles: 20757535 heartbeat IPC: 0.961474 cumulative IPC: 0.592177 (Simulation time: 0 hr 12 min 51 sec) 
Heartbeat CPU 1 instructions: 30000000 cycles: 23400673 heartbeat IPC: 0.814233 cumulative IPC: 0.585947 (Simulation time: 0 hr 13 min 45 sec) 
Heartbeat CPU 2 instructions: 30000002 cycles: 25235528 heartbeat IPC: 0.66489 cumulative IPC: 0.310619 (Simulation time: 0 hr 14 min 25 sec) 
Heartbeat CPU 0 instructions: 30000000 cycles: 29951243 heartbeat IPC: 0.605511 cumulative IPC: 0.605511 (Simulation time: 0 hr 16 min 16 sec) 
Heartbeat CPU 4 instructions: 40000000 cycles: 30314254 heartbeat IPC: 0.919882 cumulative IPC: 0.871831 (Simulation time: 0 hr 16 min 23 sec) 
Heartbeat CPU 7 instructions: 30000002 cycles: 31303901 heartbeat IPC: 0.513941 cumulative IPC: 0.404442 (Simulation time: 0 hr 16 min 49 sec) 
Heartbeat CPU 3 instructions: 30000000 cycles: 32652849 heartbeat IPC: 0.488922 cumulative IPC: 0.421297 (Simulation time: 0 hr 17 min 23 sec) 
Heartbeat CPU 6 instructions: 40000000 cycles: 33083883 heartbeat IPC: 0.66032 cumulative IPC: 0.665864 (Simulation time: 0 hr 17 min 34 sec) 
Heartbeat CPU 5 instructions: 40000000 cycles: 35123301 heartbeat IPC: 0.696099 cumulative IPC: 0.661016 (Simulation time: 0 hr 18 min 21 sec) 
Heartbeat CPU 1 instructions: 40000000 cycles: 40451618 heartbeat IPC: 0.586478 cumulative IPC: 0.586282 (Simulation time: 0 hr 20 min 15 sec) 
Heartbeat CPU 4 instructions: 50000002 cycles: 40723404 heartbeat IPC: 0.960693 cumulative IPC: 0.905729 (Simulation time: 0 hr 20 min 20 sec) 
Heartbeat CPU 0 instructions: 40000000 cycles: 46031338 heartbeat IPC: 0.621887 cumulative IPC: 0.61359 (Simulation time: 0 hr 22 min 17 sec) 
Heartbeat CPU 6 instructions: 50000003 cycles: 47404226 heartbeat IPC: 0.698308 cumulative IPC: 0.679541 (Simulation time: 0 hr 22 min 46 sec) 
Heartbeat CPU 5 instructions: 50000001 cycles: 50858261 heartbeat IPC: 0.635528 cumulative IPC: 0.650299 (Simulation time: 0 hr 23 min 59 sec) 
Heartbeat CPU 4 instructions: 60000000 cycles: 51252799 heartbeat IPC: 0.949722 cumulative IPC: 0.917978 (Simulation time: 0 hr 24 min 7 sec) 
Heartbeat CPU 2 instructions: 40000000 cycles: 53562649 heartbeat IPC: 0.353019 cumulative IPC: 0.340551 (Simulation time: 0 hr 24 min 52 sec) 
Heartbeat CPU 3 instructions: 40000000 cycles: 57009004 heartbeat IPC: 0.410574 cumulative IPC: 0.415303 (Simulation time: 0 hr 26 min 3 sec) 
Heartbeat CPU 1 instructions: 50000001 cycles: 57201118 heartbeat IPC: 0.597033 cumulative IPC: 0.590396 (Simulation time: 0 hr 26 min 7 sec) 
Heartbeat CPU 7 instructions: 40000000 cycles: 57304264 heartbeat IPC: 0.38461 cumulative IPC: 0.392688 (Simulation time: 0 hr 26 min 9 sec) 
Heartbeat CPU 6 instructions: 60000000 cycles: 59330133 heartbeat IPC: 0.83851 cumulative IPC: 0.720851 (Simulation time: 0 hr 26 min 59 sec) 
Heartbeat CPU 4 instructions: 70000002 cycles: 61679199 heartbeat IPC: 0.959104 cumulative IPC: 0.926866 (Simulation time: 0 hr 27 min 47 sec) 
Heartbeat CPU 5 instructions: 60000000 cycles: 63648237 heartbeat IPC: 0.781862 cumulative IPC: 0.683811 (Simulation time: 0 hr 28 min 27 sec) 
Heartbeat CPU 6 instructions: 70000000 cycles: 70822392 heartbeat IPC: 0.870151 cumulative IPC: 0.75075 (Simulation time: 0 hr 30 min 45 sec) 
Heartbeat CPU 4 instructions: 80000000 cycles: 72156871 heartbeat IPC: 0.95441 cumulative IPC: 0.931781 (Simulation time: 0 hr 31 min 11 sec) 
Heartbeat CPU 0 instructions: 50000000 cycles: 72746813 heartbeat IPC: 0.374315 cumulative IPC: 0.505812 (Simulation time: 0 hr 31 min 22 sec) 
Heartbeat CPU 1 instructions: 60000000 cycles: 74238211 heartbeat IPC: 0.586955 cumulative IPC: 0.589432 (Simulation time: 0 hr 31 min 50 sec) 
Heartbeat CPU 5 instructions: 70000002 cycles: 76005680 heartbeat IPC: 0.809229 cumulative IPC: 0.708581 (Simulation time: 0 hr 32 min 23 sec) 
Heartbeat CPU 3 instructions: 50000002 cycles: 81344712 heartbeat IPC: 0.410919 cumulative IPC: 0.413732 (Simulation time: 0 hr 34 min 7 sec) 
Heartbeat CPU 4 instructions: 90000002 cycles: 83052181 heartbeat IPC: 0.917826 cumulative IPC: 0.929597 (Simulation time: 0 hr 34 min 39 sec) 
Heartbeat CPU 6 instructions: 80000000 cycles: 83990429 heartbeat IPC: 0.759415 cumulative IPC: 0.752367 (Simulation time: 0 hr 34 min 55 sec) 
Heartbeat CPU 2 instructions: 50000000 cycles: 85154728 heartbeat IPC: 0.316535 cumulative IPC: 0.329972 (Simulation time: 0 hr 35 min 15 sec) 
Heartbeat CPU 5 instructions: 80000000 cycles: 88427333 heartbeat IPC: 0.805046 cumulative IPC: 0.724559 (Simulation time: 0 hr 36 min 14 sec) 
Heartbeat CPU 1 instructions: 70000003 cycles: 91344629 heartbeat IPC: 0.584576 cumulative IPC: 0.588366 (Simulation time: 0 hr 37 min 7 sec) 
Heartbeat CPU 7 instructions: 50000002 cycles: 91989062 heartbeat IPC: 0.288311 cumulative IPC: 0.3466 (Simulation time: 0 hr 37 min 18 sec) 
Heartbeat CPU 4 instructions: 100000000 cycles: 93924997 heartbeat IPC: 0.919725 cumulative IPC: 0.928264 (Simulation time: 0 hr 37 min 53 sec) 
Heartbeat CPU 6 instructions: 90000002 cycles: 99147175 heartbeat IPC: 0.659772 cumulative IPC: 0.735993 (Simulation time: 0 hr 39 min 29 sec) 
Heartbeat CPU 5 instructions: 90000003 cycles: 100769712 heartbeat IPC: 0.810217 cumulative IPC: 0.736665 (Simulation time: 0 hr 40 min 1 sec) 
Heartbeat CPU 0 instructions: 60000000 cycles: 104141259 heartbeat IPC: 0.318528 cumulative IPC: 0.44099 (Simulation time: 0 hr 41 min 2 sec) 
Heartbeat CPU 4 instructions: 110000000 cycles: 104836998 heartbeat IPC: 0.916422 cumulative IPC: 0.92685 (Simulation time: 0 hr 41 min 15 sec) 
Heartbeat CPU 3 instructions: 60000000 cycles: 105797768 heartbeat IPC: 0.408947 cumulative IPC: 0.412465 (Simulation time: 0 hr 41 min 34 sec) 
Heartbeat CPU 1 instructions: 80000000 cycles: 107569815 heartbeat IPC: 0.616326 cumulative IPC: 0.593185 (Simulation time: 0 hr 42 min 9 sec) 
Heartbeat CPU 6 instructions: 100000000 cycles: 114326584 heartbeat IPC: 0.658787 cumulative IPC: 0.724377 (Simulation time: 0 hr 44 min 19 sec) 
Heartbeat CPU 2 instructions: 60000000 cycles: 115136256 heartbeat IPC: 0.333539 cumulative IPC: 0.331023 (Simulation time: 0 hr 44 min 34 sec) 
Heartbeat CPU 4 instructions: 120000000 cycles: 115617107 heartbeat IPC: 0.927634 cumulative IPC: 0.926933 (Simulation time: 0 hr 44 min 42 sec) 
Heartbeat CPU 5 instructions: 100000000 cycles: 116376302 heartbeat IPC: 0.640755 cumulative IPC: 0.722124 (Simulation time: 0 hr 44 min 56 sec) 
Finished CPU 4 instructions: 100000002 cycles: 107876257 cumulative IPC: 0.926988 (Simulation time: 0 hr 46 min 28 sec) 
Heartbeat CPU 7 instructions: 60000000 cycles: 123981049 heartbeat IPC: 0.312578 cumulative IPC: 0.336754 (Simulation time: 0 hr 47 min 18 sec) 
Heartbeat CPU 1 instructions: 90000002 cycles: 124424689 heartbeat IPC: 0.5933 cumulative IPC: 0.593203 (Simulation time: 0 hr 47 min 25 sec) 
Heartbeat CPU 4 instructions: 130000001 cycles: 126439433 heartbeat IPC: 0.924016 cumulative IPC: 0.926653 (Simulation time: 0 hr 48 min 1 sec) 
Heartbeat CPU 6 instructions: 110000002 cycles: 129610818 heartbeat IPC: 0.654269 cumulative IPC: 0.715153 (Simulation time: 0 hr 49 min 5 sec) 
Heartbeat CPU 3 instructions: 70000001 cycles: 130955842 heartbeat IPC: 0.397487 cumulative IPC: 0.409258 (Simulation time: 0 hr 49 min 34 sec) 
Heartbeat CPU 0 instructions: 70000003 cycles: 131639699 heartbeat IPC: 0.363657 cumulative IPC: 0.423 (Simulation time: 0 hr 49 min 49 sec) 
Heartbeat CPU 5 instructions: 110000000 cycles: 132078621 heartbeat IPC: 0.636849 cumulative IPC: 0.710838 (Simulation time: 0 hr 49 min 57 sec) 
Heartbeat CPU 4 instructions: 140000000 cycles: 137359577 heartbeat IPC: 0.915739 cumulative IPC: 0.925691 (Simulation time: 0 hr 51 min 46 sec) 
Heartbeat CPU 1 instructions: 100000000 cycles: 140721677 heartbeat IPC: 0.61361 cumulative IPC: 0.595815 (Simulation time: 0 hr 52 min 53 sec) 
Heartbeat CPU 6 instructions: 120000000 cycles: 142309135 heartbeat IPC: 0.787506 cumulative IPC: 0.722283 (Simulation time: 0 hr 53 min 26 sec) 
Heartbeat CPU 5 instructions: 120000000 cycles: 147718543 heartbeat IPC: 0.639389 cumulative IPC: 0.702516 (Simulation time: 0 hr 55 min 18 sec) 
Heartbeat CPU 4 instructions: 150000001 cycles: 148345309 heartbeat IPC: 0.910272 cumulative IPC: 0.924436 (Simulation time: 0 hr 55 min 31 sec) 
Heartbeat CPU 0 instructions: 80000000 cycles: 150417942 heartbeat IPC: 0.532531 cumulative IPC: 0.438015 (Simulation time: 0 hr 56 min 22 sec) 
Finished CPU 6 instructions: 100000000 cycles: 137051754 cumulative IPC: 0.729651 (Simulation time: 0 hr 56 min 23 sec) 
Heartbeat CPU 2 instructions: 70000000 cycles: 152292430 heartbeat IPC: 0.269134 cumulative IPC: 0.314463 (Simulation time: 0 hr 57 min 0 sec) 
Heartbeat CPU 6 instructions: 130000000 cycles: 154048728 heartbeat IPC: 0.851818 cumulative IPC: 0.733097 (Simulation time: 0 hr 57 min 35 sec) 
Heartbeat CPU 7 instructions: 70000002 cycles: 155007869 heartbeat IPC: 0.322302 cumulative IPC: 0.333587 (Simulation time: 0 hr 57 min 55 sec) 
Heartbeat CPU 3 instructions: 80000000 cycles: 156468018 heartbeat IPC: 0.39197 cumulative IPC: 0.406175 (Simulation time: 0 hr 58 min 25 sec) 
Finished CPU 5 instructions: 100000003 cycles: 143302652 cumulative IPC: 0.697824 (Simulation time: 0 hr 58 min 30 sec) 
Heartbeat CPU 1 instructions: 110000000 cycles: 157740198 heartbeat IPC: 0.587595 cumulative IPC: 0.594846 (Simulation time: 0 hr 58 min 51 sec) 
Heartbeat CPU 4 instructions: 160000000 cycles: 159529551 heartbeat IPC: 0.894115 cumulative IPC: 0.922115 (Simulation time: 0 hr 59 min 29 sec) 
Heartbeat CPU 5 instructions: 130000002 cycles: 163338509 heartbeat IPC: 0.640206 cumulative IPC: 0.696024 (Simulation time: 1 hr 0 min 54 sec) 
Heartbeat CPU 6 instructions: 140000000 cycles: 165513361 heartbeat IPC: 0.872248 cumulative IPC: 0.743588 (Simulation time: 1 hr 1 min 42 sec) 
Heartbeat CPU 0 instructions: 90000001 cycles: 168273841 heartbeat IPC: 0.560039 cumulative IPC: 0.452087 (Simulation time: 1 hr 2 min 39 sec) 
Heartbeat CPU 4 instructions: 170000002 cycles: 171194714 heartbeat IPC: 0.857253 cumulative IPC: 0.917319 (Simulation time: 1 hr 3 min 41 sec) 
Heartbeat CPU 1 instructions: 120000000 cycles: 174727235 heartbeat IPC: 0.588684 cumulative IPC: 0.594197 (Simulation time: 1 hr 4 min 53 sec) 
Heartbeat CPU 2 instructions: 80000000 cycles: 175745010 heartbeat IPC: 0.426392 cumulative IPC: 0.330636 (Simulation time: 1 hr 5 min 14 sec) 
Heartbeat CPU 6 instructions: 150000000 cycles: 177054740 heartbeat IPC: 0.866448 cumulative IPC: 0.752254 (Simulation time: 1 hr 5 min 43 sec) 
Heartbeat CPU 5 instructions: 140000000 cycles: 179851439 heartbeat IPC: 0.605586 cumulative IPC: 0.68705 (Simulation time: 1 hr 6 min 43 sec) 
Heartbeat CPU 3 instructions: 90000000 cycles: 181136699 heartbeat IPC: 0.405372 cumulative IPC: 0.406057 (Simulation time: 1 hr 7 min 7 sec) 
Finished CPU 1 instructions: 100000001 cycles: 168433432 cumulative IPC: 0.593706 (Simulation time: 1 hr 7 min 21 sec) 
Heartbeat CPU 4 instructions: 180000000 cycles: 184109240 heartbeat IPC: 0.774322 cumulative IPC: 0.906498 (Simulation time: 1 hr 8 min 2 sec) 
Heartbeat CPU 0 instructions: 100000000 cycles: 185527001 heartbeat IPC: 0.579604 cumulative IPC: 0.464871 (Simulation time: 1 hr 8 min 29 sec) 
Heartbeat CPU 7 instructions: 80000000 cycles: 189007411 heartbeat IPC: 0.294122 cumulative IPC: 0.325944 (Simulation time: 1 hr 9 min 31 sec) 
Heartbeat CPU 6 instructions: 160000000 cycles: 191495667 heartbeat IPC: 0.692476 cumulative IPC: 0.747406 (Simulation time: 1 hr 10 min 15 sec) 
Heartbeat CPU 1 instructions: 130000000 cycles: 191908837 heartbeat IPC: 0.582018 cumulative IPC: 0.593025 (Simulation time: 1 hr 10 min 22 sec) 
Heartbeat CPU 5 instructions: 150000001 cycles: 195697302 heartbeat IPC: 0.63108 cumulative IPC: 0.682184 (Simulation time: 1 hr 11 min 32 sec) 
Heartbeat CPU 0 instructions: 110000002 cycles: 202092109 heartbeat IPC: 0.603679 cumulative IPC: 0.477059 (Simulation time: 1 hr 13 min 34 sec) 
Heartbeat CPU 2 instructions: 90000000 cycles: 205290975 heartbeat IPC: 0.338456 cumulative IPC: 0.33184 (Simulation time: 1 hr 14 min 38 sec) 
Heartbeat CPU 3 instructions: 100000000 cycles: 206161577 heartbeat IPC: 0.399602 cumulative IPC: 0.405219 (Simulation time: 1 hr 14 min 54 sec) 
Heartbeat CPU 4 instructions: 190000000 cycles: 206236457 heartbeat IPC: 0.451932 cumulative IPC: 0.854329 (Simulation time: 1 hr 14 min 56 sec) 
Heartbeat CPU 6 instructions: 170000001 cycles: 206702016 heartbeat IPC: 0.65762 cumulative IPC: 0.740341 (Simulation time: 1 hr 15 min 4 sec) 
Heartbeat CPU 1 instructions: 140000000 cycles: 209051544 heartbeat IPC: 0.583338 cumulative IPC: 0.592176 (Simulation time: 1 hr 15 min 46 sec) 
Heartbeat CPU 5 instructions: 160000000 cycles: 211508540 heartbeat IPC: 0.632461 cumulative IPC: 0.678214 (Simulation time: 1 hr 16 min 32 sec) 
Heartbeat CPU 0 instructions: 120000000 cycles: 218366070 heartbeat IPC: 0.614478 cumulative IPC: 0.487972 (Simulation time: 1 hr 18 min 34 sec) 
Finished CPU 0 instructions: 100000002 cycles: 204929798 cumulative IPC: 0.487972 (Simulation time: 1 hr 18 min 34 sec) 
Heartbeat CPU 7 instructions: 90000003 cycles: 219172202 heartbeat IPC: 0.331512 cumulative IPC: 0.326761 (Simulation time: 1 hr 18 min 51 sec) 
Heartbeat CPU 6 instructions: 180000000 cycles: 221877451 heartbeat IPC: 0.65896 cumulative IPC: 0.734416 (Simulation time: 1 hr 19 min 41 sec) 
Heartbeat CPU 1 instructions: 150000000 cycles: 225904325 heartbeat IPC: 0.593374 cumulative IPC: 0.592271 (Simulation time: 1 hr 20 min 50 sec) 
Heartbeat CPU 4 instructions: 200000000 cycles: 226535848 heartbeat IPC: 0.492626 cumulative IPC: 0.819874 (Simulation time: 1 hr 21 min 0 sec) 
Heartbeat CPU 5 instructions: 170000000 cycles: 227208405 heartbeat IPC: 0.636948 cumulative IPC: 0.675184 (Simulation time: 1 hr 21 min 12 sec) 
Heartbeat CPU 3 instructions: 110000002 cycles: 231511809 heartbeat IPC: 0.394474 cumulative IPC: 0.40397 (Simulation time: 1 hr 22 min 25 sec) 
Heartbeat CPU 6 instructions: 190000001 cycles: 237053831 heartbeat IPC: 0.658919 cumulative IPC: 0.729293 (Simulation time: 1 hr 24 min 0 sec) 
Heartbeat CPU 2 instructions: 100000000 cycles: 237769574 heartbeat IPC: 0.307895 cumulative IPC: 0.328373 (Simulation time: 1 hr 24 min 13 sec) 
Heartbeat CPU 0 instructions: 130000002 cycles: 241329169 heartbeat IPC: 0.435481 cumulative IPC: 0.482683 (Simulation time: 1 hr 25 min 23 sec) 
Heartbeat CPU 1 instructions: 160000000 cycles: 242927022 heartbeat IPC: 0.587451 cumulative IPC: 0.591913 (Simulation time: 1 hr 25 min 52 sec) 
Heartbeat CPU 5 instructions: 180000000 cycles: 243905090 heartbeat IPC: 0.598921 cumulative IPC: 0.669659 (Simulation time: 1 hr 26 min 9 sec) 
Heartbeat CPU 4 instructions: 210000003 cycles: 247143316 heartbeat IPC: 0.485261 cumulative IPC: 0.790369 (Simulation time: 1 hr 27 min 11 sec) 
Heartbeat CPU 7 instructions: 100000000 cycles: 247495384 heartbeat IPC: 0.353068 cumulative IPC: 0.329944 (Simulation time: 1 hr 27 min 18 sec) 
Heartbeat CPU 6 instructions: 200000000 cycles: 251428470 heartbeat IPC: 0.69567 cumulative IPC: 0.727262 (Simulation time: 1 hr 28 min 31 sec) 
Heartbeat CPU 3 instructions: 120000000 cycles: 256535180 heartbeat IPC: 0.399626 cumulative IPC: 0.403523 (Simulation time: 1 hr 30 min 8 sec) 
Heartbeat CPU 5 instructions: 190000003 cycles: 260154271 heartbeat IPC: 0.615416 cumulative IPC: 0.666086 (Simulation time: 1 hr 31 min 16 sec) 
Heartbeat CPU 1 instructions: 170000003 cycles: 260320122 heartbeat IPC: 0.574941 cumulative IPC: 0.590717 (Simulation time: 1 hr 31 min 20 sec) 
Finished CPU 3 instructions: 100000001 cycles: 247853574 cumulative IPC: 0.403464 (Simulation time: 1 hr 31 min 39 sec) 
Heartbeat CPU 4 instructions: 220000000 cycles: 263329495 heartbeat IPC: 0.617811 cumulative IPC: 0.779192 (Simulation time: 1 hr 32 min 19 sec) 
Heartbeat CPU 6 instructions: 210000000 cycles: 263669842 heartbeat IPC: 0.816902 cumulative IPC: 0.731647 (Simulation time: 1 hr 32 min 25 sec) 
Heartbeat CPU 0 instructions: 140000000 cycles: 265923409 heartbeat IPC: 0.406599 cumulative IPC: 0.475272 (Simulation time: 1 hr 33 min 6 sec) 
Heartbeat CPU 2 instructions: 110000001 cycles: 268360400 heartbeat IPC: 0.326895 cumulative IPC: 0.328196 (Simulation time: 1 hr 33 min 51 sec) 
Heartbeat CPU 5 instructions: 200000000 cycles: 275846528 heartbeat IPC: 0.637257 cumulative IPC: 0.664362 (Simulation time: 1 hr 35 min 53 sec) 
Heartbeat CPU 6 instructions: 220000000 cycles: 276484378 heartbeat IPC: 0.780364 cumulative IPC: 0.73402 (Simulation time: 1 hr 36 min 5 sec) 
Heartbeat CPU 1 instructions: 180000000 cycles: 277658520 heartbeat IPC: 0.576754 cumulative IPC: 0.589801 (Simulation time: 1 hr 36 min 25 sec) 
Heartbeat CPU 7 instructions: 110000002 cycles: 279844771 heartbeat IPC: 0.309125 cumulative IPC: 0.327416 (Simulation time: 1 hr 37 min 5 sec) 
Heartbeat CPU 3 instructions: 130000000 cycles: 281317408 heartbeat IPC: 0.403515 cumulative IPC: 0.403522 (Simulation time: 1 hr 37 min 33 sec) 
Heartbeat CPU 4 instructions: 230000000 cycles: 285241642 heartbeat IPC: 0.456368 cumulative IPC: 0.753167 (Simulation time: 1 hr 38 min 47 sec) 
Heartbeat CPU 0 instructions: 150000002 cycles: 290008345 heartbeat IPC: 0.415197 cumulative IPC: 0.47004 (Simulation time: 1 hr 40 min 12 sec) 
Heartbeat CPU 6 instructions: 230000001 cycles: 290391454 heartbeat IPC: 0.719059 cumulative IPC: 0.733269 (Simulation time: 1 hr 40 min 18 sec) 
Heartbeat CPU 5 instructions: 210000001 cycles: 293828322 heartbeat IPC: 0.556118 cumulative IPC: 0.657421 (Simulation time: 1 hr 41 min 14 sec) 
Heartbeat CPU 1 instructions: 190000001 cycles: 294664226 heartbeat IPC: 0.588038 cumulative IPC: 0.589695 (Simulation time: 1 hr 41 min 30 sec) 
Heartbeat CPU 2 instructions: 120000000 cycles: 299266031 heartbeat IPC: 0.323566 cumulative IPC: 0.327695 (Simulation time: 1 hr 42 min 54 sec) 
Heartbeat CPU 6 instructions: 240000000 cycles: 302515194 heartbeat IPC: 0.824828 cumulative IPC: 0.737109 (Simulation time: 1 hr 43 min 49 sec) 
Heartbeat CPU 4 instructions: 240000000 cycles: 304789654 heartbeat IPC: 0.511561 cumulative IPC: 0.736956 (Simulation time: 1 hr 44 min 29 sec) 
Heartbeat CPU 3 instructions: 140000000 cycles: 305379738 heartbeat IPC: 0.415587 cumulative IPC: 0.404516 (Simulation time: 1 hr 44 min 40 sec) 
Heartbeat CPU 7 instructions: 120000000 cycles: 307703472 heartbeat IPC: 0.358954 cumulative IPC: 0.330402 (Simulation time: 1 hr 45 min 19 sec) 
Heartbeat CPU 5 instructions: 220000000 cycles: 310680071 heartbeat IPC: 0.59341 cumulative IPC: 0.653792 (Simulation time: 1 hr 46 min 8 sec) 
Heartbeat CPU 1 instructions: 200000000 cycles: 311819505 heartbeat IPC: 0.582911 cumulative IPC: 0.589305 (Simulation time: 1 hr 46 min 26 sec) 
Heartbeat CPU 0 instructions: 160000000 cycles: 315317461 heartbeat IPC: 0.395114 cumulative IPC: 0.463759 (Simulation time: 1 hr 47 min 23 sec) 
Heartbeat CPU 6 instructions: 250000001 cycles: 316955627 heartbeat IPC: 0.6925 cumulative IPC: 0.734986 (Simulation time: 1 hr 47 min 53 sec) 
Finished CPU 7 instructions: 100000002 cycles: 307403929 cumulative IPC: 0.325305 (Simulation time: 1 hr 49 min 4 sec) 
Heartbeat CPU 4 instructions: 250000000 cycles: 323050463 heartbeat IPC: 0.547621 cumulative IPC: 0.72579 (Simulation time: 1 hr 49 min 44 sec) 
Finished CPU 2 instructions: 100000002 cycles: 310254846 cumulative IPC: 0.322316 (Simulation time: 1 hr 49 min 56 sec) 

CPU 0 Branch Prediction Accuracy: 99.5076% MPKI: 0.0408897

CPU 1 Branch Prediction Accuracy: 92.0331% MPKI: 16.0247

CPU 2 Branch Prediction Accuracy: 93.729% MPKI: 11.2118

CPU 3 Branch Prediction Accuracy: 95.387% MPKI: 4.7977

CPU 4 Branch Prediction Accuracy: 99.4186% MPKI: 1.40172

CPU 5 Branch Prediction Accuracy: 98.772% MPKI: 1.44727

CPU 6 Branch Prediction Accuracy: 98.234% MPKI: 1.93772

CPU 7 Branch Prediction Accuracy: 97.5012% MPKI: 2.12407

ChampSim completed all CPUs

Total Simulation Statistics (not including warmup)

CPU 0 cumulative IPC: 0.461366 instructions: 143141186 cycles: 310254845
L1D TOTAL     ACCESS:   62862043  HIT:   58454961  MISS:    4407082
L1D LOAD      ACCESS:   56613264  HIT:   52206210  MISS:    4407054
L1D RFO       ACCESS:    6248779  HIT:    6248751  MISS:         28
L1D PREFETCH  ACCESS:          0  HIT:          0  MISS:          0
L1D WRITEBACK ACCESS:          0  HIT:          0  MISS:          0
L1I TOTAL     ACCESS:   32117914  HIT:   32117728  MISS:        186
L1I LOAD      ACCESS:   32117914  HIT:   32117728  MISS:        186
L1I RFO       ACCESS:          0  HIT:          0  MISS:          0
L1I PREFETCH  ACCESS:          0  HIT:          0  MISS:          0
L1I WRITEBACK ACCESS:          0  HIT:          0  MISS:          0
L2C TOTAL     ACCESS:    5247690  HIT:    3479408  MISS:    1768282
L2C LOAD      ACCESS:    4407238  HIT:    2639212  MISS:    1768026
L2C RFO       ACCESS:         28  HIT:          0  MISS:         28
L2C PREFETCH  ACCESS:          0  HIT:          0  MISS:          0
L2C WRITEBACK ACCESS:     840424  HIT:     840196  MISS:        228
LLC TOTAL     ACCESS:    2187790  HIT:     902582  MISS:    1285208
LLC LOAD      ACCESS:    1768015  HIT:     484103  MISS:    1283912
LLC RFO       ACCESS:         28  HIT:          0  MISS:         28
LLC PREFETCH  ACCESS:          0  HIT:          0  MISS:          0
LLC WRITEBACK ACCESS:     419747  HIT:     418479  MISS:       1268

CPU 1 cumulative IPC: 0.589799 instructions: 182987838 cycles: 310254846
L1D TOTAL     ACCESS:   49121570  HIT:   48873884  MISS:     247686
L1D LOAD      ACCESS:   33223668  HIT:   33066921  MISS:     156747
L1D RFO       ACCESS:   15897902  HIT:   15806963  MISS:      90939
L1D PREFETCH  ACCESS:          0  HIT:          0  MISS:          0
L1D WRITEBACK ACCESS:          0  HIT:          0  MISS:          0
L1I TOTAL     ACCESS:   41730933  HIT:   41721600  MISS:       9333
L1I LOAD      ACCESS:   41730933  HIT:   41721600  MISS:       9333
L1I RFO       ACCESS:          0  HIT:          0  MISS:          0
L1I PREFETCH  ACCESS:          0  HIT:          0  MISS:          0
L1I WRITEBACK ACCESS:          0  HIT:          0  MISS:          0
L2C TOTAL     ACCESS:     407014  HIT:     338182  MISS:      68832
L2C LOAD      ACCESS:     166076  HIT:     103491  MISS:      62585
L2C RFO       ACCESS:      90907  HIT:      84904  MISS:       6003
L2C PREFETCH  ACCESS:          0  HIT:          0  MISS:          0
L2C WRITEBACK ACCESS:     150031  HIT:     149787  MISS:        244
LLC TOTAL     ACCESS:     122135  HIT:      23230  MISS:      98905
LLC LOAD      ACCESS:      62585  HIT:        843  MISS:      61742
LLC RFO       ACCESS:       6003  HIT:       1079  MISS:       4924
LLC PREFETCH  ACCESS:          0  HIT:          0  MISS:          0
LLC WRITEBACK ACCESS:      53547  HIT:      21308  MISS:      32239

CPU 2 cumulative IPC: 0.322316 instructions: 100000002 cycles: 310254846
L1D TOTAL     ACCESS:   20731045  HIT:   16799797  MISS:    3931248
L1D LOAD      ACCESS:   14927830  HIT:   11650913  MISS:    3276917
L1D RFO       ACCESS:    5803215  HIT:    5148884  MISS:     654331
L1D PREFETCH  ACCESS:          0  HIT:          0  MISS:          0
L1D WRITEBACK ACCESS:          0  HIT:          0  MISS:          0
L1I TOTAL     ACCESS:   23185735  HIT:   23185156  MISS:        579
L1I LOAD      ACCESS:   23185735  HIT:   23185156  MISS:        579
L1I RFO       ACCESS:          0  HIT:          0  MISS:          0
L1I PREFETCH  ACCESS:          0  HIT:          0  MISS:          0
L1I WRITEBACK ACCESS:          0  HIT:          0  MISS:          0
L2C TOTAL     ACCESS:    5636702  HIT:    2354668  MISS:    3282034
L2C LOAD      ACCESS:    3277173  HIT:     600563  MISS:    2676610
L2C RFO       ACCESS:     654316  HIT:      49918  MISS:     604398
L2C PREFETCH  ACCESS:          0  HIT:          0  MISS:          0
L2C WRITEBACK ACCESS:    1705213  HIT:    1704187  MISS:       1026
LLC TOTAL     ACCESS:    4606695  HIT:    3053203  MISS:    1553492
LLC LOAD      ACCESS:    2676598  HIT:    1419999  MISS:    1256599
LLC RFO       ACCESS:     604396  HIT:     307515  MISS:     296881
LLC PREFETCH  ACCESS:          0  HIT:          0  MISS:          0
LLC WRITEBACK ACCESS:    1325701  HIT:    1325689  MISS:         12

CPU 3 cumulative IPC: 0.406049 instructions: 125978698 cycles: 310254846
L1D TOTAL     ACCESS:   47805469  HIT:   45825146  MISS:    1980323
L1D LOAD      ACCESS:   29547802  HIT:   27799169  MISS:    1748633
L1D RFO       ACCESS:   18257667  HIT:   18025977  MISS:     231690
L1D PREFETCH  ACCESS:          0  HIT:          0  MISS:          0
L1D WRITEBACK ACCESS:          0  HIT:          0  MISS:          0
L1I TOTAL     ACCESS:   37589683  HIT:   37196954  MISS:     392729
L1I LOAD      ACCESS:   37589683  HIT:   37196954  MISS:     392729
L1I RFO       ACCESS:          0  HIT:          0  MISS:          0
L1I PREFETCH  ACCESS:          0  HIT:          0  MISS:          0
L1I WRITEBACK ACCESS:          0  HIT:          0  MISS:          0
L2C TOTAL     ACCESS:    2680478  HIT:    2675589  MISS:       4889
L2C LOAD      ACCESS:    2141361  HIT:    2136822  MISS:       4539
L2C RFO       ACCESS:     231689  HIT:     231368  MISS:        321
L2C PREFETCH  ACCESS:          0  HIT:          0  MISS:          0
L2C WRITEBACK ACCESS:     307428  HIT:     307399  MISS:         29
LLC TOTAL     ACCESS:       6073  HIT:       1128  MISS:       4945
LLC LOAD      ACCESS:       4539  HIT:        983  MISS:       3556
LLC RFO       ACCESS:        321  HIT:         64  MISS:        257
LLC PREFETCH  ACCESS:          0  HIT:          0  MISS:          0
LLC WRITEBACK ACCESS:       1213  HIT:         81  MISS:       1132

CPU 4 cumulative IPC: 0.725506 instructions: 225091750 cycles: 310254846
L1D TOTAL     ACCESS:   35473658  HIT:   29817437  MISS:    5656221
L1D LOAD      ACCESS:   26278401  HIT:   20815687  MISS:    5462714
L1D RFO       ACCESS:    9195257  HIT:    9001750  MISS:     193507
L1D PREFETCH  ACCESS:          0  HIT:          0  MISS:          0
L1D WRITEBACK ACCESS:          0  HIT:          0  MISS:          0
L1I TOTAL     ACCESS:   77690179  HIT:   77597499  MISS:      92680
L1I LOAD      ACCESS:   77690179  HIT:   77597499  MISS:      92680
L1I RFO       ACCESS:          0  HIT:          0  MISS:          0
L1I PREFETCH  ACCESS:          0  HIT:          0  MISS:          0
L1I WRITEBACK ACCESS:          0  HIT:          0  MISS:          0
L2C TOTAL     ACCESS:    6135558  HIT:    5645153  MISS:     490405
L2C LOAD      ACCESS:    5555365  HIT:    5209387  MISS:     345978
L2C RFO       ACCESS:     193498  HIT:      49470  MISS:     144028
L2C PREFETCH  ACCESS:          0  HIT:          0  MISS:          0
L2C WRITEBACK ACCESS:     386695  HIT:     386296  MISS:        399
LLC TOTAL     ACCESS:     736788  HIT:     472120  MISS:     264668
LLC LOAD      ACCESS:     345978  HIT:     209737  MISS:     136241
LLC RFO       ACCESS:     144028  HIT:      21701  MISS:     122327
LLC PREFETCH  ACCESS:          0  HIT:          0  MISS:          0
LLC WRITEBACK ACCESS:     246782  HIT:     240682  MISS:       6100

CPU 5 cumulative IPC: 0.652513 instructions: 202445392 cycles: 310254846
L1D TOTAL     ACCESS:   64473156  HIT:   63260136  MISS:    1213020
L1D LOAD      ACCESS:   41563211  HIT:   40909376  MISS:     653835
L1D RFO       ACCESS:   22909945  HIT:   22350760  MISS:     559185
L1D PREFETCH  ACCESS:          0  HIT:          0  MISS:          0
L1D WRITEBACK ACCESS:          0  HIT:          0  MISS:          0
L1I TOTAL     ACCESS:   57013044  HIT:   56956078  MISS:      56966
L1I LOAD      ACCESS:   57013044  HIT:   56956078  MISS:      56966
L1I RFO       ACCESS:          0  HIT:          0  MISS:          0
L1I PREFETCH  ACCESS:          0  HIT:          0  MISS:          0
L1I WRITEBACK ACCESS:          0  HIT:          0  MISS:          0
L2C TOTAL     ACCESS:    1844856  HIT:    1584045  MISS:     260811
L2C LOAD      ACCESS:     700963  HIT:     602922  MISS:      98041
L2C RFO       ACCESS:     556601  HIT:     394802  MISS:     161799
L2C PREFETCH  ACCESS:          0  HIT:          0  MISS:          0
L2C WRITEBACK ACCESS:     587292  HIT:     586321  MISS:        971
LLC TOTAL     ACCESS:     432534  HIT:     368197  MISS:      64337
LLC LOAD      ACCESS:      98041  HIT:      73678  MISS:      24363
LLC RFO       ACCESS:     161792  HIT:     140345  MISS:      21447
LLC PREFETCH  ACCESS:          0  HIT:          0  MISS:          0
LLC WRITEBACK ACCESS:     172701  HIT:     154174  MISS:      18527

CPU 6 cumulative IPC: 0.737936 instructions: 228948373 cycles: 310254846
L1D TOTAL     ACCESS:   69242558  HIT:   67750983  MISS:    1491575
L1D LOAD      ACCESS:   46594661  HIT:   45821920  MISS:     772741
L1D RFO       ACCESS:   22647897  HIT:   21929063  MISS:     718834
L1D PREFETCH  ACCESS:          0  HIT:          0  MISS:          0
L1D WRITEBACK ACCESS:          0  HIT:          0  MISS:          0
L1I TOTAL     ACCESS:   58244595  HIT:   57922510  MISS:     322085
L1I LOAD      ACCESS:   58244595  HIT:   57922510  MISS:     322085
L1I RFO       ACCESS:          0  HIT:          0  MISS:          0
L1I PREFETCH  ACCESS:          0  HIT:          0  MISS:          0
L1I WRITEBACK ACCESS:          0  HIT:          0  MISS:          0
L2C TOTAL     ACCESS:    2610989  HIT:    2359836  MISS:     251153
L2C LOAD      ACCESS:    1094801  HIT:     989015  MISS:     105786
L2C RFO       ACCESS:     718825  HIT:     573707  MISS:     145118
L2C PREFETCH  ACCESS:          0  HIT:          0  MISS:          0
L2C WRITEBACK ACCESS:     797363  HIT:     797114  MISS:        249
LLC TOTAL     ACCESS:     410732  HIT:     351483  MISS:      59249
LLC LOAD      ACCESS:     105786  HIT:      63223  MISS:      42563
LLC RFO       ACCESS:     145117  HIT:     137378  MISS:       7739
LLC PREFETCH  ACCESS:          0  HIT:          0  MISS:          0
LLC WRITEBACK ACCESS:     159829  HIT:     150882  MISS:       8947

CPU 7 cumulative IPC: 0.325381 instructions: 100950955 cycles: 310254846
L1D TOTAL     ACCESS:   37591490  HIT:   34765747  MISS:    2825743
L1D LOAD      ACCESS:   13124812  HIT:   10299591  MISS:    2825221
L1D RFO       ACCESS:   24466678  HIT:   24466156  MISS:        522
L1D PREFETCH  ACCESS:          0  HIT:          0  MISS:          0
L1D WRITEBACK ACCESS:          0  HIT:          0  MISS:          0
L1I TOTAL     ACCESS:   25518820  HIT:   25518820  MISS:          0
L1I LOAD      ACCESS:   25518820  HIT:   25518820  MISS:          0
L1I RFO       ACCESS:          0  HIT:          0  MISS:          0
L1I PREFETCH  ACCESS:          0  HIT:          0  MISS:          0
L1I WRITEBACK ACCESS:          0  HIT:          0  MISS:          0
L2C TOTAL     ACCESS:    4116787  HIT:    1366072  MISS:    2750715
L2C LOAD      ACCESS:    2824909  HIT:      77581  MISS:    2747328
L2C RFO       ACCESS:        522  HIT:        474  MISS:         48
L2C PREFETCH  ACCESS:          0  HIT:          0  MISS:          0
L2C WRITEBACK ACCESS:    1291356  HIT:    1288017  MISS:       3339
LLC TOTAL     ACCESS:    3980244  HIT:    1916560  MISS:    2063684
LLC LOAD      ACCESS:    2747325  HIT:     683820  MISS:    2063505
LLC RFO       ACCESS:         48  HIT:         23  MISS:         25
LLC PREFETCH  ACCESS:          0  HIT:          0  MISS:          0
LLC WRITEBACK ACCESS:    1232871  HIT:    1232717  MISS:        154

Region of Interest Statistics

CPU 0 cumulative IPC: 0.487972 instructions: 100000002 cycles: 204929798
L1D TOTAL     ACCESS:   50227420  HIT:   46836545  MISS:    3390875
L1D LOAD      ACCESS:   46874469  HIT:   43483597  MISS:    3390872
L1D RFO       ACCESS:    3352951  HIT:    3352948  MISS:          3
L1D PREFETCH  ACCESS:          0  HIT:          0  MISS:          0
L1D WRITEBACK ACCESS:          0  HIT:          0  MISS:          0
L1D PREFETCH  REQUESTED:          0  ISSUED:          0  USEFUL:          0  USELESS:          0
L1I TOTAL     ACCESS:   23512743  HIT:   23512634  MISS:        109
L1I LOAD      ACCESS:   23512743  HIT:   23512634  MISS:        109
L1I RFO       ACCESS:          0  HIT:          0  MISS:          0
L1I PREFETCH  ACCESS:          0  HIT:          0  MISS:          0
L1I WRITEBACK ACCESS:          0  HIT:          0  MISS:          0
L1I PREFETCH  REQUESTED:          0  ISSUED:          0  USEFUL:          0  USELESS:          0
L2C TOTAL     ACCESS:    3873513  HIT:    3069389  MISS:     804124
L2C LOAD      ACCESS:    3390979  HIT:    2586998  MISS:     803981
L2C RFO       ACCESS:          3  HIT:          0  MISS:          3
L2C PREFETCH  ACCESS:          0  HIT:          0  MISS:          0
L2C WRITEBACK ACCESS:     482531  HIT:     482391  MISS:        140
L2C PREFETCH  REQUESTED:          0  ISSUED:          0  USEFUL:          0  USELESS:          0
LLC TOTAL     ACCESS:     868349  HIT:     320567  MISS:     547782
LLC LOAD      ACCESS:     803970  HIT:     257419  MISS:     546551
LLC RFO       ACCESS:          3  HIT:          0  MISS:          3
LLC PREFETCH  ACCESS:          0  HIT:          0  MISS:          0
LLC WRITEBACK ACCESS:      64376  HIT:      63148  MISS:       1228
LLC PREFETCH  REQUESTED:          0  ISSUED:          0  USEFUL:          0  USELESS:          0
Major fault: 0 Minor fault: 76307

CPU 1 cumulative IPC: 0.593706 instructions: 100000001 cycles: 168433432
L1D TOTAL     ACCESS:   26840456  HIT:   26706689  MISS:     133767
L1D LOAD      ACCESS:   18097555  HIT:   18013633  MISS:      83922
L1D RFO       ACCESS:    8742901  HIT:    8693056  MISS:      49845
L1D PREFETCH  ACCESS:          0  HIT:          0  MISS:          0
L1D WRITEBACK ACCESS:          0  HIT:          0  MISS:          0
L1D PREFETCH  REQUESTED:          0  ISSUED:          0  USEFUL:          0  USELESS:          0
L1I TOTAL     ACCESS:   22894677  HIT:   22889512  MISS:       5165
L1I LOAD      ACCESS:   22894677  HIT:   22889512  MISS:       5165
L1I RFO       ACCESS:          0  HIT:          0  MISS:          0
L1I PREFETCH  ACCESS:          0  HIT:          0  MISS:          0
L1I WRITEBACK ACCESS:          0  HIT:          0  MISS:          0
L1I PREFETCH  REQUESTED:          0  ISSUED:          0  USEFUL:          0  USELESS:          0
L2C TOTAL     ACCESS:     220342  HIT:     183194  MISS:      37148
L2C LOAD      ACCESS:      89085  HIT:      55612  MISS:      33473
L2C RFO       ACCESS:      49830  HIT:      46293  MISS:       3537
L2C PREFETCH  ACCESS:          0  HIT:          0  MISS:          0
L2C WRITEBACK ACCESS:      81427  HIT:      81289  MISS:        138
L2C PREFETCH  REQUESTED:          0  ISSUED:          0  USEFUL:          0  USELESS:          0
LLC TOTAL     ACCESS:      65949  HIT:      13673  MISS:      52276
LLC LOAD      ACCESS:      33473  HIT:        485  MISS:      32988
LLC RFO       ACCESS:       3537  HIT:        686  MISS:       2851
LLC PREFETCH  ACCESS:          0  HIT:          0  MISS:          0
LLC WRITEBACK ACCESS:      28939  HIT:      12502  MISS:      16437
LLC PREFETCH  REQUESTED:          0  ISSUED:          0  USEFUL:          0  USELESS:          0
Major fault: 0 Minor fault: 25992

CPU 2 cumulative IPC: 0.322316 instructions: 100000002 cycles: 310254846
L1D TOTAL     ACCESS:   20731045  HIT:   16799797  MISS:    3931248
L1D LOAD      ACCESS:   14927830  HIT:   11650913  MISS:    3276917
L1D RFO       ACCESS:    5803215  HIT:    5148884  MISS:     654331
L1D PREFETCH  ACCESS:          0  HIT:          0  MISS:          0
L1D WRITEBACK ACCESS:          0  HIT:          0  MISS:          0
L1D PREFETCH  REQUESTED:          0  ISSUED:          0  USEFUL:          0  USELESS:          0
L1I TOTAL     ACCESS:   23185735  HIT:   23185156  MISS:        579
L1I LOAD      ACCESS:   23185735  HIT:   23185156  MISS:        579
L1I RFO       ACCESS:          0  HIT:          0  MISS:          0
L1I PREFETCH  ACCESS:          0  HIT:          0  MISS:          0
L1I WRITEBACK ACCESS:          0  HIT:          0  MISS:          0
L1I PREFETCH  REQUESTED:          0  ISSUED:          0  USEFUL:          0  USELESS:          0
L2C TOTAL     ACCESS:    5636702  HIT:    2354668  MISS:    3282034
L2C LOAD      ACCESS:    3277173  HIT:     600563  MISS:    2676610
L2C RFO       ACCESS:     654316  HIT:      49918  MISS:     604398
L2C PREFETCH  ACCESS:          0  HIT:          0  MISS:          0
L2C WRITEBACK ACCESS:    1705213  HIT:    1704187  MISS:       1026
L2C PREFETCH  REQUESTED:          0  ISSUED:          0  USEFUL:          0  USELESS:          0
LLC TOTAL     ACCESS:    4606695  HIT:    3053203  MISS:    1553492
LLC LOAD      ACCESS:    2676598  HIT:    1419999  MISS:    1256599
LLC RFO       ACCESS:     604396  HIT:     307515  MISS:     296881
LLC PREFETCH  ACCESS:          0  HIT:          0  MISS:          0
LLC WRITEBACK ACCESS:    1325701  HIT:    1325689  MISS:         12
LLC PREFETCH  REQUESTED:          0  ISSUED:          0  USEFUL:          0  USELESS:          0
Major fault: 0 Minor fault: 12314

CPU 3 cumulative IPC: 0.403464 instructions: 100000001 cycles: 247853574
L1D TOTAL     ACCESS:   38100447  HIT:   36524545  MISS:    1575902
L1D LOAD      ACCESS:   23509066  HIT:   22120042  MISS:    1389024
L1D RFO       ACCESS:   14591381  HIT:   14404503  MISS:     186878
L1D PREFETCH  ACCESS:          0  HIT:          0  MISS:          0
L1D WRITEBACK ACCESS:          0  HIT:          0  MISS:          0
L1D PREFETCH  REQUESTED:          0  ISSUED:          0  USEFUL:          0  USELESS:          0
L1I TOTAL     ACCESS:   29807419  HIT:   29497521  MISS:     309898
L1I LOAD      ACCESS:   29807419  HIT:   29497521  MISS:     309898
L1I RFO       ACCESS:          0  HIT:          0  MISS:          0
L1I PREFETCH  ACCESS:          0  HIT:          0  MISS:          0
L1I WRITEBACK ACCESS:          0  HIT:          0  MISS:          0
L1I PREFETCH  REQUESTED:          0  ISSUED:          0  USEFUL:          0  USELESS:          0
L2C TOTAL     ACCESS:    2133216  HIT:    2128830  MISS:       4386
L2C LOAD      ACCESS:    1698922  HIT:    1694841  MISS:       4081
L2C RFO       ACCESS:     186877  HIT:     186591  MISS:        286
L2C PREFETCH  ACCESS:          0  HIT:          0  MISS:          0
L2C WRITEBACK ACCESS:     247417  HIT:     247398  MISS:         19
L2C PREFETCH  REQUESTED:          0  ISSUED:          0  USEFUL:          0  USELESS:          0
LLC TOTAL     ACCESS:       5501  HIT:       1001  MISS:       4500
LLC LOAD      ACCESS:       4081  HIT:        896  MISS:       3185
LLC RFO       ACCESS:        286  HIT:         44  MISS:        242
LLC PREFETCH  ACCESS:          0  HIT:          0  MISS:          0
LLC WRITEBACK ACCESS:       1134  HIT:         61  MISS:       1073
LLC PREFETCH  REQUESTED:          0  ISSUED:          0  USEFUL:          0  USELESS:          0
Major fault: 0 Minor fault: 331

CPU 4 cumulative IPC: 0.926988 instructions: 100000002 cycles: 107876257
L1D TOTAL     ACCESS:   10481804  HIT:    6760563  MISS:    3721241
L1D LOAD      ACCESS:    9275165  HIT:    5604328  MISS:    3670837
L1D RFO       ACCESS:    1206639  HIT:    1156235  MISS:      50404
L1D PREFETCH  ACCESS:          0  HIT:          0  MISS:          0
L1D WRITEBACK ACCESS:          0  HIT:          0  MISS:          0
L1D PREFETCH  REQUESTED:          0  ISSUED:          0  USEFUL:          0  USELESS:          0
L1I TOTAL     ACCESS:   34779490  HIT:   34774869  MISS:       4621
L1I LOAD      ACCESS:   34779490  HIT:   34774869  MISS:       4621
L1I RFO       ACCESS:          0  HIT:          0  MISS:          0
L1I PREFETCH  ACCESS:          0  HIT:          0  MISS:          0
L1I WRITEBACK ACCESS:          0  HIT:          0  MISS:          0
L1I PREFETCH  REQUESTED:          0  ISSUED:          0  USEFUL:          0  USELESS:          0
L2C TOTAL     ACCESS:    3837946  HIT:    3644312  MISS:     193634
L2C LOAD      ACCESS:    3675458  HIT:    3505592  MISS:     169866
L2C RFO       ACCESS:      50404  HIT:      26660  MISS:      23744
L2C PREFETCH  ACCESS:          0  HIT:          0  MISS:          0
L2C WRITEBACK ACCESS:     112084  HIT:     112060  MISS:         24
L2C PREFETCH  REQUESTED:          0  ISSUED:          0  USEFUL:          0  USELESS:          0
LLC TOTAL     ACCESS:     236659  HIT:     185396  MISS:      51263
LLC LOAD      ACCESS:     169866  HIT:     145201  MISS:      24665
LLC RFO       ACCESS:      23744  HIT:        535  MISS:      23209
LLC PREFETCH  ACCESS:          0  HIT:          0  MISS:          0
LLC WRITEBACK ACCESS:      43049  HIT:      39660  MISS:       3389
LLC PREFETCH  REQUESTED:          0  ISSUED:          0  USEFUL:          0  USELESS:          0
Major fault: 0 Minor fault: 26747

CPU 5 cumulative IPC: 0.697824 instructions: 100000003 cycles: 143302652
L1D TOTAL     ACCESS:   30234937  HIT:   29284735  MISS:     950202
L1D LOAD      ACCESS:   20217047  HIT:   19707555  MISS:     509492
L1D RFO       ACCESS:   10017890  HIT:    9577180  MISS:     440710
L1D PREFETCH  ACCESS:          0  HIT:          0  MISS:          0
L1D WRITEBACK ACCESS:          0  HIT:          0  MISS:          0
L1D PREFETCH  REQUESTED:          0  ISSUED:          0  USEFUL:          0  USELESS:          0
L1I TOTAL     ACCESS:   26488853  HIT:   26445861  MISS:      42992
L1I LOAD      ACCESS:   26488853  HIT:   26445861  MISS:      42992
L1I RFO       ACCESS:          0  HIT:          0  MISS:          0
L1I PREFETCH  ACCESS:          0  HIT:          0  MISS:          0
L1I WRITEBACK ACCESS:          0  HIT:          0  MISS:          0
L1I PREFETCH  REQUESTED:          0  ISSUED:          0  USEFUL:          0  USELESS:          0
L2C TOTAL     ACCESS:    1447374  HIT:    1239309  MISS:     208065
L2C LOAD      ACCESS:     545526  HIT:     468588  MISS:      76938
L2C RFO       ACCESS:     438979  HIT:     308703  MISS:     130276
L2C PREFETCH  ACCESS:          0  HIT:          0  MISS:          0
L2C WRITEBACK ACCESS:     462869  HIT:     462018  MISS:        851
L2C PREFETCH  REQUESTED:          0  ISSUED:          0  USEFUL:          0  USELESS:          0
LLC TOTAL     ACCESS:     344345  HIT:     306688  MISS:      37657
LLC LOAD      ACCESS:      76938  HIT:      62891  MISS:      14047
LLC RFO       ACCESS:     130269  HIT:     117157  MISS:      13112
LLC PREFETCH  ACCESS:          0  HIT:          0  MISS:          0
LLC WRITEBACK ACCESS:     137138  HIT:     126640  MISS:      10498
LLC PREFETCH  REQUESTED:          0  ISSUED:          0  USEFUL:          0  USELESS:          0
Major fault: 0 Minor fault: 580

CPU 6 cumulative IPC: 0.729651 instructions: 100000000 cycles: 137051754
L1D TOTAL     ACCESS:   30132744  HIT:   29454745  MISS:     677999
L1D LOAD      ACCESS:   20237627  HIT:   19881494  MISS:     356133
L1D RFO       ACCESS:    9895117  HIT:    9573251  MISS:     321866
L1D PREFETCH  ACCESS:          0  HIT:          0  MISS:          0
L1D WRITEBACK ACCESS:          0  HIT:          0  MISS:          0
L1D PREFETCH  REQUESTED:          0  ISSUED:          0  USEFUL:          0  USELESS:          0
L1I TOTAL     ACCESS:   25651830  HIT:   25527600  MISS:     124230
L1I LOAD      ACCESS:   25651830  HIT:   25527600  MISS:     124230
L1I RFO       ACCESS:          0  HIT:          0  MISS:          0
L1I PREFETCH  ACCESS:          0  HIT:          0  MISS:          0
L1I WRITEBACK ACCESS:          0  HIT:          0  MISS:          0
L1I PREFETCH  REQUESTED:          0  ISSUED:          0  USEFUL:          0  USELESS:          0
L2C TOTAL     ACCESS:    1156469  HIT:    1039445  MISS:     117024
L2C LOAD      ACCESS:     480353  HIT:     434813  MISS:      45540
L2C RFO       ACCESS:     321867  HIT:     250486  MISS:      71381
L2C PREFETCH  ACCESS:          0  HIT:          0  MISS:          0
L2C WRITEBACK ACCESS:     354249  HIT:     354146  MISS:        103
L2C PREFETCH  REQUESTED:          0  ISSUED:          0  USEFUL:          0  USELESS:          0
LLC TOTAL     ACCESS:     194249  HIT:     171162  MISS:      23087
LLC LOAD      ACCESS:      45540  HIT:      29829  MISS:      15711
LLC RFO       ACCESS:      71380  HIT:      67739  MISS:       3641
LLC PREFETCH  ACCESS:          0  HIT:          0  MISS:          0
LLC WRITEBACK ACCESS:      77329  HIT:      73594  MISS:       3735
LLC PREFETCH  REQUESTED:          0  ISSUED:          0  USEFUL:          0  USELESS:          0
Major fault: 0 Minor fault: 631

CPU 7 cumulative IPC: 0.325305 instructions: 100000002 cycles: 307403929
L1D TOTAL     ACCESS:   37240079  HIT:   34437465  MISS:    2802614
L1D LOAD      ACCESS:   13009395  HIT:   10207301  MISS:    2802094
L1D RFO       ACCESS:   24230684  HIT:   24230164  MISS:        520
L1D PREFETCH  ACCESS:          0  HIT:          0  MISS:          0
L1D WRITEBACK ACCESS:          0  HIT:          0  MISS:          0
L1D PREFETCH  REQUESTED:          0  ISSUED:          0  USEFUL:          0  USELESS:          0
L1I TOTAL     ACCESS:   25275698  HIT:   25275698  MISS:          0
L1I LOAD      ACCESS:   25275698  HIT:   25275698  MISS:          0
L1I RFO       ACCESS:          0  HIT:          0  MISS:          0
L1I PREFETCH  ACCESS:          0  HIT:          0  MISS:          0
L1I WRITEBACK ACCESS:          0  HIT:          0  MISS:          0
L1I PREFETCH  REQUESTED:          0  ISSUED:          0  USEFUL:          0  USELESS:          0
L2C TOTAL     ACCESS:    4079539  HIT:    1351339  MISS:    2728200
L2C LOAD      ACCESS:    2801786  HIT:      76943  MISS:    2724843
L2C RFO       ACCESS:        520  HIT:        472  MISS:         48
L2C PREFETCH  ACCESS:          0  HIT:          0  MISS:          0
L2C WRITEBACK ACCESS:    1277233  HIT:    1273924  MISS:       3309
L2C PREFETCH  REQUESTED:          0  ISSUED:          0  USEFUL:          0  USELESS:          0
LLC TOTAL     ACCESS:    3944318  HIT:    1900650  MISS:    2043668
LLC LOAD      ACCESS:    2724840  HIT:     681350  MISS:    2043490
LLC RFO       ACCESS:         48  HIT:         23  MISS:         25
LLC PREFETCH  ACCESS:          0  HIT:          0  MISS:          0
LLC WRITEBACK ACCESS:    1219430  HIT:    1219277  MISS:        153
LLC PREFETCH  REQUESTED:          0  ISSUED:          0  USEFUL:          0  USELESS:          0
Major fault: 0 Minor fault: 195320

DRAM Statistics
 CHANNEL 0
 RQ ROW_BUFFER_HIT:     782593  ROW_BUFFER_MISS:    2013567
 DBUS_CONGESTED:    3507242
 WQ ROW_BUFFER_HIT:     121555  ROW_BUFFER_MISS:    1048574  FULL:          0

 CHANNEL 1
 RQ ROW_BUFFER_HIT:     686034  ROW_BUFFER_MISS:    1843647
 DBUS_CONGESTED:    3507242
 WQ ROW_BUFFER_HIT:     123733  ROW_BUFFER_MISS:    1027253  FULL:          0

 AVG_CONGESTED_CYCLE: 13
