
*** ChampSim Multicore Out-of-Order Simulator ***

Warmup Instructions: 20000000
Simulation Instructions: 100000000
Number of CPUs: 8
LLC sets: 16384
LLC ways: 16
Off-chip DRAM Size: 8192 MB Channels: 2 Width: 64-bit Data Rate: 1600 MT/s

CPU 0 runs /scratch/user/djimenez/champsim-traces/speccpu2017/xz/641.leela_s/641.leela_s-334B.champsimtrace.xz
CPU 1 runs /scratch/user/djimenez/champsim-traces/speccpu2017/xz/603.bwaves_s/603.bwaves_s-5359B.champsimtrace.xz
CPU 2 runs /scratch/user/djimenez/champsim-traces/speccpu2017/xz/603.bwaves_s/603.bwaves_s-3699B.champsimtrace.xz
CPU 3 runs /scratch/user/djimenez/champsim-traces/speccpu2017/xz/620.omnetpp_s/620.omnetpp_s-874B.champsimtrace.xz
CPU 4 runs /scratch/user/djimenez/champsim-traces/speccpu2017/xz/619.lbm_s/619.lbm_s-2677B.champsimtrace.xz
CPU 5 runs /scratch/user/djimenez/champsim-traces/speccpu2017/xz/600.perlbench_s/600.perlbench_s-210B.champsimtrace.xz
CPU 6 runs /scratch/user/djimenez/champsim-traces/speccpu2017/xz/623.xalancbmk_s/623.xalancbmk_s-10B.champsimtrace.xz
CPU 7 runs /scratch/user/djimenez/champsim-traces/speccpu2017/xz/623.xalancbmk_s/623.xalancbmk_s-165B.champsimtrace.xz
Heartbeat CPU 2 instructions: 10000002 cycles: 3993631 heartbeat IPC: 2.50399 cumulative IPC: 2.50399 (Simulation time: 0 hr 3 min 4 sec) 
Heartbeat CPU 1 instructions: 10000000 cycles: 4003967 heartbeat IPC: 2.49752 cumulative IPC: 2.49752 (Simulation time: 0 hr 3 min 5 sec) 
Heartbeat CPU 7 instructions: 10000001 cycles: 4248898 heartbeat IPC: 2.35355 cumulative IPC: 2.35355 (Simulation time: 0 hr 3 min 16 sec) 
Heartbeat CPU 6 instructions: 10000001 cycles: 4886433 heartbeat IPC: 2.04648 cumulative IPC: 2.04648 (Simulation time: 0 hr 3 min 46 sec) 
Heartbeat CPU 4 instructions: 10000001 cycles: 4915072 heartbeat IPC: 2.03456 cumulative IPC: 2.03456 (Simulation time: 0 hr 3 min 47 sec) 
Heartbeat CPU 5 instructions: 10000002 cycles: 5617986 heartbeat IPC: 1.78 cumulative IPC: 1.78 (Simulation time: 0 hr 4 min 20 sec) 
Heartbeat CPU 0 instructions: 10000001 cycles: 6393055 heartbeat IPC: 1.5642 cumulative IPC: 1.5642 (Simulation time: 0 hr 4 min 59 sec) 
Heartbeat CPU 3 instructions: 10000000 cycles: 7367899 heartbeat IPC: 1.35724 cumulative IPC: 1.35724 (Simulation time: 0 hr 5 min 48 sec) 
Heartbeat CPU 2 instructions: 20000000 cycles: 8236550 heartbeat IPC: 2.35687 cumulative IPC: 2.4282 (Simulation time: 0 hr 6 min 31 sec) 
Heartbeat CPU 1 instructions: 20000000 cycles: 8335428 heartbeat IPC: 2.30869 cumulative IPC: 2.3994 (Simulation time: 0 hr 6 min 36 sec) 
Heartbeat CPU 7 instructions: 20000000 cycles: 8490563 heartbeat IPC: 2.35756 cumulative IPC: 2.35556 (Simulation time: 0 hr 6 min 44 sec) 
Heartbeat CPU 6 instructions: 20000000 cycles: 9694558 heartbeat IPC: 2.07981 cumulative IPC: 2.06301 (Simulation time: 0 hr 7 min 44 sec) 
Heartbeat CPU 4 instructions: 20000000 cycles: 9799239 heartbeat IPC: 2.04743 cumulative IPC: 2.04097 (Simulation time: 0 hr 7 min 49 sec) 
Heartbeat CPU 5 instructions: 20000000 cycles: 11504428 heartbeat IPC: 1.69882 cumulative IPC: 1.73846 (Simulation time: 0 hr 9 min 10 sec) 
Heartbeat CPU 1 instructions: 30000002 cycles: 12326454 heartbeat IPC: 2.50562 cumulative IPC: 0.811264 (Simulation time: 0 hr 9 min 50 sec) 
Heartbeat CPU 2 instructions: 30000002 cycles: 12539539 heartbeat IPC: 2.32397 cumulative IPC: 0.797478 (Simulation time: 0 hr 9 min 59 sec) 
Heartbeat CPU 7 instructions: 30000001 cycles: 12725351 heartbeat IPC: 2.36139 cumulative IPC: 0.785833 (Simulation time: 0 hr 10 min 8 sec) 
Heartbeat CPU 0 instructions: 20000000 cycles: 12790291 heartbeat IPC: 1.56317 cumulative IPC: 1.56369 (Simulation time: 0 hr 10 min 11 sec) 
Heartbeat CPU 6 instructions: 30000000 cycles: 14598959 heartbeat IPC: 2.03899 cumulative IPC: 0.68498 (Simulation time: 0 hr 11 min 35 sec) 
Heartbeat CPU 4 instructions: 30000000 cycles: 14709247 heartbeat IPC: 2.03666 cumulative IPC: 0.679844 (Simulation time: 0 hr 11 min 40 sec) 
Heartbeat CPU 3 instructions: 20000000 cycles: 14717673 heartbeat IPC: 1.36059 cumulative IPC: 1.35891 (Simulation time: 0 hr 11 min 40 sec) 

Warmup complete CPU 0 instructions: 23037124 cycles: 14717680 (Simulation time: 0 hr 11 min 40 sec) 
Warmup complete CPU 1 instructions: 35991658 cycles: 14717680 (Simulation time: 0 hr 11 min 40 sec) 
Warmup complete CPU 2 instructions: 35449230 cycles: 14717680 (Simulation time: 0 hr 11 min 40 sec) 
Warmup complete CPU 3 instructions: 20000002 cycles: 14717680 (Simulation time: 0 hr 11 min 40 sec) 
Warmup complete CPU 4 instructions: 30018591 cycles: 14717679 (Simulation time: 0 hr 11 min 40 sec) 
Warmup complete CPU 5 instructions: 25463405 cycles: 14717679 (Simulation time: 0 hr 11 min 40 sec) 
Warmup complete CPU 6 instructions: 30203419 cycles: 14717679 (Simulation time: 0 hr 11 min 40 sec) 
Warmup complete CPU 7 instructions: 34711985 cycles: 14717679 (Simulation time: 0 hr 11 min 40 sec) 

Heartbeat CPU 1 instructions: 40000000 cycles: 18256002 heartbeat IPC: 1.68647 cumulative IPC: 1.13284 (Simulation time: 0 hr 12 min 54 sec) 
Heartbeat CPU 2 instructions: 40000000 cycles: 18748087 heartbeat IPC: 1.61068 cumulative IPC: 1.12911 (Simulation time: 0 hr 13 min 5 sec) 
Heartbeat CPU 5 instructions: 30000000 cycles: 21482239 heartbeat IPC: 1.00222 cumulative IPC: 0.670642 (Simulation time: 0 hr 14 min 10 sec) 
Heartbeat CPU 7 instructions: 40000000 cycles: 21572149 heartbeat IPC: 1.13035 cumulative IPC: 0.77147 (Simulation time: 0 hr 14 min 12 sec) 
Heartbeat CPU 1 instructions: 50000003 cycles: 27081747 heartbeat IPC: 1.13305 cumulative IPC: 1.13299 (Simulation time: 0 hr 16 min 9 sec) 
Heartbeat CPU 2 instructions: 50000001 cycles: 27650901 heartbeat IPC: 1.12324 cumulative IPC: 1.12507 (Simulation time: 0 hr 16 min 19 sec) 
Heartbeat CPU 0 instructions: 30000000 cycles: 30784183 heartbeat IPC: 0.555744 cumulative IPC: 0.433378 (Simulation time: 0 hr 17 min 20 sec) 
Heartbeat CPU 7 instructions: 50000003 cycles: 34490036 heartbeat IPC: 0.774121 cumulative IPC: 0.773202 (Simulation time: 0 hr 18 min 32 sec) 
Heartbeat CPU 5 instructions: 40000000 cycles: 34528089 heartbeat IPC: 0.766527 cumulative IPC: 0.733786 (Simulation time: 0 hr 18 min 33 sec) 
Heartbeat CPU 1 instructions: 60000000 cycles: 35887836 heartbeat IPC: 1.13558 cumulative IPC: 1.13407 (Simulation time: 0 hr 19 min 0 sec) 
Heartbeat CPU 2 instructions: 60000000 cycles: 36488839 heartbeat IPC: 1.13149 cumulative IPC: 1.12767 (Simulation time: 0 hr 19 min 12 sec) 
Heartbeat CPU 4 instructions: 40000000 cycles: 39826977 heartbeat IPC: 0.398125 cumulative IPC: 0.397518 (Simulation time: 0 hr 20 min 16 sec) 
Heartbeat CPU 1 instructions: 70000001 cycles: 44746703 heartbeat IPC: 1.12881 cumulative IPC: 1.13252 (Simulation time: 0 hr 21 min 48 sec) 
Heartbeat CPU 2 instructions: 70000000 cycles: 45328184 heartbeat IPC: 1.13131 cumulative IPC: 1.12872 (Simulation time: 0 hr 21 min 59 sec) 
Heartbeat CPU 7 instructions: 60000000 cycles: 47402224 heartbeat IPC: 0.774462 cumulative IPC: 0.773699 (Simulation time: 0 hr 22 min 40 sec) 
Heartbeat CPU 5 instructions: 50000001 cycles: 48201227 heartbeat IPC: 0.731361 cumulative IPC: 0.732796 (Simulation time: 0 hr 22 min 56 sec) 
Heartbeat CPU 1 instructions: 80000000 cycles: 53532684 heartbeat IPC: 1.13818 cumulative IPC: 1.1338 (Simulation time: 0 hr 24 min 42 sec) 
Heartbeat CPU 0 instructions: 40000000 cycles: 53810347 heartbeat IPC: 0.434289 cumulative IPC: 0.433915 (Simulation time: 0 hr 24 min 47 sec) 
Heartbeat CPU 2 instructions: 80000000 cycles: 54149408 heartbeat IPC: 1.13363 cumulative IPC: 1.12982 (Simulation time: 0 hr 24 min 54 sec) 
Heartbeat CPU 6 instructions: 40000000 cycles: 59269456 heartbeat IPC: 0.223861 cumulative IPC: 0.219892 (Simulation time: 0 hr 26 min 39 sec) 
Heartbeat CPU 7 instructions: 70000000 cycles: 60321361 heartbeat IPC: 0.774046 cumulative IPC: 0.773798 (Simulation time: 0 hr 27 min 0 sec) 
Heartbeat CPU 3 instructions: 30000001 cycles: 61087778 heartbeat IPC: 0.215656 cumulative IPC: 0.215656 (Simulation time: 0 hr 27 min 16 sec) 
Heartbeat CPU 5 instructions: 60000000 cycles: 61834521 heartbeat IPC: 0.733498 cumulative IPC: 0.732999 (Simulation time: 0 hr 27 min 32 sec) 
Heartbeat CPU 1 instructions: 90000001 cycles: 62341537 heartbeat IPC: 1.13522 cumulative IPC: 1.13406 (Simulation time: 0 hr 27 min 42 sec) 
Heartbeat CPU 2 instructions: 90000000 cycles: 63018384 heartbeat IPC: 1.12753 cumulative IPC: 1.1294 (Simulation time: 0 hr 27 min 57 sec) 
Heartbeat CPU 4 instructions: 50000002 cycles: 65563095 heartbeat IPC: 0.388559 cumulative IPC: 0.392984 (Simulation time: 0 hr 28 min 51 sec) 
Heartbeat CPU 1 instructions: 100000000 cycles: 71140078 heartbeat IPC: 1.13655 cumulative IPC: 1.13445 (Simulation time: 0 hr 30 min 50 sec) 
Heartbeat CPU 5 instructions: 70000001 cycles: 71639290 heartbeat IPC: 1.01991 cumulative IPC: 0.78242 (Simulation time: 0 hr 31 min 1 sec) 
Heartbeat CPU 2 instructions: 100000000 cycles: 71972958 heartbeat IPC: 1.11675 cumulative IPC: 1.12742 (Simulation time: 0 hr 31 min 8 sec) 
Heartbeat CPU 7 instructions: 80000000 cycles: 73227800 heartbeat IPC: 0.774807 cumulative IPC: 0.77402 (Simulation time: 0 hr 31 min 35 sec) 
Heartbeat CPU 0 instructions: 50000000 cycles: 77070568 heartbeat IPC: 0.429919 cumulative IPC: 0.432424 (Simulation time: 0 hr 32 min 56 sec) 
Heartbeat CPU 1 instructions: 110000002 cycles: 79936223 heartbeat IPC: 1.13686 cumulative IPC: 1.13477 (Simulation time: 0 hr 33 min 57 sec) 
Heartbeat CPU 2 instructions: 110000001 cycles: 80992376 heartbeat IPC: 1.10872 cumulative IPC: 1.12488 (Simulation time: 0 hr 34 min 17 sec) 
Heartbeat CPU 5 instructions: 80000000 cycles: 81913060 heartbeat IPC: 0.973352 cumulative IPC: 0.811612 (Simulation time: 0 hr 34 min 35 sec) 
Heartbeat CPU 7 instructions: 90000000 cycles: 86152020 heartbeat IPC: 0.773741 cumulative IPC: 0.77397 (Simulation time: 0 hr 35 min 56 sec) 
Heartbeat CPU 1 instructions: 120000000 cycles: 88757204 heartbeat IPC: 1.13366 cumulative IPC: 1.13464 (Simulation time: 0 hr 36 min 47 sec) 
Heartbeat CPU 2 instructions: 120000000 cycles: 89964082 heartbeat IPC: 1.11462 cumulative IPC: 1.12365 (Simulation time: 0 hr 37 min 9 sec) 
Heartbeat CPU 4 instructions: 60000000 cycles: 91185268 heartbeat IPC: 0.390287 cumulative IPC: 0.39208 (Simulation time: 0 hr 37 min 33 sec) 
Heartbeat CPU 5 instructions: 90000000 cycles: 95419423 heartbeat IPC: 0.740392 cumulative IPC: 0.799693 (Simulation time: 0 hr 38 min 59 sec) 
Heartbeat CPU 1 instructions: 130000000 cycles: 97520599 heartbeat IPC: 1.14111 cumulative IPC: 1.13533 (Simulation time: 0 hr 39 min 43 sec) 
Heartbeat CPU 7 instructions: 100000000 cycles: 99065749 heartbeat IPC: 0.77437 cumulative IPC: 0.774031 (Simulation time: 0 hr 40 min 14 sec) 
Heartbeat CPU 2 instructions: 130000000 cycles: 99169842 heartbeat IPC: 1.08628 cumulative IPC: 1.11958 (Simulation time: 0 hr 40 min 16 sec) 
Heartbeat CPU 0 instructions: 60000000 cycles: 100058461 heartbeat IPC: 0.435012 cumulative IPC: 0.433121 (Simulation time: 0 hr 40 min 33 sec) 
Finished CPU 1 instructions: 100000002 cycles: 88031102 cumulative IPC: 1.13596 (Simulation time: 0 hr 41 min 27 sec) 
Finished CPU 2 instructions: 100000003 cycles: 89555073 cumulative IPC: 1.11663 (Simulation time: 0 hr 41 min 59 sec) 
Heartbeat CPU 1 instructions: 140000000 cycles: 106245746 heartbeat IPC: 1.14611 cumulative IPC: 1.13635 (Simulation time: 0 hr 42 min 39 sec) 
Heartbeat CPU 3 instructions: 40000000 cycles: 107965082 heartbeat IPC: 0.213323 cumulative IPC: 0.214483 (Simulation time: 0 hr 43 min 13 sec) 
Heartbeat CPU 2 instructions: 140000000 cycles: 108544106 heartbeat IPC: 1.06675 cumulative IPC: 1.1143 (Simulation time: 0 hr 43 min 25 sec) 
Heartbeat CPU 5 instructions: 100000000 cycles: 109476587 heartbeat IPC: 0.711381 cumulative IPC: 0.786592 (Simulation time: 0 hr 43 min 44 sec) 
Heartbeat CPU 6 instructions: 50000001 cycles: 110176556 heartbeat IPC: 0.196436 cumulative IPC: 0.207383 (Simulation time: 0 hr 43 min 59 sec) 
Heartbeat CPU 7 instructions: 110000001 cycles: 111981212 heartbeat IPC: 0.774266 cumulative IPC: 0.774062 (Simulation time: 0 hr 44 min 38 sec) 
Heartbeat CPU 1 instructions: 150000001 cycles: 114971754 heartbeat IPC: 1.146 cumulative IPC: 1.13719 (Simulation time: 0 hr 45 min 42 sec) 
Heartbeat CPU 4 instructions: 70000001 cycles: 116496706 heartbeat IPC: 0.395078 cumulative IPC: 0.392826 (Simulation time: 0 hr 46 min 14 sec) 
Heartbeat CPU 2 instructions: 150000000 cycles: 117705173 heartbeat IPC: 1.09158 cumulative IPC: 1.11228 (Simulation time: 0 hr 46 min 39 sec) 
Heartbeat CPU 5 instructions: 110000000 cycles: 121379510 heartbeat IPC: 0.84013 cumulative IPC: 0.792567 (Simulation time: 0 hr 47 min 55 sec) 
Heartbeat CPU 0 instructions: 70000000 cycles: 122859794 heartbeat IPC: 0.438571 cumulative IPC: 0.43427 (Simulation time: 0 hr 48 min 25 sec) 
Heartbeat CPU 1 instructions: 160000000 cycles: 123945825 heartbeat IPC: 1.11432 cumulative IPC: 1.13531 (Simulation time: 0 hr 48 min 47 sec) 
Heartbeat CPU 7 instructions: 120000000 cycles: 124913835 heartbeat IPC: 0.773238 cumulative IPC: 0.773965 (Simulation time: 0 hr 49 min 7 sec) 
Heartbeat CPU 2 instructions: 160000000 cycles: 126794589 heartbeat IPC: 1.10018 cumulative IPC: 1.1113 (Simulation time: 0 hr 49 min 46 sec) 
Heartbeat CPU 1 instructions: 170000001 cycles: 132941967 heartbeat IPC: 1.11159 cumulative IPC: 1.13351 (Simulation time: 0 hr 51 min 51 sec) 
Heartbeat CPU 5 instructions: 120000000 cycles: 133545366 heartbeat IPC: 0.821973 cumulative IPC: 0.795577 (Simulation time: 0 hr 52 min 3 sec) 
Heartbeat CPU 2 instructions: 170000000 cycles: 136045806 heartbeat IPC: 1.08094 cumulative IPC: 1.10898 (Simulation time: 0 hr 52 min 51 sec) 
Heartbeat CPU 7 instructions: 130000003 cycles: 137834603 heartbeat IPC: 0.773948 cumulative IPC: 0.773964 (Simulation time: 0 hr 53 min 26 sec) 
Finished CPU 5 instructions: 100000000 cycles: 126766079 cumulative IPC: 0.788855 (Simulation time: 0 hr 54 min 34 sec) 
Heartbeat CPU 1 instructions: 180000000 cycles: 141982648 heartbeat IPC: 1.10611 cumulative IPC: 1.13156 (Simulation time: 0 hr 54 min 44 sec) 
Heartbeat CPU 4 instructions: 80000000 cycles: 142162251 heartbeat IPC: 0.389627 cumulative IPC: 0.392182 (Simulation time: 0 hr 54 min 47 sec) 
Finished CPU 7 instructions: 100000002 cycles: 129211718 cumulative IPC: 0.773924 (Simulation time: 0 hr 55 min 20 sec) 
Heartbeat CPU 2 instructions: 180000000 cycles: 145345229 heartbeat IPC: 1.07534 cumulative IPC: 1.10659 (Simulation time: 0 hr 55 min 47 sec) 
Heartbeat CPU 0 instructions: 80000000 cycles: 145766607 heartbeat IPC: 0.436551 cumulative IPC: 0.434669 (Simulation time: 0 hr 55 min 55 sec) 
Heartbeat CPU 5 instructions: 130000003 cycles: 148330672 heartbeat IPC: 0.676347 cumulative IPC: 0.782384 (Simulation time: 0 hr 56 min 43 sec) 
Heartbeat CPU 7 instructions: 140000000 cycles: 150762778 heartbeat IPC: 0.773504 cumulative IPC: 0.77392 (Simulation time: 0 hr 57 min 32 sec) 
Heartbeat CPU 1 instructions: 190000001 cycles: 151015754 heartbeat IPC: 1.10704 cumulative IPC: 1.12994 (Simulation time: 0 hr 57 min 37 sec) 
Heartbeat CPU 2 instructions: 190000000 cycles: 154580636 heartbeat IPC: 1.08279 cumulative IPC: 1.10502 (Simulation time: 0 hr 58 min 45 sec) 
Heartbeat CPU 3 instructions: 50000000 cycles: 155177665 heartbeat IPC: 0.211808 cumulative IPC: 0.213584 (Simulation time: 0 hr 58 min 56 sec) 
Heartbeat CPU 6 instructions: 60000000 cycles: 159047609 heartbeat IPC: 0.20462 cumulative IPC: 0.206448 (Simulation time: 1 hr 0 min 11 sec) 
Heartbeat CPU 1 instructions: 200000000 cycles: 160310077 heartbeat IPC: 1.07593 cumulative IPC: 1.12649 (Simulation time: 1 hr 0 min 37 sec) 
Heartbeat CPU 5 instructions: 140000000 cycles: 162623081 heartbeat IPC: 0.699672 cumulative IPC: 0.774391 (Simulation time: 1 hr 1 min 22 sec) 
Heartbeat CPU 2 instructions: 200000000 cycles: 163547143 heartbeat IPC: 1.11526 cumulative IPC: 1.10563 (Simulation time: 1 hr 1 min 39 sec) 
Heartbeat CPU 7 instructions: 150000001 cycles: 163680568 heartbeat IPC: 0.774126 cumulative IPC: 0.773938 (Simulation time: 1 hr 1 min 42 sec) 
Heartbeat CPU 4 instructions: 90000001 cycles: 167965081 heartbeat IPC: 0.387554 cumulative IPC: 0.391402 (Simulation time: 1 hr 3 min 2 sec) 
Heartbeat CPU 0 instructions: 90000000 cycles: 168806100 heartbeat IPC: 0.434037 cumulative IPC: 0.434574 (Simulation time: 1 hr 3 min 18 sec) 
Heartbeat CPU 1 instructions: 210000001 cycles: 169535226 heartbeat IPC: 1.08399 cumulative IPC: 1.12396 (Simulation time: 1 hr 3 min 32 sec) 
Heartbeat CPU 2 instructions: 210000003 cycles: 172721697 heartbeat IPC: 1.08997 cumulative IPC: 1.10472 (Simulation time: 1 hr 4 min 37 sec) 
Heartbeat CPU 5 instructions: 150000002 cycles: 175664153 heartbeat IPC: 0.766808 cumulative IPC: 0.773776 (Simulation time: 1 hr 5 min 34 sec) 
Heartbeat CPU 7 instructions: 160000000 cycles: 176611116 heartbeat IPC: 0.773362 cumulative IPC: 0.773892 (Simulation time: 1 hr 5 min 52 sec) 
Heartbeat CPU 1 instructions: 220000000 cycles: 178794334 heartbeat IPC: 1.08002 cumulative IPC: 1.12148 (Simulation time: 1 hr 6 min 35 sec) 
Heartbeat CPU 2 instructions: 220000000 cycles: 182035724 heartbeat IPC: 1.07365 cumulative IPC: 1.10299 (Simulation time: 1 hr 7 min 41 sec) 
Heartbeat CPU 5 instructions: 160000000 cycles: 187327564 heartbeat IPC: 0.857382 cumulative IPC: 0.779426 (Simulation time: 1 hr 9 min 29 sec) 
Heartbeat CPU 1 instructions: 230000001 cycles: 187889867 heartbeat IPC: 1.09944 cumulative IPC: 1.12032 (Simulation time: 1 hr 9 min 41 sec) 
Heartbeat CPU 7 instructions: 170000001 cycles: 189530430 heartbeat IPC: 0.774035 cumulative IPC: 0.773902 (Simulation time: 1 hr 10 min 14 sec) 
Heartbeat CPU 2 instructions: 230000000 cycles: 191163166 heartbeat IPC: 1.0956 cumulative IPC: 1.10261 (Simulation time: 1 hr 10 min 47 sec) 
Heartbeat CPU 0 instructions: 100000000 cycles: 192151377 heartbeat IPC: 0.428352 cumulative IPC: 0.433756 (Simulation time: 1 hr 11 min 8 sec) 
Heartbeat CPU 4 instructions: 100000000 cycles: 193813616 heartbeat IPC: 0.386869 cumulative IPC: 0.390748 (Simulation time: 1 hr 11 min 41 sec) 
Heartbeat CPU 1 instructions: 240000000 cycles: 196997223 heartbeat IPC: 1.09801 cumulative IPC: 1.11921 (Simulation time: 1 hr 12 min 45 sec) 
Heartbeat CPU 2 instructions: 240000000 cycles: 200347914 heartbeat IPC: 1.08876 cumulative IPC: 1.10193 (Simulation time: 1 hr 13 min 51 sec) 
Heartbeat CPU 5 instructions: 170000001 cycles: 200978371 heartbeat IPC: 0.732557 cumulative IPC: 0.775991 (Simulation time: 1 hr 14 min 4 sec) 
Heartbeat CPU 7 instructions: 180000000 cycles: 202451722 heartbeat IPC: 0.773916 cumulative IPC: 0.773903 (Simulation time: 1 hr 14 min 34 sec) 
Heartbeat CPU 3 instructions: 60000000 cycles: 202559209 heartbeat IPC: 0.211053 cumulative IPC: 0.212945 (Simulation time: 1 hr 14 min 37 sec) 
Heartbeat CPU 1 instructions: 250000003 cycles: 206186099 heartbeat IPC: 1.08827 cumulative IPC: 1.11772 (Simulation time: 1 hr 15 min 53 sec) 
Heartbeat CPU 2 instructions: 250000003 cycles: 209408377 heartbeat IPC: 1.1037 cumulative IPC: 1.10201 (Simulation time: 1 hr 16 min 58 sec) 
Heartbeat CPU 6 instructions: 70000000 cycles: 211806019 heartbeat IPC: 0.189543 cumulative IPC: 0.201923 (Simulation time: 1 hr 17 min 47 sec) 
Heartbeat CPU 5 instructions: 180000000 cycles: 212931558 heartbeat IPC: 0.836597 cumulative IPC: 0.779646 (Simulation time: 1 hr 18 min 9 sec) 
Heartbeat CPU 1 instructions: 260000000 cycles: 215096761 heartbeat IPC: 1.12225 cumulative IPC: 1.11792 (Simulation time: 1 hr 18 min 54 sec) 
Heartbeat CPU 7 instructions: 190000001 cycles: 215389819 heartbeat IPC: 0.772911 cumulative IPC: 0.773839 (Simulation time: 1 hr 19 min 0 sec) 
Heartbeat CPU 0 instructions: 110000002 cycles: 215572317 heartbeat IPC: 0.426968 cumulative IPC: 0.432964 (Simulation time: 1 hr 19 min 4 sec) 
Heartbeat CPU 2 instructions: 260000000 cycles: 218501459 heartbeat IPC: 1.09974 cumulative IPC: 1.10191 (Simulation time: 1 hr 20 min 6 sec) 
Heartbeat CPU 4 instructions: 110000000 cycles: 219792497 heartbeat IPC: 0.384928 cumulative IPC: 0.390011 (Simulation time: 1 hr 20 min 33 sec) 
Heartbeat CPU 1 instructions: 270000001 cycles: 224021044 heartbeat IPC: 1.12054 cumulative IPC: 1.11803 (Simulation time: 1 hr 22 min 1 sec) 
Heartbeat CPU 5 instructions: 190000003 cycles: 225082337 heartbeat IPC: 0.822993 cumulative IPC: 0.782149 (Simulation time: 1 hr 22 min 23 sec) 
Heartbeat CPU 2 instructions: 270000001 cycles: 227659122 heartbeat IPC: 1.09198 cumulative IPC: 1.10148 (Simulation time: 1 hr 23 min 16 sec) 
Heartbeat CPU 7 instructions: 200000000 cycles: 228312212 heartbeat IPC: 0.77385 cumulative IPC: 0.77384 (Simulation time: 1 hr 23 min 29 sec) 
Heartbeat CPU 1 instructions: 280000000 cycles: 233060157 heartbeat IPC: 1.1063 cumulative IPC: 1.11755 (Simulation time: 1 hr 25 min 2 sec) 
Heartbeat CPU 2 instructions: 280000000 cycles: 236646058 heartbeat IPC: 1.11273 cumulative IPC: 1.10194 (Simulation time: 1 hr 26 min 12 sec) 
Heartbeat CPU 0 instructions: 120000000 cycles: 238907440 heartbeat IPC: 0.428538 cumulative IPC: 0.432504 (Simulation time: 1 hr 26 min 58 sec) 
Heartbeat CPU 5 instructions: 200000000 cycles: 240457047 heartbeat IPC: 0.650419 cumulative IPC: 0.773178 (Simulation time: 1 hr 27 min 29 sec) 
Heartbeat CPU 7 instructions: 210000002 cycles: 241259218 heartbeat IPC: 0.77238 cumulative IPC: 0.773757 (Simulation time: 1 hr 27 min 46 sec) 
Heartbeat CPU 1 instructions: 290000002 cycles: 242016459 heartbeat IPC: 1.11653 cumulative IPC: 1.11751 (Simulation time: 1 hr 28 min 0 sec) 
Heartbeat CPU 4 instructions: 120000000 cycles: 245542866 heartbeat IPC: 0.388344 cumulative IPC: 0.389825 (Simulation time: 1 hr 29 min 10 sec) 
Heartbeat CPU 2 instructions: 290000001 cycles: 245756592 heartbeat IPC: 1.09763 cumulative IPC: 1.10177 (Simulation time: 1 hr 29 min 14 sec) 
Finished CPU 0 instructions: 100000000 cycles: 231254877 cumulative IPC: 0.432423 (Simulation time: 1 hr 29 min 18 sec) 
Heartbeat CPU 3 instructions: 70000000 cycles: 249604567 heartbeat IPC: 0.212561 cumulative IPC: 0.212868 (Simulation time: 1 hr 30 min 30 sec) 
Heartbeat CPU 1 instructions: 300000000 cycles: 251046792 heartbeat IPC: 1.10738 cumulative IPC: 1.11712 (Simulation time: 1 hr 30 min 58 sec) 
Heartbeat CPU 7 instructions: 220000000 cycles: 254252397 heartbeat IPC: 0.769634 cumulative IPC: 0.773533 (Simulation time: 1 hr 32 min 1 sec) 
Heartbeat CPU 2 instructions: 300000000 cycles: 254921068 heartbeat IPC: 1.09117 cumulative IPC: 1.10136 (Simulation time: 1 hr 32 min 14 sec) 
Heartbeat CPU 5 instructions: 210000000 cycles: 255319061 heartbeat IPC: 0.672856 cumulative IPC: 0.766981 (Simulation time: 1 hr 32 min 22 sec) 
Heartbeat CPU 1 instructions: 310000000 cycles: 260129501 heartbeat IPC: 1.10099 cumulative IPC: 1.11652 (Simulation time: 1 hr 33 min 54 sec) 
Heartbeat CPU 0 instructions: 130000000 cycles: 262091616 heartbeat IPC: 0.431329 cumulative IPC: 0.432393 (Simulation time: 1 hr 34 min 32 sec) 
Heartbeat CPU 6 instructions: 80000000 cycles: 262789333 heartbeat IPC: 0.196143 cumulative IPC: 0.200735 (Simulation time: 1 hr 34 min 46 sec) 
Heartbeat CPU 2 instructions: 310000000 cycles: 263918778 heartbeat IPC: 1.11139 cumulative IPC: 1.10172 (Simulation time: 1 hr 35 min 8 sec) 
Heartbeat CPU 7 instructions: 230000000 cycles: 266371482 heartbeat IPC: 0.825145 cumulative IPC: 0.776019 (Simulation time: 1 hr 35 min 57 sec) 
Heartbeat CPU 1 instructions: 320000000 cycles: 269242227 heartbeat IPC: 1.09737 cumulative IPC: 1.11584 (Simulation time: 1 hr 36 min 54 sec) 
Heartbeat CPU 5 instructions: 220000000 cycles: 270069302 heartbeat IPC: 0.677955 cumulative IPC: 0.761838 (Simulation time: 1 hr 37 min 10 sec) 
Heartbeat CPU 4 instructions: 130000000 cycles: 270845641 heartbeat IPC: 0.395214 cumulative IPC: 0.390357 (Simulation time: 1 hr 37 min 26 sec) 
Finished CPU 4 instructions: 100000001 cycles: 256193659 cumulative IPC: 0.39033 (Simulation time: 1 hr 37 min 27 sec) 
Heartbeat CPU 2 instructions: 320000000 cycles: 273065048 heartbeat IPC: 1.09334 cumulative IPC: 1.10143 (Simulation time: 1 hr 38 min 10 sec) 
Heartbeat CPU 1 instructions: 330000001 cycles: 278189705 heartbeat IPC: 1.11763 cumulative IPC: 1.1159 (Simulation time: 1 hr 39 min 51 sec) 
Heartbeat CPU 7 instructions: 240000000 cycles: 278256237 heartbeat IPC: 0.841414 cumulative IPC: 0.778968 (Simulation time: 1 hr 39 min 52 sec) 
Heartbeat CPU 2 instructions: 330000003 cycles: 282289466 heartbeat IPC: 1.08408 cumulative IPC: 1.10083 (Simulation time: 1 hr 41 min 10 sec) 
Heartbeat CPU 0 instructions: 140000000 cycles: 285006359 heartbeat IPC: 0.4364 cumulative IPC: 0.432733 (Simulation time: 1 hr 42 min 1 sec) 
Heartbeat CPU 5 instructions: 230000000 cycles: 285015981 heartbeat IPC: 0.669045 cumulative IPC: 0.756707 (Simulation time: 1 hr 42 min 1 sec) 
Heartbeat CPU 1 instructions: 340000000 cycles: 287130587 heartbeat IPC: 1.11846 cumulative IPC: 1.11598 (Simulation time: 1 hr 42 min 42 sec) 
Heartbeat CPU 7 instructions: 250000001 cycles: 290518819 heartbeat IPC: 0.815489 cumulative IPC: 0.780591 (Simulation time: 1 hr 43 min 48 sec) 
Heartbeat CPU 6 instructions: 90000002 cycles: 290852474 heartbeat IPC: 0.356339 cumulative IPC: 0.216549 (Simulation time: 1 hr 43 min 55 sec) 
Heartbeat CPU 2 instructions: 340000000 cycles: 291514822 heartbeat IPC: 1.08397 cumulative IPC: 1.10027 (Simulation time: 1 hr 44 min 8 sec) 
Heartbeat CPU 1 instructions: 350000000 cycles: 296168032 heartbeat IPC: 1.10651 cumulative IPC: 1.11568 (Simulation time: 1 hr 45 min 35 sec) 
Heartbeat CPU 4 instructions: 140000000 cycles: 296724448 heartbeat IPC: 0.386417 cumulative IPC: 0.389996 (Simulation time: 1 hr 45 min 46 sec) 
Heartbeat CPU 3 instructions: 80000000 cycles: 296755295 heartbeat IPC: 0.212086 cumulative IPC: 0.212738 (Simulation time: 1 hr 45 min 46 sec) 
Heartbeat CPU 5 instructions: 240000000 cycles: 299590763 heartbeat IPC: 0.686117 cumulative IPC: 0.753095 (Simulation time: 1 hr 46 min 40 sec) 
Heartbeat CPU 2 instructions: 350000001 cycles: 300687752 heartbeat IPC: 1.09016 cumulative IPC: 1.09994 (Simulation time: 1 hr 47 min 1 sec) 
Heartbeat CPU 7 instructions: 260000000 cycles: 302967348 heartbeat IPC: 0.803308 cumulative IPC: 0.781573 (Simulation time: 1 hr 47 min 46 sec) 
Heartbeat CPU 1 instructions: 360000000 cycles: 305088632 heartbeat IPC: 1.121 cumulative IPC: 1.11584 (Simulation time: 1 hr 48 min 28 sec) 
Heartbeat CPU 0 instructions: 150000000 cycles: 307680909 heartbeat IPC: 0.441023 cumulative IPC: 0.433375 (Simulation time: 1 hr 49 min 20 sec) 
Heartbeat CPU 2 instructions: 360000000 cycles: 310012644 heartbeat IPC: 1.0724 cumulative IPC: 1.09907 (Simulation time: 1 hr 50 min 8 sec) 
Heartbeat CPU 5 instructions: 250000002 cycles: 310957602 heartbeat IPC: 0.879752 cumulative IPC: 0.757955 (Simulation time: 1 hr 50 min 26 sec) 
Heartbeat CPU 1 instructions: 370000003 cycles: 314138558 heartbeat IPC: 1.10498 cumulative IPC: 1.11551 (Simulation time: 1 hr 51 min 28 sec) 
Heartbeat CPU 7 instructions: 270000002 cycles: 315670681 heartbeat IPC: 0.787195 cumulative IPC: 0.78181 (Simulation time: 1 hr 51 min 58 sec) 
Heartbeat CPU 2 instructions: 370000002 cycles: 319046997 heartbeat IPC: 1.10689 cumulative IPC: 1.09931 (Simulation time: 1 hr 53 min 5 sec) 
Heartbeat CPU 4 instructions: 150000000 cycles: 322754865 heartbeat IPC: 0.384166 cumulative IPC: 0.389503 (Simulation time: 1 hr 54 min 15 sec) 
Heartbeat CPU 1 instructions: 380000000 cycles: 323218235 heartbeat IPC: 1.10136 cumulative IPC: 1.1151 (Simulation time: 1 hr 54 min 23 sec) 
Heartbeat CPU 5 instructions: 260000000 cycles: 325451964 heartbeat IPC: 0.689923 cumulative IPC: 0.754782 (Simulation time: 1 hr 55 min 5 sec) 
Heartbeat CPU 2 instructions: 380000000 cycles: 328288040 heartbeat IPC: 1.08213 cumulative IPC: 1.0988 (Simulation time: 1 hr 55 min 59 sec) 
Heartbeat CPU 7 instructions: 280000000 cycles: 329055733 heartbeat IPC: 0.747102 cumulative IPC: 0.780332 (Simulation time: 1 hr 56 min 13 sec) 
Heartbeat CPU 0 instructions: 160000000 cycles: 330438385 heartbeat IPC: 0.439416 cumulative IPC: 0.43381 (Simulation time: 1 hr 56 min 39 sec) 
Heartbeat CPU 1 instructions: 390000002 cycles: 332670474 heartbeat IPC: 1.05795 cumulative IPC: 1.1134 (Simulation time: 1 hr 57 min 20 sec) 
Heartbeat CPU 6 instructions: 100000000 cycles: 333268610 heartbeat IPC: 0.235759 cumulative IPC: 0.219107 (Simulation time: 1 hr 57 min 31 sec) 
Heartbeat CPU 2 instructions: 390000002 cycles: 337400174 heartbeat IPC: 1.09744 cumulative IPC: 1.09876 (Simulation time: 1 hr 58 min 52 sec) 
Heartbeat CPU 5 instructions: 270000000 cycles: 339247785 heartbeat IPC: 0.724857 cumulative IPC: 0.75351 (Simulation time: 1 hr 59 min 28 sec) 
Heartbeat CPU 1 instructions: 400000000 cycles: 341896213 heartbeat IPC: 1.08392 cumulative IPC: 1.11257 (Simulation time: 2 hr 0 min 17 sec) 
Heartbeat CPU 3 instructions: 90000001 cycles: 343044720 heartbeat IPC: 0.216032 cumulative IPC: 0.213202 (Simulation time: 2 hr 0 min 39 sec) 
Heartbeat CPU 7 instructions: 290000000 cycles: 343210011 heartbeat IPC: 0.7065 cumulative IPC: 0.777151 (Simulation time: 2 hr 0 min 42 sec) 
Heartbeat CPU 2 instructions: 400000000 cycles: 346663441 heartbeat IPC: 1.07953 cumulative IPC: 1.09822 (Simulation time: 2 hr 1 min 50 sec) 
Heartbeat CPU 4 instructions: 160000000 cycles: 348160978 heartbeat IPC: 0.393606 cumulative IPC: 0.389816 (Simulation time: 2 hr 2 min 17 sec) 
Heartbeat CPU 1 instructions: 410000001 cycles: 351195727 heartbeat IPC: 1.07533 cumulative IPC: 1.11154 (Simulation time: 2 hr 3 min 12 sec) 
Heartbeat CPU 5 instructions: 280000000 cycles: 352272408 heartbeat IPC: 0.767777 cumulative IPC: 0.75406 (Simulation time: 2 hr 3 min 32 sec) 
Heartbeat CPU 0 instructions: 170000003 cycles: 353258723 heartbeat IPC: 0.438206 cumulative IPC: 0.434107 (Simulation time: 2 hr 3 min 49 sec) 
Heartbeat CPU 2 instructions: 410000002 cycles: 355851955 heartbeat IPC: 1.08832 cumulative IPC: 1.09796 (Simulation time: 2 hr 4 min 37 sec) 
Heartbeat CPU 7 instructions: 300000000 cycles: 357855979 heartbeat IPC: 0.682782 cumulative IPC: 0.773123 (Simulation time: 2 hr 5 min 15 sec) 
Heartbeat CPU 1 instructions: 420000000 cycles: 360579531 heartbeat IPC: 1.06567 cumulative IPC: 1.11029 (Simulation time: 2 hr 6 min 4 sec) 
Heartbeat CPU 2 instructions: 420000000 cycles: 364985382 heartbeat IPC: 1.09488 cumulative IPC: 1.09788 (Simulation time: 2 hr 7 min 25 sec) 
Heartbeat CPU 5 instructions: 290000000 cycles: 366763866 heartbeat IPC: 0.690062 cumulative IPC: 0.751426 (Simulation time: 2 hr 7 min 58 sec) 
Heartbeat CPU 1 instructions: 430000000 cycles: 369850706 heartbeat IPC: 1.07861 cumulative IPC: 1.10947 (Simulation time: 2 hr 8 min 56 sec) 
Heartbeat CPU 7 instructions: 310000003 cycles: 372938254 heartbeat IPC: 0.66303 cumulative IPC: 0.768487 (Simulation time: 2 hr 9 min 53 sec) 
Heartbeat CPU 6 instructions: 110000000 cycles: 373424455 heartbeat IPC: 0.24903 cumulative IPC: 0.222456 (Simulation time: 2 hr 10 min 1 sec) 
Heartbeat CPU 4 instructions: 170000000 cycles: 373609774 heartbeat IPC: 0.392946 cumulative IPC: 0.390038 (Simulation time: 2 hr 10 min 5 sec) 
Heartbeat CPU 2 instructions: 430000001 cycles: 374184224 heartbeat IPC: 1.08709 cumulative IPC: 1.0976 (Simulation time: 2 hr 10 min 15 sec) 
Heartbeat CPU 0 instructions: 180000000 cycles: 376006175 heartbeat IPC: 0.43961 cumulative IPC: 0.434453 (Simulation time: 2 hr 10 min 48 sec) 
Heartbeat CPU 1 instructions: 440000000 cycles: 378897127 heartbeat IPC: 1.10541 cumulative IPC: 1.10937 (Simulation time: 2 hr 11 min 40 sec) 
Heartbeat CPU 5 instructions: 300000000 cycles: 382007153 heartbeat IPC: 0.656026 cumulative IPC: 0.747467 (Simulation time: 2 hr 12 min 36 sec) 
Heartbeat CPU 2 instructions: 440000000 cycles: 383468401 heartbeat IPC: 1.0771 cumulative IPC: 1.09708 (Simulation time: 2 hr 13 min 4 sec) 
Heartbeat CPU 1 instructions: 450000002 cycles: 387948657 heartbeat IPC: 1.10479 cumulative IPC: 1.10926 (Simulation time: 2 hr 14 min 27 sec) 
Heartbeat CPU 7 instructions: 320000000 cycles: 388239882 heartbeat IPC: 0.653525 cumulative IPC: 0.763778 (Simulation time: 2 hr 14 min 32 sec) 
Heartbeat CPU 3 instructions: 100000000 cycles: 390536532 heartbeat IPC: 0.210563 cumulative IPC: 0.212869 (Simulation time: 2 hr 15 min 14 sec) 
Heartbeat CPU 2 instructions: 450000003 cycles: 392495869 heartbeat IPC: 1.10773 cumulative IPC: 1.09734 (Simulation time: 2 hr 15 min 49 sec) 
Heartbeat CPU 5 instructions: 310000001 cycles: 396789900 heartbeat IPC: 0.676464 cumulative IPC: 0.744719 (Simulation time: 2 hr 17 min 7 sec) 
Heartbeat CPU 1 instructions: 460000000 cycles: 396817892 heartbeat IPC: 1.12749 cumulative IPC: 1.10968 (Simulation time: 2 hr 17 min 7 sec) 
Heartbeat CPU 4 instructions: 180000000 cycles: 398721718 heartbeat IPC: 0.398217 cumulative IPC: 0.390572 (Simulation time: 2 hr 17 min 42 sec) 
Heartbeat CPU 0 instructions: 190000002 cycles: 398776105 heartbeat IPC: 0.439176 cumulative IPC: 0.434733 (Simulation time: 2 hr 17 min 43 sec) 
Heartbeat CPU 2 instructions: 460000000 cycles: 401555176 heartbeat IPC: 1.10384 cumulative IPC: 1.09749 (Simulation time: 2 hr 18 min 33 sec) 
Heartbeat CPU 7 instructions: 330000000 cycles: 403626805 heartbeat IPC: 0.649903 cumulative IPC: 0.759273 (Simulation time: 2 hr 19 min 11 sec) 
Heartbeat CPU 1 instructions: 470000001 cycles: 405808518 heartbeat IPC: 1.11227 cumulative IPC: 1.10974 (Simulation time: 2 hr 19 min 50 sec) 
Heartbeat CPU 2 instructions: 470000001 cycles: 410363694 heartbeat IPC: 1.13526 cumulative IPC: 1.09833 (Simulation time: 2 hr 21 min 14 sec) 
Heartbeat CPU 5 instructions: 320000000 cycles: 410714254 heartbeat IPC: 0.718166 cumulative IPC: 0.743786 (Simulation time: 2 hr 21 min 21 sec) 
Heartbeat CPU 1 instructions: 480000000 cycles: 414750845 heartbeat IPC: 1.11828 cumulative IPC: 1.10993 (Simulation time: 2 hr 22 min 37 sec) 
Heartbeat CPU 7 instructions: 340000000 cycles: 419097897 heartbeat IPC: 0.646367 cumulative IPC: 0.754953 (Simulation time: 2 hr 24 min 0 sec) 
Heartbeat CPU 2 instructions: 480000000 cycles: 419308331 heartbeat IPC: 1.11799 cumulative IPC: 1.09877 (Simulation time: 2 hr 24 min 4 sec) 
Heartbeat CPU 6 instructions: 120000000 cycles: 419406276 heartbeat IPC: 0.217477 cumulative IPC: 0.221891 (Simulation time: 2 hr 24 min 6 sec) 
Heartbeat CPU 5 instructions: 330000002 cycles: 422569789 heartbeat IPC: 0.843488 cumulative IPC: 0.746684 (Simulation time: 2 hr 25 min 4 sec) 
Heartbeat CPU 1 instructions: 490000000 cycles: 423807560 heartbeat IPC: 1.10415 cumulative IPC: 1.1098 (Simulation time: 2 hr 25 min 26 sec) 
Heartbeat CPU 0 instructions: 200000000 cycles: 424133140 heartbeat IPC: 0.394368 cumulative IPC: 0.432233 (Simulation time: 2 hr 25 min 32 sec) 
Heartbeat CPU 4 instructions: 190000001 cycles: 424309784 heartbeat IPC: 0.390807 cumulative IPC: 0.390587 (Simulation time: 2 hr 25 min 35 sec) 
Heartbeat CPU 2 instructions: 490000001 cycles: 428126787 heartbeat IPC: 1.13399 cumulative IPC: 1.09952 (Simulation time: 2 hr 26 min 44 sec) 
Heartbeat CPU 1 instructions: 500000000 cycles: 432737740 heartbeat IPC: 1.1198 cumulative IPC: 1.11001 (Simulation time: 2 hr 28 min 12 sec) 
Heartbeat CPU 7 instructions: 350000000 cycles: 434504790 heartbeat IPC: 0.64906 cumulative IPC: 0.751066 (Simulation time: 2 hr 28 min 45 sec) 
Heartbeat CPU 5 instructions: 340000000 cycles: 435311532 heartbeat IPC: 0.784822 cumulative IPC: 0.747839 (Simulation time: 2 hr 29 min 0 sec) 
Heartbeat CPU 2 instructions: 500000000 cycles: 436999906 heartbeat IPC: 1.127 cumulative IPC: 1.1001 (Simulation time: 2 hr 29 min 32 sec) 
Heartbeat CPU 3 instructions: 110000003 cycles: 437435591 heartbeat IPC: 0.213224 cumulative IPC: 0.212908 (Simulation time: 2 hr 29 min 40 sec) 
Heartbeat CPU 1 instructions: 510000002 cycles: 441737435 heartbeat IPC: 1.11115 cumulative IPC: 1.11004 (Simulation time: 2 hr 31 min 0 sec) 
Heartbeat CPU 2 instructions: 510000001 cycles: 445835108 heartbeat IPC: 1.13184 cumulative IPC: 1.10075 (Simulation time: 2 hr 32 min 16 sec) 
Heartbeat CPU 5 instructions: 350000003 cycles: 447909877 heartbeat IPC: 0.793755 cumulative IPC: 0.749175 (Simulation time: 2 hr 32 min 54 sec) 
Heartbeat CPU 0 instructions: 210000000 cycles: 449671713 heartbeat IPC: 0.391565 cumulative IPC: 0.429845 (Simulation time: 2 hr 33 min 26 sec) 
Heartbeat CPU 4 instructions: 200000000 cycles: 449881170 heartbeat IPC: 0.391062 cumulative IPC: 0.390615 (Simulation time: 2 hr 33 min 30 sec) 
Heartbeat CPU 7 instructions: 360000000 cycles: 449959091 heartbeat IPC: 0.647069 cumulative IPC: 0.747374 (Simulation time: 2 hr 33 min 32 sec) 
Heartbeat CPU 1 instructions: 520000000 cycles: 450734422 heartbeat IPC: 1.11148 cumulative IPC: 1.11007 (Simulation time: 2 hr 33 min 46 sec) 
Heartbeat CPU 2 instructions: 520000000 cycles: 454758205 heartbeat IPC: 1.12069 cumulative IPC: 1.10115 (Simulation time: 2 hr 35 min 1 sec) 
Heartbeat CPU 6 instructions: 130000003 cycles: 459333969 heartbeat IPC: 0.250453 cumulative IPC: 0.224456 (Simulation time: 2 hr 36 min 25 sec) 
Finished CPU 6 instructions: 100000003 cycles: 445042194 cumulative IPC: 0.224698 (Simulation time: 2 hr 36 min 33 sec) 
Heartbeat CPU 1 instructions: 530000000 cycles: 459805262 heartbeat IPC: 1.10243 cumulative IPC: 1.10991 (Simulation time: 2 hr 36 min 34 sec) 
Heartbeat CPU 5 instructions: 360000000 cycles: 462446618 heartbeat IPC: 0.687912 cumulative IPC: 0.747186 (Simulation time: 2 hr 37 min 21 sec) 
Heartbeat CPU 7 instructions: 370000001 cycles: 465388335 heartbeat IPC: 0.64812 cumulative IPC: 0.743976 (Simulation time: 2 hr 38 min 15 sec) 
Heartbeat CPU 2 instructions: 530000003 cycles: 466004481 heartbeat IPC: 0.889184 cumulative IPC: 1.09587 (Simulation time: 2 hr 38 min 26 sec) 
Heartbeat CPU 1 instructions: 540000000 cycles: 468813127 heartbeat IPC: 1.11014 cumulative IPC: 1.10992 (Simulation time: 2 hr 39 min 18 sec) 
Heartbeat CPU 0 instructions: 220000000 cycles: 472697559 heartbeat IPC: 0.434295 cumulative IPC: 0.430069 (Simulation time: 2 hr 40 min 32 sec) 
Heartbeat CPU 5 instructions: 370000002 cycles: 475383707 heartbeat IPC: 0.772972 cumulative IPC: 0.74791 (Simulation time: 2 hr 41 min 23 sec) 
Heartbeat CPU 4 instructions: 210000002 cycles: 475747524 heartbeat IPC: 0.386603 cumulative IPC: 0.39039 (Simulation time: 2 hr 41 min 29 sec) 
Heartbeat CPU 2 instructions: 540000000 cycles: 476373988 heartbeat IPC: 0.964366 cumulative IPC: 1.09291 (Simulation time: 2 hr 41 min 41 sec) 
Heartbeat CPU 1 instructions: 550000001 cycles: 477738307 heartbeat IPC: 1.12043 cumulative IPC: 1.11012 (Simulation time: 2 hr 42 min 7 sec) 
Heartbeat CPU 7 instructions: 380000000 cycles: 480785046 heartbeat IPC: 0.649489 cumulative IPC: 0.740854 (Simulation time: 2 hr 43 min 5 sec) 
Heartbeat CPU 3 instructions: 120000000 cycles: 484780418 heartbeat IPC: 0.211216 cumulative IPC: 0.212738 (Simulation time: 2 hr 44 min 16 sec) 
Finished CPU 3 instructions: 100000000 cycles: 470062747 cumulative IPC: 0.212738 (Simulation time: 2 hr 44 min 16 sec) 

CPU 0 Branch Prediction Accuracy: 86.327% MPKI: 15.5709

CPU 1 Branch Prediction Accuracy: 91.9008% MPKI: 11.1929

CPU 2 Branch Prediction Accuracy: 91.9939% MPKI: 11.052

CPU 3 Branch Prediction Accuracy: 96.7737% MPKI: 4.7978

CPU 4 Branch Prediction Accuracy: 97.1007% MPKI: 0.493173

CPU 5 Branch Prediction Accuracy: 98.4862% MPKI: 1.88415

CPU 6 Branch Prediction Accuracy: 99.2515% MPKI: 1.60724

CPU 7 Branch Prediction Accuracy: 99.9331% MPKI: 0.167357

ChampSim completed all CPUs

Total Simulation Statistics (not including warmup)

CPU 0 cumulative IPC: 0.430155 instructions: 202199647 cycles: 470062747
L1D TOTAL     ACCESS:   66523209  HIT:   65638284  MISS:     884925
L1D LOAD      ACCESS:   41961172  HIT:   41335158  MISS:     626014
L1D RFO       ACCESS:   24562037  HIT:   24303126  MISS:     258911
L1D PREFETCH  ACCESS:          0  HIT:          0  MISS:          0
L1D WRITEBACK ACCESS:          0  HIT:          0  MISS:          0
L1I TOTAL     ACCESS:   48060710  HIT:   47986540  MISS:      74170
L1I LOAD      ACCESS:   48060710  HIT:   47986540  MISS:      74170
L1I RFO       ACCESS:          0  HIT:          0  MISS:          0
L1I PREFETCH  ACCESS:          0  HIT:          0  MISS:          0
L1I WRITEBACK ACCESS:          0  HIT:          0  MISS:          0
L2C TOTAL     ACCESS:    1337864  HIT:    1287705  MISS:      50159
L2C LOAD      ACCESS:     700181  HIT:     672380  MISS:      27801
L2C RFO       ACCESS:     258902  HIT:     236602  MISS:      22300
L2C PREFETCH  ACCESS:          0  HIT:          0  MISS:          0
L2C WRITEBACK ACCESS:     378781  HIT:     378723  MISS:         58
LLC TOTAL     ACCESS:      74491  HIT:      32895  MISS:      41596
LLC LOAD      ACCESS:      27801  HIT:      12028  MISS:      15773
LLC RFO       ACCESS:      22300  HIT:        334  MISS:      21966
LLC PREFETCH  ACCESS:          0  HIT:          0  MISS:          0
LLC WRITEBACK ACCESS:      24390  HIT:      20533  MISS:       3857

CPU 1 cumulative IPC: 1.10988 instructions: 521712364 cycles: 470062747
L1D TOTAL     ACCESS:   91268687  HIT:   91205140  MISS:      63547
L1D LOAD      ACCESS:   71833280  HIT:   71825027  MISS:       8253
L1D RFO       ACCESS:   19435407  HIT:   19380113  MISS:      55294
L1D PREFETCH  ACCESS:          0  HIT:          0  MISS:          0
L1D WRITEBACK ACCESS:          0  HIT:          0  MISS:          0
L1I TOTAL     ACCESS:  126474285  HIT:  126474285  MISS:          0
L1I LOAD      ACCESS:  126474285  HIT:  126474285  MISS:          0
L1I RFO       ACCESS:          0  HIT:          0  MISS:          0
L1I PREFETCH  ACCESS:          0  HIT:          0  MISS:          0
L1I WRITEBACK ACCESS:          0  HIT:          0  MISS:          0
L2C TOTAL     ACCESS:     118862  HIT:      61972  MISS:      56890
L2C LOAD      ACCESS:       8250  HIT:       3016  MISS:       5234
L2C RFO       ACCESS:      55294  HIT:       3755  MISS:      51539
L2C PREFETCH  ACCESS:          0  HIT:          0  MISS:          0
L2C WRITEBACK ACCESS:      55318  HIT:      55201  MISS:        117
LLC TOTAL     ACCESS:     108460  HIT:       2316  MISS:     106144
LLC LOAD      ACCESS:       5234  HIT:          0  MISS:       5234
LLC RFO       ACCESS:      51539  HIT:          1  MISS:      51538
LLC PREFETCH  ACCESS:          0  HIT:          0  MISS:          0
LLC WRITEBACK ACCESS:      51687  HIT:       2315  MISS:      49372

CPU 2 cumulative IPC: 1.09355 instructions: 514038558 cycles: 470062747
L1D TOTAL     ACCESS:   89492889  HIT:   89379319  MISS:     113570
L1D LOAD      ACCESS:   69907225  HIT:   69886429  MISS:      20796
L1D RFO       ACCESS:   19585664  HIT:   19492890  MISS:      92774
L1D PREFETCH  ACCESS:          0  HIT:          0  MISS:          0
L1D WRITEBACK ACCESS:          0  HIT:          0  MISS:          0
L1I TOTAL     ACCESS:  125035725  HIT:  125035725  MISS:          0
L1I LOAD      ACCESS:  125035725  HIT:  125035725  MISS:          0
L1I RFO       ACCESS:          0  HIT:          0  MISS:          0
L1I PREFETCH  ACCESS:          0  HIT:          0  MISS:          0
L1I WRITEBACK ACCESS:          0  HIT:          0  MISS:          0
L2C TOTAL     ACCESS:     206534  HIT:     100004  MISS:     106530
L2C LOAD      ACCESS:      20796  HIT:       3010  MISS:      17786
L2C RFO       ACCESS:      92774  HIT:       4185  MISS:      88589
L2C PREFETCH  ACCESS:          0  HIT:          0  MISS:          0
L2C WRITEBACK ACCESS:      92964  HIT:      92809  MISS:        155
LLC TOTAL     ACCESS:     195031  HIT:      42668  MISS:     152363
LLC LOAD      ACCESS:      17786  HIT:          0  MISS:      17786
LLC RFO       ACCESS:      88589  HIT:         55  MISS:      88534
LLC PREFETCH  ACCESS:          0  HIT:          0  MISS:          0
LLC WRITEBACK ACCESS:      88656  HIT:      42613  MISS:      46043

CPU 3 cumulative IPC: 0.212738 instructions: 100000000 cycles: 470062747
L1D TOTAL     ACCESS:   44130559  HIT:   42145445  MISS:    1985114
L1D LOAD      ACCESS:   26086293  HIT:   24350806  MISS:    1735487
L1D RFO       ACCESS:   18044266  HIT:   17794639  MISS:     249627
L1D PREFETCH  ACCESS:          0  HIT:          0  MISS:          0
L1D WRITEBACK ACCESS:          0  HIT:          0  MISS:          0
L1I TOTAL     ACCESS:   35509952  HIT:   35472902  MISS:      37050
L1I LOAD      ACCESS:   35509952  HIT:   35472902  MISS:      37050
L1I RFO       ACCESS:          0  HIT:          0  MISS:          0
L1I PREFETCH  ACCESS:          0  HIT:          0  MISS:          0
L1I WRITEBACK ACCESS:          0  HIT:          0  MISS:          0
L2C TOTAL     ACCESS:    2984568  HIT:    1544500  MISS:    1440068
L2C LOAD      ACCESS:    1772486  HIT:     537241  MISS:    1235245
L2C RFO       ACCESS:     249618  HIT:      47792  MISS:     201826
L2C PREFETCH  ACCESS:          0  HIT:          0  MISS:          0
L2C WRITEBACK ACCESS:     962464  HIT:     959467  MISS:       2997
LLC TOTAL     ACCESS:    2160396  HIT:    1167301  MISS:     993095
LLC LOAD      ACCESS:    1235242  HIT:     358044  MISS:     877198
LLC RFO       ACCESS:     201823  HIT:      87613  MISS:     114210
LLC PREFETCH  ACCESS:          0  HIT:          0  MISS:          0
LLC WRITEBACK ACCESS:     723331  HIT:     721644  MISS:       1687

CPU 4 cumulative IPC: 0.390421 instructions: 183522172 cycles: 470062748
L1D TOTAL     ACCESS:   52376776  HIT:   37978354  MISS:   14398422
L1D LOAD      ACCESS:   18684320  HIT:   16501145  MISS:    2183175
L1D RFO       ACCESS:   33692456  HIT:   21477209  MISS:   12215247
L1D PREFETCH  ACCESS:          0  HIT:          0  MISS:          0
L1D WRITEBACK ACCESS:          0  HIT:          0  MISS:          0
L1I TOTAL     ACCESS:   44160581  HIT:   44160581  MISS:          0
L1I LOAD      ACCESS:   44160581  HIT:   44160581  MISS:          0
L1I RFO       ACCESS:          0  HIT:          0  MISS:          0
L1I PREFETCH  ACCESS:          0  HIT:          0  MISS:          0
L1I WRITEBACK ACCESS:          0  HIT:          0  MISS:          0
L2C TOTAL     ACCESS:   26613657  HIT:   15786684  MISS:   10826973
L2C LOAD      ACCESS:    2183174  HIT:       1089  MISS:    2182085
L2C RFO       ACCESS:   12215238  HIT:    3573639  MISS:    8641599
L2C PREFETCH  ACCESS:          0  HIT:          0  MISS:          0
L2C WRITEBACK ACCESS:   12215245  HIT:   12211956  MISS:       3289
LLC TOTAL     ACCESS:   19463664  HIT:   10742181  MISS:    8721483
LLC LOAD      ACCESS:    2182085  HIT:       1749  MISS:    2180336
LLC RFO       ACCESS:    8636906  HIT:    2095976  MISS:    6540930
LLC PREFETCH  ACCESS:          0  HIT:          0  MISS:          0
LLC WRITEBACK ACCESS:    8644673  HIT:    8644456  MISS:        217

CPU 5 cumulative IPC: 0.748028 instructions: 351620316 cycles: 470062748
L1D TOTAL     ACCESS:  132466662  HIT:  132405714  MISS:      60948
L1D LOAD      ACCESS:   56445464  HIT:   56387489  MISS:      57975
L1D RFO       ACCESS:   76021198  HIT:   76018225  MISS:       2973
L1D PREFETCH  ACCESS:          0  HIT:          0  MISS:          0
L1D WRITEBACK ACCESS:          0  HIT:          0  MISS:          0
L1I TOTAL     ACCESS:   94378622  HIT:   94368843  MISS:       9779
L1I LOAD      ACCESS:   94378622  HIT:   94368843  MISS:       9779
L1I RFO       ACCESS:          0  HIT:          0  MISS:          0
L1I PREFETCH  ACCESS:          0  HIT:          0  MISS:          0
L1I WRITEBACK ACCESS:          0  HIT:          0  MISS:          0
L2C TOTAL     ACCESS:      80754  HIT:      61914  MISS:      18840
L2C LOAD      ACCESS:      67734  HIT:      50744  MISS:      16990
L2C RFO       ACCESS:       2973  HIT:       1201  MISS:       1772
L2C PREFETCH  ACCESS:          0  HIT:          0  MISS:          0
L2C WRITEBACK ACCESS:      10047  HIT:       9969  MISS:         78
LLC TOTAL     ACCESS:      21724  HIT:         24  MISS:      21700
LLC LOAD      ACCESS:      16990  HIT:          7  MISS:      16983
LLC RFO       ACCESS:       1772  HIT:         10  MISS:       1762
LLC PREFETCH  ACCESS:          0  HIT:          0  MISS:          0
LLC WRITEBACK ACCESS:       2962  HIT:          7  MISS:       2955

CPU 6 cumulative IPC: 0.224808 instructions: 105673670 cycles: 470062748
L1D TOTAL     ACCESS:   24640333  HIT:   21663338  MISS:    2976995
L1D LOAD      ACCESS:   19718237  HIT:   16804932  MISS:    2913305
L1D RFO       ACCESS:    4922096  HIT:    4858406  MISS:      63690
L1D PREFETCH  ACCESS:          0  HIT:          0  MISS:          0
L1D WRITEBACK ACCESS:          0  HIT:          0  MISS:          0
L1I TOTAL     ACCESS:   33822054  HIT:   33451734  MISS:     370320
L1I LOAD      ACCESS:   33822054  HIT:   33451734  MISS:     370320
L1I RFO       ACCESS:          0  HIT:          0  MISS:          0
L1I PREFETCH  ACCESS:          0  HIT:          0  MISS:          0
L1I WRITEBACK ACCESS:          0  HIT:          0  MISS:          0
L2C TOTAL     ACCESS:    3479402  HIT:     683925  MISS:    2795477
L2C LOAD      ACCESS:    3283558  HIT:     521066  MISS:    2762492
L2C RFO       ACCESS:      63683  HIT:      31370  MISS:      32313
L2C PREFETCH  ACCESS:          0  HIT:          0  MISS:          0
L2C WRITEBACK ACCESS:     132161  HIT:     131489  MISS:        672
LLC TOTAL     ACCESS:    2849679  HIT:    1318884  MISS:    1530795
LLC LOAD      ACCESS:    2762486  HIT:    1253389  MISS:    1509097
LLC RFO       ACCESS:      32313  HIT:      10734  MISS:      21579
LLC PREFETCH  ACCESS:          0  HIT:          0  MISS:          0
LLC WRITEBACK ACCESS:      54880  HIT:      54761  MISS:        119

CPU 7 cumulative IPC: 0.740057 instructions: 347873194 cycles: 470062748
L1D TOTAL     ACCESS:   69704223  HIT:   62065763  MISS:    7638460
L1D LOAD      ACCESS:   63944263  HIT:   56319472  MISS:    7624791
L1D RFO       ACCESS:    5759960  HIT:    5746291  MISS:      13669
L1D PREFETCH  ACCESS:          0  HIT:          0  MISS:          0
L1D WRITEBACK ACCESS:          0  HIT:          0  MISS:          0
L1I TOTAL     ACCESS:  121605011  HIT:  121604919  MISS:         92
L1I LOAD      ACCESS:  121605011  HIT:  121604919  MISS:         92
L1I RFO       ACCESS:          0  HIT:          0  MISS:          0
L1I PREFETCH  ACCESS:          0  HIT:          0  MISS:          0
L1I WRITEBACK ACCESS:          0  HIT:          0  MISS:          0
L2C TOTAL     ACCESS:    7658324  HIT:    1781689  MISS:    5876635
L2C LOAD      ACCESS:    7624881  HIT:    1760040  MISS:    5864841
L2C RFO       ACCESS:      13669  HIT:       1876  MISS:      11793
L2C PREFETCH  ACCESS:          0  HIT:          0  MISS:          0
L2C WRITEBACK ACCESS:      19774  HIT:      19773  MISS:          1
LLC TOTAL     ACCESS:    5892156  HIT:    5867105  MISS:      25051
LLC LOAD      ACCESS:    5864841  HIT:    5851942  MISS:      12899
LLC RFO       ACCESS:      11793  HIT:       3561  MISS:       8232
LLC PREFETCH  ACCESS:          0  HIT:          0  MISS:          0
LLC WRITEBACK ACCESS:      15522  HIT:      11602  MISS:       3920

Region of Interest Statistics

CPU 0 cumulative IPC: 0.432423 instructions: 100000000 cycles: 231254877
L1D TOTAL     ACCESS:   32889057  HIT:   32479870  MISS:     409187
L1D LOAD      ACCESS:   20763940  HIT:   20470244  MISS:     293696
L1D RFO       ACCESS:   12125117  HIT:   12009626  MISS:     115491
L1D PREFETCH  ACCESS:          0  HIT:          0  MISS:          0
L1D WRITEBACK ACCESS:          0  HIT:          0  MISS:          0
L1D PREFETCH  REQUESTED:          0  ISSUED:          0  USEFUL:          0  USELESS:          0
L1I TOTAL     ACCESS:   23672129  HIT:   23636907  MISS:      35222
L1I LOAD      ACCESS:   23672129  HIT:   23636907  MISS:      35222
L1I RFO       ACCESS:          0  HIT:          0  MISS:          0
L1I PREFETCH  ACCESS:          0  HIT:          0  MISS:          0
L1I WRITEBACK ACCESS:          0  HIT:          0  MISS:          0
L1I PREFETCH  REQUESTED:          0  ISSUED:          0  USEFUL:          0  USELESS:          0
L2C TOTAL     ACCESS:     619383  HIT:     616449  MISS:       2934
L2C LOAD      ACCESS:     328917  HIT:     326637  MISS:       2280
L2C RFO       ACCESS:     115484  HIT:     114849  MISS:        635
L2C PREFETCH  ACCESS:          0  HIT:          0  MISS:          0
L2C WRITEBACK ACCESS:     174982  HIT:     174963  MISS:         19
L2C PREFETCH  REQUESTED:          0  ISSUED:          0  USEFUL:          0  USELESS:          0
LLC TOTAL     ACCESS:       3685  HIT:        336  MISS:       3349
LLC LOAD      ACCESS:       2280  HIT:        240  MISS:       2040
LLC RFO       ACCESS:        635  HIT:          5  MISS:        630
LLC PREFETCH  ACCESS:          0  HIT:          0  MISS:          0
LLC WRITEBACK ACCESS:        770  HIT:         91  MISS:        679
LLC PREFETCH  REQUESTED:          0  ISSUED:          0  USEFUL:          0  USELESS:          0
Major fault: 0 Minor fault: 1442

CPU 1 cumulative IPC: 1.13596 instructions: 100000002 cycles: 88031102
L1D TOTAL     ACCESS:   17190326  HIT:   17187726  MISS:       2600
L1D LOAD      ACCESS:   13862949  HIT:   13862622  MISS:        327
L1D RFO       ACCESS:    3327377  HIT:    3325104  MISS:       2273
L1D PREFETCH  ACCESS:          0  HIT:          0  MISS:          0
L1D WRITEBACK ACCESS:          0  HIT:          0  MISS:          0
L1D PREFETCH  REQUESTED:          0  ISSUED:          0  USEFUL:          0  USELESS:          0
L1I TOTAL     ACCESS:   24262374  HIT:   24262374  MISS:          0
L1I LOAD      ACCESS:   24262374  HIT:   24262374  MISS:          0
L1I RFO       ACCESS:          0  HIT:          0  MISS:          0
L1I PREFETCH  ACCESS:          0  HIT:          0  MISS:          0
L1I WRITEBACK ACCESS:          0  HIT:          0  MISS:          0
L1I PREFETCH  REQUESTED:          0  ISSUED:          0  USEFUL:          0  USELESS:          0
L2C TOTAL     ACCESS:       4881  HIT:       2607  MISS:       2274
L2C LOAD      ACCESS:        327  HIT:        121  MISS:        206
L2C RFO       ACCESS:       2273  HIT:        205  MISS:       2068
L2C PREFETCH  ACCESS:          0  HIT:          0  MISS:          0
L2C WRITEBACK ACCESS:       2281  HIT:       2281  MISS:          0
L2C PREFETCH  REQUESTED:          0  ISSUED:          0  USEFUL:          0  USELESS:          0
LLC TOTAL     ACCESS:       4369  HIT:          0  MISS:       4369
LLC LOAD      ACCESS:        206  HIT:          0  MISS:        206
LLC RFO       ACCESS:       2068  HIT:          0  MISS:       2068
LLC PREFETCH  ACCESS:          0  HIT:          0  MISS:          0
LLC WRITEBACK ACCESS:       2095  HIT:          0  MISS:       2095
LLC PREFETCH  REQUESTED:          0  ISSUED:          0  USEFUL:          0  USELESS:          0
Major fault: 0 Minor fault: 1392

CPU 2 cumulative IPC: 1.11663 instructions: 100000003 cycles: 89555073
L1D TOTAL     ACCESS:   17216082  HIT:   17209366  MISS:       6716
L1D LOAD      ACCESS:   13676945  HIT:   13675685  MISS:       1260
L1D RFO       ACCESS:    3539137  HIT:    3533681  MISS:       5456
L1D PREFETCH  ACCESS:          0  HIT:          0  MISS:          0
L1D WRITEBACK ACCESS:          0  HIT:          0  MISS:          0
L1D PREFETCH  REQUESTED:          0  ISSUED:          0  USEFUL:          0  USELESS:          0
L1I TOTAL     ACCESS:   24198903  HIT:   24198903  MISS:          0
L1I LOAD      ACCESS:   24198903  HIT:   24198903  MISS:          0
L1I RFO       ACCESS:          0  HIT:          0  MISS:          0
L1I PREFETCH  ACCESS:          0  HIT:          0  MISS:          0
L1I WRITEBACK ACCESS:          0  HIT:          0  MISS:          0
L1I PREFETCH  REQUESTED:          0  ISSUED:          0  USEFUL:          0  USELESS:          0
L2C TOTAL     ACCESS:      12190  HIT:       6335  MISS:       5855
L2C LOAD      ACCESS:       1260  HIT:        282  MISS:        978
L2C RFO       ACCESS:       5456  HIT:        579  MISS:       4877
L2C PREFETCH  ACCESS:          0  HIT:          0  MISS:          0
L2C WRITEBACK ACCESS:       5474  HIT:       5474  MISS:          0
L2C PREFETCH  REQUESTED:          0  ISSUED:          0  USEFUL:          0  USELESS:          0
LLC TOTAL     ACCESS:      10855  HIT:          0  MISS:      10855
LLC LOAD      ACCESS:        978  HIT:          0  MISS:        978
LLC RFO       ACCESS:       4877  HIT:          0  MISS:       4877
LLC PREFETCH  ACCESS:          0  HIT:          0  MISS:          0
LLC WRITEBACK ACCESS:       5000  HIT:          0  MISS:       5000
LLC PREFETCH  REQUESTED:          0  ISSUED:          0  USEFUL:          0  USELESS:          0
Major fault: 0 Minor fault: 2457

CPU 3 cumulative IPC: 0.212738 instructions: 100000000 cycles: 470062747
L1D TOTAL     ACCESS:   44130559  HIT:   42145445  MISS:    1985114
L1D LOAD      ACCESS:   26086293  HIT:   24350806  MISS:    1735487
L1D RFO       ACCESS:   18044266  HIT:   17794639  MISS:     249627
L1D PREFETCH  ACCESS:          0  HIT:          0  MISS:          0
L1D WRITEBACK ACCESS:          0  HIT:          0  MISS:          0
L1D PREFETCH  REQUESTED:          0  ISSUED:          0  USEFUL:          0  USELESS:          0
L1I TOTAL     ACCESS:   35509952  HIT:   35472902  MISS:      37050
L1I LOAD      ACCESS:   35509952  HIT:   35472902  MISS:      37050
L1I RFO       ACCESS:          0  HIT:          0  MISS:          0
L1I PREFETCH  ACCESS:          0  HIT:          0  MISS:          0
L1I WRITEBACK ACCESS:          0  HIT:          0  MISS:          0
L1I PREFETCH  REQUESTED:          0  ISSUED:          0  USEFUL:          0  USELESS:          0
L2C TOTAL     ACCESS:    2984568  HIT:    1544500  MISS:    1440068
L2C LOAD      ACCESS:    1772486  HIT:     537241  MISS:    1235245
L2C RFO       ACCESS:     249618  HIT:      47792  MISS:     201826
L2C PREFETCH  ACCESS:          0  HIT:          0  MISS:          0
L2C WRITEBACK ACCESS:     962464  HIT:     959467  MISS:       2997
L2C PREFETCH  REQUESTED:          0  ISSUED:          0  USEFUL:          0  USELESS:          0
LLC TOTAL     ACCESS:    2160396  HIT:    1167301  MISS:     993095
LLC LOAD      ACCESS:    1235242  HIT:     358044  MISS:     877198
LLC RFO       ACCESS:     201823  HIT:      87613  MISS:     114210
LLC PREFETCH  ACCESS:          0  HIT:          0  MISS:          0
LLC WRITEBACK ACCESS:     723331  HIT:     721644  MISS:       1687
LLC PREFETCH  REQUESTED:          0  ISSUED:          0  USEFUL:          0  USELESS:          0
Major fault: 0 Minor fault: 46311

CPU 4 cumulative IPC: 0.39033 instructions: 100000001 cycles: 256193659
L1D TOTAL     ACCESS:   28557758  HIT:   20686444  MISS:    7871314
L1D LOAD      ACCESS:   10177612  HIT:    8984211  MISS:    1193401
L1D RFO       ACCESS:   18380146  HIT:   11702233  MISS:    6677913
L1D PREFETCH  ACCESS:          0  HIT:          0  MISS:          0
L1D WRITEBACK ACCESS:          0  HIT:          0  MISS:          0
L1D PREFETCH  REQUESTED:          0  ISSUED:          0  USEFUL:          0  USELESS:          0
L1I TOTAL     ACCESS:   24067623  HIT:   24067623  MISS:          0
L1I LOAD      ACCESS:   24067623  HIT:   24067623  MISS:          0
L1I RFO       ACCESS:          0  HIT:          0  MISS:          0
L1I PREFETCH  ACCESS:          0  HIT:          0  MISS:          0
L1I WRITEBACK ACCESS:          0  HIT:          0  MISS:          0
L1I PREFETCH  REQUESTED:          0  ISSUED:          0  USEFUL:          0  USELESS:          0
L2C TOTAL     ACCESS:   14549217  HIT:    8632610  MISS:    5916607
L2C LOAD      ACCESS:    1193400  HIT:        476  MISS:    1192924
L2C RFO       ACCESS:    6677909  HIT:    1955928  MISS:    4721981
L2C PREFETCH  ACCESS:          0  HIT:          0  MISS:          0
L2C WRITEBACK ACCESS:    6677908  HIT:    6676206  MISS:       1702
L2C PREFETCH  REQUESTED:          0  ISSUED:          0  USEFUL:          0  USELESS:          0
LLC TOTAL     ACCESS:   10636881  HIT:    5868747  MISS:    4768134
LLC LOAD      ACCESS:    1192924  HIT:        904  MISS:    1192020
LLC RFO       ACCESS:    4719608  HIT:    1143614  MISS:    3575994
LLC PREFETCH  ACCESS:          0  HIT:          0  MISS:          0
LLC WRITEBACK ACCESS:    4724349  HIT:    4724229  MISS:        120
LLC PREFETCH  REQUESTED:          0  ISSUED:          0  USEFUL:          0  USELESS:          0
Major fault: 0 Minor fault: 82320

CPU 5 cumulative IPC: 0.788855 instructions: 100000000 cycles: 126766079
L1D TOTAL     ACCESS:   37867124  HIT:   37853891  MISS:      13233
L1D LOAD      ACCESS:   15784220  HIT:   15771609  MISS:      12611
L1D RFO       ACCESS:   22082904  HIT:   22082282  MISS:        622
L1D PREFETCH  ACCESS:          0  HIT:          0  MISS:          0
L1D WRITEBACK ACCESS:          0  HIT:          0  MISS:          0
L1D PREFETCH  REQUESTED:          0  ISSUED:          0  USEFUL:          0  USELESS:          0
L1I TOTAL     ACCESS:   27045062  HIT:   27043305  MISS:       1757
L1I LOAD      ACCESS:   27045062  HIT:   27043305  MISS:       1757
L1I RFO       ACCESS:          0  HIT:          0  MISS:          0
L1I PREFETCH  ACCESS:          0  HIT:          0  MISS:          0
L1I WRITEBACK ACCESS:          0  HIT:          0  MISS:          0
L1I PREFETCH  REQUESTED:          0  ISSUED:          0  USEFUL:          0  USELESS:          0
L2C TOTAL     ACCESS:      17098  HIT:      13377  MISS:       3721
L2C LOAD      ACCESS:      14365  HIT:      11025  MISS:       3340
L2C RFO       ACCESS:        622  HIT:        250  MISS:        372
L2C PREFETCH  ACCESS:          0  HIT:          0  MISS:          0
L2C WRITEBACK ACCESS:       2111  HIT:       2102  MISS:          9
L2C PREFETCH  REQUESTED:          0  ISSUED:          0  USEFUL:          0  USELESS:          0
LLC TOTAL     ACCESS:       4025  HIT:          1  MISS:       4024
LLC LOAD      ACCESS:       3340  HIT:          0  MISS:       3340
LLC RFO       ACCESS:        372  HIT:          1  MISS:        371
LLC PREFETCH  ACCESS:          0  HIT:          0  MISS:          0
LLC WRITEBACK ACCESS:        313  HIT:          0  MISS:        313
LLC PREFETCH  REQUESTED:          0  ISSUED:          0  USEFUL:          0  USELESS:          0
Major fault: 0 Minor fault: 1657

CPU 6 cumulative IPC: 0.224698 instructions: 100000003 cycles: 445042194
L1D TOTAL     ACCESS:   23323481  HIT:   20512012  MISS:    2811469
L1D LOAD      ACCESS:   18659216  HIT:   15908193  MISS:    2751023
L1D RFO       ACCESS:    4664265  HIT:    4603819  MISS:      60446
L1D PREFETCH  ACCESS:          0  HIT:          0  MISS:          0
L1D WRITEBACK ACCESS:          0  HIT:          0  MISS:          0
L1D PREFETCH  REQUESTED:          0  ISSUED:          0  USEFUL:          0  USELESS:          0
L1I TOTAL     ACCESS:   31986823  HIT:   31634404  MISS:     352419
L1I LOAD      ACCESS:   31986823  HIT:   31634404  MISS:     352419
L1I RFO       ACCESS:          0  HIT:          0  MISS:          0
L1I PREFETCH  ACCESS:          0  HIT:          0  MISS:          0
L1I WRITEBACK ACCESS:          0  HIT:          0  MISS:          0
L1I PREFETCH  REQUESTED:          0  ISSUED:          0  USEFUL:          0  USELESS:          0
L2C TOTAL     ACCESS:    3288775  HIT:     648921  MISS:    2639854
L2C LOAD      ACCESS:    3103385  HIT:     494766  MISS:    2608619
L2C RFO       ACCESS:      60439  HIT:      29846  MISS:      30593
L2C PREFETCH  ACCESS:          0  HIT:          0  MISS:          0
L2C WRITEBACK ACCESS:     124951  HIT:     124309  MISS:        642
L2C PREFETCH  REQUESTED:          0  ISSUED:          0  USEFUL:          0  USELESS:          0
LLC TOTAL     ACCESS:    2690156  HIT:    1230417  MISS:    1459739
LLC LOAD      ACCESS:    2608613  HIT:    1169526  MISS:    1439087
LLC RFO       ACCESS:      30593  HIT:      10055  MISS:      20538
LLC PREFETCH  ACCESS:          0  HIT:          0  MISS:          0
LLC WRITEBACK ACCESS:      50950  HIT:      50836  MISS:        114
LLC PREFETCH  REQUESTED:          0  ISSUED:          0  USEFUL:          0  USELESS:          0
Major fault: 0 Minor fault: 11148

CPU 7 cumulative IPC: 0.773924 instructions: 100000002 cycles: 129211718
L1D TOTAL     ACCESS:   18748508  HIT:   16846156  MISS:    1902352
L1D LOAD      ACCESS:   17437072  HIT:   15535291  MISS:    1901781
L1D RFO       ACCESS:    1311436  HIT:    1310865  MISS:        571
L1D PREFETCH  ACCESS:          0  HIT:          0  MISS:          0
L1D WRITEBACK ACCESS:          0  HIT:          0  MISS:          0
L1D PREFETCH  REQUESTED:          0  ISSUED:          0  USEFUL:          0  USELESS:          0
L1I TOTAL     ACCESS:   35244796  HIT:   35244796  MISS:          0
L1I LOAD      ACCESS:   35244796  HIT:   35244796  MISS:          0
L1I RFO       ACCESS:          0  HIT:          0  MISS:          0
L1I PREFETCH  ACCESS:          0  HIT:          0  MISS:          0
L1I WRITEBACK ACCESS:          0  HIT:          0  MISS:          0
L1I PREFETCH  REQUESTED:          0  ISSUED:          0  USEFUL:          0  USELESS:          0
L2C TOTAL     ACCESS:    1903191  HIT:       1224  MISS:    1901967
L2C LOAD      ACCESS:    1901781  HIT:        385  MISS:    1901396
L2C RFO       ACCESS:        571  HIT:          0  MISS:        571
L2C PREFETCH  ACCESS:          0  HIT:          0  MISS:          0
L2C WRITEBACK ACCESS:        839  HIT:        839  MISS:          0
L2C PREFETCH  REQUESTED:          0  ISSUED:          0  USEFUL:          0  USELESS:          0
LLC TOTAL     ACCESS:    1902807  HIT:    1901739  MISS:       1068
LLC LOAD      ACCESS:    1901397  HIT:    1900680  MISS:        717
LLC RFO       ACCESS:        571  HIT:        220  MISS:        351
LLC PREFETCH  ACCESS:          0  HIT:          0  MISS:          0
LLC WRITEBACK ACCESS:        839  HIT:        839  MISS:          0
LLC PREFETCH  REQUESTED:          0  ISSUED:          0  USEFUL:          0  USELESS:          0
Major fault: 0 Minor fault: 2122

DRAM Statistics
 CHANNEL 0
 RQ ROW_BUFFER_HIT:    1174964  ROW_BUFFER_MISS:    4567269
 DBUS_CONGESTED:   10771821
 WQ ROW_BUFFER_HIT:     321870  ROW_BUFFER_MISS:    3277944  FULL:          0

 CHANNEL 1
 RQ ROW_BUFFER_HIT:    1176230  ROW_BUFFER_MISS:    4565542
 DBUS_CONGESTED:   10771821
 WQ ROW_BUFFER_HIT:     322016  ROW_BUFFER_MISS:    3276020  FULL:          0

 AVG_CONGESTED_CYCLE: 13
