
*** ChampSim Multicore Out-of-Order Simulator ***

Warmup Instructions: 20000000
Simulation Instructions: 100000000
Number of CPUs: 8
LLC sets: 16384
LLC ways: 16
Off-chip DRAM Size: 8192 MB Channels: 2 Width: 64-bit Data Rate: 1600 MT/s

CPU 0 runs /scratch/user/djimenez/champsim-traces/speccpu2017/xz/600.perlbench_s/600.perlbench_s-1273B.champsimtrace.xz
CPU 1 runs /scratch/user/djimenez/champsim-traces/speccpu2017/xz/654.roms_s/654.roms_s-1021B.champsimtrace.xz
CPU 2 runs /scratch/user/djimenez/champsim-traces/speccpu2017/xz/605.mcf_s/605.mcf_s-1644B.champsimtrace.xz
CPU 3 runs /scratch/user/djimenez/champsim-traces/speccpu2017/xz/602.gcc_s/602.gcc_s-2375B.champsimtrace.xz
CPU 4 runs /scratch/user/djimenez/champsim-traces/speccpu2017/xz/648.exchange2_s/648.exchange2_s-210B.champsimtrace.xz
CPU 5 runs /scratch/user/djimenez/champsim-traces/speccpu2017/xz/623.xalancbmk_s/623.xalancbmk_s-325B.champsimtrace.xz
CPU 6 runs /scratch/user/djimenez/champsim-traces/speccpu2017/xz/600.perlbench_s/600.perlbench_s-210B.champsimtrace.xz
CPU 7 runs /scratch/user/djimenez/champsim-traces/speccpu2017/xz/623.xalancbmk_s/623.xalancbmk_s-10B.champsimtrace.xz
Heartbeat CPU 1 instructions: 10000003 cycles: 3951252 heartbeat IPC: 2.53084 cumulative IPC: 2.53084 (Simulation time: 0 hr 3 min 27 sec) 
Heartbeat CPU 4 instructions: 10000002 cycles: 4421690 heartbeat IPC: 2.26158 cumulative IPC: 2.26158 (Simulation time: 0 hr 3 min 54 sec) 
Heartbeat CPU 7 instructions: 10000001 cycles: 4868639 heartbeat IPC: 2.05396 cumulative IPC: 2.05396 (Simulation time: 0 hr 4 min 20 sec) 
Heartbeat CPU 6 instructions: 10000002 cycles: 5617921 heartbeat IPC: 1.78002 cumulative IPC: 1.78002 (Simulation time: 0 hr 5 min 5 sec) 
Heartbeat CPU 0 instructions: 10000003 cycles: 5916989 heartbeat IPC: 1.69005 cumulative IPC: 1.69005 (Simulation time: 0 hr 5 min 23 sec) 
Heartbeat CPU 5 instructions: 10000000 cycles: 6121508 heartbeat IPC: 1.63358 cumulative IPC: 1.63358 (Simulation time: 0 hr 5 min 40 sec) 
Heartbeat CPU 3 instructions: 10000002 cycles: 6796272 heartbeat IPC: 1.4714 cumulative IPC: 1.4714 (Simulation time: 0 hr 6 min 20 sec) 
Heartbeat CPU 1 instructions: 20000000 cycles: 7895144 heartbeat IPC: 2.53557 cumulative IPC: 2.5332 (Simulation time: 0 hr 7 min 26 sec) 
Heartbeat CPU 4 instructions: 20000000 cycles: 8806133 heartbeat IPC: 2.28079 cumulative IPC: 2.27114 (Simulation time: 0 hr 8 min 17 sec) 
Heartbeat CPU 7 instructions: 20000000 cycles: 9654722 heartbeat IPC: 2.08939 cumulative IPC: 2.07153 (Simulation time: 0 hr 8 min 56 sec) 
Heartbeat CPU 2 instructions: 10000002 cycles: 10594972 heartbeat IPC: 0.943844 cumulative IPC: 0.943844 (Simulation time: 0 hr 9 min 38 sec) 
Heartbeat CPU 6 instructions: 20000000 cycles: 11504362 heartbeat IPC: 1.69882 cumulative IPC: 1.73847 (Simulation time: 0 hr 10 min 18 sec) 
Heartbeat CPU 0 instructions: 20000000 cycles: 11738785 heartbeat IPC: 1.71768 cumulative IPC: 1.70375 (Simulation time: 0 hr 10 min 28 sec) 
Heartbeat CPU 1 instructions: 30000001 cycles: 11836558 heartbeat IPC: 2.53716 cumulative IPC: 0.84484 (Simulation time: 0 hr 10 min 33 sec) 
Heartbeat CPU 5 instructions: 20000000 cycles: 12327929 heartbeat IPC: 1.61123 cumulative IPC: 1.62233 (Simulation time: 0 hr 10 min 54 sec) 
Heartbeat CPU 4 instructions: 30000000 cycles: 13155307 heartbeat IPC: 2.29929 cumulative IPC: 0.760149 (Simulation time: 0 hr 11 min 31 sec) 
Heartbeat CPU 3 instructions: 20000000 cycles: 13349454 heartbeat IPC: 1.52598 cumulative IPC: 1.49819 (Simulation time: 0 hr 11 min 40 sec) 
Heartbeat CPU 7 instructions: 30000000 cycles: 14542925 heartbeat IPC: 2.04574 cumulative IPC: 0.68762 (Simulation time: 0 hr 12 min 31 sec) 
Heartbeat CPU 1 instructions: 40000000 cycles: 15775876 heartbeat IPC: 2.53851 cumulative IPC: 1.26776 (Simulation time: 0 hr 13 min 21 sec) 
Heartbeat CPU 6 instructions: 30000002 cycles: 17393884 heartbeat IPC: 1.69793 cumulative IPC: 0.574915 (Simulation time: 0 hr 14 min 27 sec) 
Heartbeat CPU 4 instructions: 40000000 cycles: 17485208 heartbeat IPC: 2.30952 cumulative IPC: 1.14382 (Simulation time: 0 hr 14 min 31 sec) 
Heartbeat CPU 0 instructions: 30000001 cycles: 17614571 heartbeat IPC: 1.7019 cumulative IPC: 0.567712 (Simulation time: 0 hr 14 min 37 sec) 
Heartbeat CPU 5 instructions: 30000001 cycles: 18679946 heartbeat IPC: 1.5743 cumulative IPC: 0.535334 (Simulation time: 0 hr 15 min 21 sec) 
Heartbeat CPU 7 instructions: 40000000 cycles: 19454434 heartbeat IPC: 2.03603 cumulative IPC: 1.02804 (Simulation time: 0 hr 15 min 52 sec) 
Heartbeat CPU 1 instructions: 50000000 cycles: 19713389 heartbeat IPC: 2.53967 cumulative IPC: 1.52181 (Simulation time: 0 hr 16 min 3 sec) 
Heartbeat CPU 3 instructions: 30000001 cycles: 20210218 heartbeat IPC: 1.45756 cumulative IPC: 0.494799 (Simulation time: 0 hr 16 min 23 sec) 
Heartbeat CPU 2 instructions: 20000000 cycles: 21118010 heartbeat IPC: 0.950296 cumulative IPC: 0.947059 (Simulation time: 0 hr 17 min 0 sec) 

Warmup complete CPU 0 instructions: 35979522 cycles: 21118013 (Simulation time: 0 hr 17 min 0 sec) 
Warmup complete CPU 1 instructions: 53568171 cycles: 21118013 (Simulation time: 0 hr 17 min 0 sec) 
Warmup complete CPU 2 instructions: 20000001 cycles: 21118013 (Simulation time: 0 hr 17 min 0 sec) 
Warmup complete CPU 3 instructions: 31504811 cycles: 21118012 (Simulation time: 0 hr 17 min 0 sec) 
Warmup complete CPU 4 instructions: 48242575 cycles: 21118012 (Simulation time: 0 hr 17 min 0 sec) 
Warmup complete CPU 5 instructions: 33907912 cycles: 21118012 (Simulation time: 0 hr 17 min 0 sec) 
Warmup complete CPU 6 instructions: 36395801 cycles: 21118012 (Simulation time: 0 hr 17 min 0 sec) 
Warmup complete CPU 7 instructions: 43374596 cycles: 21118012 (Simulation time: 0 hr 17 min 0 sec) 

Heartbeat CPU 4 instructions: 50000002 cycles: 22225824 heartbeat IPC: 2.10943 cumulative IPC: 1.58639 (Simulation time: 0 hr 17 min 24 sec) 
Heartbeat CPU 6 instructions: 40000000 cycles: 25543751 heartbeat IPC: 1.22701 cumulative IPC: 0.814372 (Simulation time: 0 hr 18 min 35 sec) 
Heartbeat CPU 0 instructions: 40000000 cycles: 26347008 heartbeat IPC: 1.14516 cumulative IPC: 0.768882 (Simulation time: 0 hr 18 min 52 sec) 
Heartbeat CPU 1 instructions: 60000000 cycles: 27626439 heartbeat IPC: 1.26374 cumulative IPC: 0.988231 (Simulation time: 0 hr 19 min 21 sec) 
Heartbeat CPU 4 instructions: 60000000 cycles: 28469866 heartbeat IPC: 1.60153 cumulative IPC: 1.59925 (Simulation time: 0 hr 19 min 39 sec) 
Heartbeat CPU 4 instructions: 70000002 cycles: 34778185 heartbeat IPC: 1.58521 cumulative IPC: 1.59276 (Simulation time: 0 hr 21 min 51 sec) 
Heartbeat CPU 5 instructions: 40000000 cycles: 35406058 heartbeat IPC: 0.597867 cumulative IPC: 0.426377 (Simulation time: 0 hr 22 min 4 sec) 
Heartbeat CPU 1 instructions: 70000000 cycles: 37736730 heartbeat IPC: 0.989091 cumulative IPC: 0.988754 (Simulation time: 0 hr 22 min 54 sec) 
Heartbeat CPU 7 instructions: 50000001 cycles: 38371367 heartbeat IPC: 0.528627 cumulative IPC: 0.384007 (Simulation time: 0 hr 23 min 8 sec) 
Heartbeat CPU 6 instructions: 50000001 cycles: 39210844 heartbeat IPC: 0.731685 cumulative IPC: 0.751911 (Simulation time: 0 hr 23 min 27 sec) 
Heartbeat CPU 0 instructions: 50000003 cycles: 39497811 heartbeat IPC: 0.76041 cumulative IPC: 0.76282 (Simulation time: 0 hr 23 min 32 sec) 
Heartbeat CPU 4 instructions: 80000000 cycles: 40999246 heartbeat IPC: 1.60744 cumulative IPC: 1.59736 (Simulation time: 0 hr 24 min 7 sec) 
Heartbeat CPU 3 instructions: 40000000 cycles: 43696028 heartbeat IPC: 0.425789 cumulative IPC: 0.376259 (Simulation time: 0 hr 25 min 9 sec) 
Heartbeat CPU 4 instructions: 90000003 cycles: 47198033 heartbeat IPC: 1.61322 cumulative IPC: 1.60113 (Simulation time: 0 hr 26 min 27 sec) 
Heartbeat CPU 1 instructions: 80000000 cycles: 47844115 heartbeat IPC: 0.989376 cumulative IPC: 0.988989 (Simulation time: 0 hr 26 min 42 sec) 
Heartbeat CPU 5 instructions: 50000001 cycles: 50782846 heartbeat IPC: 0.650331 cumulative IPC: 0.542463 (Simulation time: 0 hr 27 min 49 sec) 
Heartbeat CPU 0 instructions: 60000000 cycles: 51557685 heartbeat IPC: 0.829196 cumulative IPC: 0.789118 (Simulation time: 0 hr 28 min 7 sec) 
Heartbeat CPU 6 instructions: 60000000 cycles: 52834101 heartbeat IPC: 0.734039 cumulative IPC: 0.744234 (Simulation time: 0 hr 28 min 38 sec) 
Heartbeat CPU 4 instructions: 100000000 cycles: 53451728 heartbeat IPC: 1.59905 cumulative IPC: 1.60073 (Simulation time: 0 hr 28 min 53 sec) 
Heartbeat CPU 1 instructions: 90000003 cycles: 57950944 heartbeat IPC: 0.98943 cumulative IPC: 0.98911 (Simulation time: 0 hr 30 min 36 sec) 
Heartbeat CPU 4 instructions: 110000000 cycles: 59850620 heartbeat IPC: 1.56277 cumulative IPC: 1.59446 (Simulation time: 0 hr 31 min 22 sec) 
Heartbeat CPU 6 instructions: 70000001 cycles: 62638870 heartbeat IPC: 1.01991 cumulative IPC: 0.809333 (Simulation time: 0 hr 32 min 25 sec) 
Heartbeat CPU 7 instructions: 60000000 cycles: 63855409 heartbeat IPC: 0.392402 cumulative IPC: 0.389013 (Simulation time: 0 hr 32 min 53 sec) 
Heartbeat CPU 3 instructions: 50000000 cycles: 65424293 heartbeat IPC: 0.46023 cumulative IPC: 0.417439 (Simulation time: 0 hr 33 min 28 sec) 
Heartbeat CPU 0 instructions: 70000002 cycles: 65607860 heartbeat IPC: 0.711735 cumulative IPC: 0.76468 (Simulation time: 0 hr 33 min 31 sec) 
Heartbeat CPU 4 instructions: 120000000 cycles: 66432419 heartbeat IPC: 1.51934 cumulative IPC: 1.58355 (Simulation time: 0 hr 33 min 49 sec) 
Heartbeat CPU 5 instructions: 60000000 cycles: 67850476 heartbeat IPC: 0.585904 cumulative IPC: 0.558329 (Simulation time: 0 hr 34 min 20 sec) 
Heartbeat CPU 1 instructions: 100000000 cycles: 68058467 heartbeat IPC: 0.989362 cumulative IPC: 0.989164 (Simulation time: 0 hr 34 min 25 sec) 
Heartbeat CPU 6 instructions: 80000000 cycles: 72911025 heartbeat IPC: 0.973505 cumulative IPC: 0.841893 (Simulation time: 0 hr 36 min 13 sec) 
Heartbeat CPU 4 instructions: 130000003 cycles: 73004749 heartbeat IPC: 1.52153 cumulative IPC: 1.57569 (Simulation time: 0 hr 36 min 15 sec) 
Heartbeat CPU 0 instructions: 80000000 cycles: 78505226 heartbeat IPC: 0.775352 cumulative IPC: 0.767078 (Simulation time: 0 hr 38 min 13 sec) 
Heartbeat CPU 4 instructions: 140000000 cycles: 79504036 heartbeat IPC: 1.53863 cumulative IPC: 1.57156 (Simulation time: 0 hr 38 min 36 sec) 
Heartbeat CPU 1 instructions: 110000001 cycles: 80321612 heartbeat IPC: 0.815452 cumulative IPC: 0.953182 (Simulation time: 0 hr 38 min 54 sec) 
Finished CPU 4 instructions: 100000002 cycles: 63642536 cumulative IPC: 1.57128 (Simulation time: 0 hr 40 min 34 sec) 
Heartbeat CPU 4 instructions: 150000003 cycles: 85912269 heartbeat IPC: 1.56049 cumulative IPC: 1.57047 (Simulation time: 0 hr 41 min 0 sec) 
Heartbeat CPU 3 instructions: 60000000 cycles: 86054877 heartbeat IPC: 0.484717 cumulative IPC: 0.438814 (Simulation time: 0 hr 41 min 4 sec) 
Heartbeat CPU 6 instructions: 90000000 cycles: 86403885 heartbeat IPC: 0.741133 cumulative IPC: 0.821069 (Simulation time: 0 hr 41 min 12 sec) 
Heartbeat CPU 7 instructions: 70000000 cycles: 88960929 heartbeat IPC: 0.398319 cumulative IPC: 0.392457 (Simulation time: 0 hr 42 min 6 sec) 
Heartbeat CPU 0 instructions: 90000001 cycles: 90906380 heartbeat IPC: 0.806377 cumulative IPC: 0.774061 (Simulation time: 0 hr 42 min 48 sec) 
Heartbeat CPU 2 instructions: 30000003 cycles: 91671666 heartbeat IPC: 0.141736 cumulative IPC: 0.141736 (Simulation time: 0 hr 43 min 4 sec) 
Heartbeat CPU 4 instructions: 160000000 cycles: 92455904 heartbeat IPC: 1.5282 cumulative IPC: 1.56659 (Simulation time: 0 hr 43 min 21 sec) 
Heartbeat CPU 5 instructions: 70000000 cycles: 94850336 heartbeat IPC: 0.370372 cumulative IPC: 0.489502 (Simulation time: 0 hr 44 min 10 sec) 
Heartbeat CPU 1 instructions: 120000000 cycles: 95971515 heartbeat IPC: 0.638982 cumulative IPC: 0.887491 (Simulation time: 0 hr 44 min 36 sec) 
Heartbeat CPU 4 instructions: 170000000 cycles: 98977477 heartbeat IPC: 1.53337 cumulative IPC: 1.56381 (Simulation time: 0 hr 45 min 43 sec) 
Heartbeat CPU 6 instructions: 100000000 cycles: 100455603 heartbeat IPC: 0.711657 cumulative IPC: 0.801691 (Simulation time: 0 hr 46 min 15 sec) 
Heartbeat CPU 0 instructions: 100000000 cycles: 103365898 heartbeat IPC: 0.802599 cumulative IPC: 0.778385 (Simulation time: 0 hr 47 min 52 sec) 
Heartbeat CPU 4 instructions: 180000000 cycles: 105454896 heartbeat IPC: 1.54382 cumulative IPC: 1.56228 (Simulation time: 0 hr 49 min 32 sec) 
Heartbeat CPU 1 instructions: 130000002 cycles: 110613195 heartbeat IPC: 0.682982 cumulative IPC: 0.854033 (Simulation time: 0 hr 53 min 6 sec) 
Heartbeat CPU 4 instructions: 190000003 cycles: 112020527 heartbeat IPC: 1.52308 cumulative IPC: 1.55944 (Simulation time: 0 hr 53 min 35 sec) 
Heartbeat CPU 6 instructions: 110000000 cycles: 112359596 heartbeat IPC: 0.840054 cumulative IPC: 0.806696 (Simulation time: 0 hr 53 min 42 sec) 
Heartbeat CPU 7 instructions: 80000000 cycles: 114688511 heartbeat IPC: 0.388688 cumulative IPC: 0.39142 (Simulation time: 0 hr 54 min 31 sec) 
Heartbeat CPU 3 instructions: 70000000 cycles: 115789030 heartbeat IPC: 0.336314 cumulative IPC: 0.406621 (Simulation time: 0 hr 54 min 57 sec) 
Heartbeat CPU 0 instructions: 110000000 cycles: 116807907 heartbeat IPC: 0.743936 cumulative IPC: 0.773545 (Simulation time: 0 hr 55 min 20 sec) 
Heartbeat CPU 4 instructions: 200000000 cycles: 118444006 heartbeat IPC: 1.55679 cumulative IPC: 1.55927 (Simulation time: 0 hr 55 min 56 sec) 
Heartbeat CPU 5 instructions: 80000000 cycles: 123246209 heartbeat IPC: 0.352164 cumulative IPC: 0.451316 (Simulation time: 0 hr 57 min 44 sec) 
Heartbeat CPU 6 instructions: 120000000 cycles: 124521140 heartbeat IPC: 0.822264 cumulative IPC: 0.808527 (Simulation time: 0 hr 58 min 12 sec) 
Heartbeat CPU 4 instructions: 210000001 cycles: 124911094 heartbeat IPC: 1.54629 cumulative IPC: 1.55846 (Simulation time: 0 hr 58 min 20 sec) 
Heartbeat CPU 1 instructions: 140000000 cycles: 125951850 heartbeat IPC: 0.651947 cumulative IPC: 0.824465 (Simulation time: 0 hr 58 min 42 sec) 
Heartbeat CPU 4 instructions: 220000000 cycles: 131323371 heartbeat IPC: 1.55951 cumulative IPC: 1.55852 (Simulation time: 1 hr 0 min 34 sec) 
Heartbeat CPU 0 instructions: 120000000 cycles: 131387495 heartbeat IPC: 0.68589 cumulative IPC: 0.761956 (Simulation time: 1 hr 0 min 35 sec) 
Heartbeat CPU 3 instructions: 80000000 cycles: 136124458 heartbeat IPC: 0.491753 cumulative IPC: 0.421674 (Simulation time: 1 hr 2 min 18 sec) 
Heartbeat CPU 4 instructions: 230000003 cycles: 137627149 heartbeat IPC: 1.58635 cumulative IPC: 1.56003 (Simulation time: 1 hr 2 min 51 sec) 
Heartbeat CPU 1 instructions: 150000003 cycles: 138138435 heartbeat IPC: 0.820575 cumulative IPC: 0.82406 (Simulation time: 1 hr 3 min 2 sec) 
Heartbeat CPU 6 instructions: 130000003 cycles: 139284406 heartbeat IPC: 0.677357 cumulative IPC: 0.792139 (Simulation time: 1 hr 3 min 28 sec) 
Heartbeat CPU 7 instructions: 90000002 cycles: 139589375 heartbeat IPC: 0.401593 cumulative IPC: 0.393558 (Simulation time: 1 hr 3 min 35 sec) 
Finished CPU 1 instructions: 100000001 cycles: 120633301 cumulative IPC: 0.828958 (Simulation time: 1 hr 4 min 25 sec) 
Heartbeat CPU 4 instructions: 240000000 cycles: 143955364 heartbeat IPC: 1.58022 cumulative IPC: 1.56107 (Simulation time: 1 hr 5 min 13 sec) 
Heartbeat CPU 0 instructions: 130000003 cycles: 145374446 heartbeat IPC: 0.714952 cumulative IPC: 0.756665 (Simulation time: 1 hr 5 min 44 sec) 
Finished CPU 6 instructions: 100000001 cycles: 126952344 cumulative IPC: 0.787697 (Simulation time: 1 hr 6 min 43 sec) 
Heartbeat CPU 1 instructions: 160000000 cycles: 148265492 heartbeat IPC: 0.987453 cumulative IPC: 0.837074 (Simulation time: 1 hr 6 min 47 sec) 
Heartbeat CPU 4 instructions: 250000003 cycles: 150424948 heartbeat IPC: 1.54569 cumulative IPC: 1.5603 (Simulation time: 1 hr 7 min 33 sec) 
Heartbeat CPU 5 instructions: 90000002 cycles: 151137086 heartbeat IPC: 0.35854 cumulative IPC: 0.431414 (Simulation time: 1 hr 7 min 48 sec) 
Heartbeat CPU 6 instructions: 140000000 cycles: 153564971 heartbeat IPC: 0.700252 cumulative IPC: 0.782232 (Simulation time: 1 hr 8 min 40 sec) 
Heartbeat CPU 3 instructions: 90000003 cycles: 153962084 heartbeat IPC: 0.560613 cumulative IPC: 0.44033 (Simulation time: 1 hr 8 min 49 sec) 
Finished CPU 0 instructions: 100000000 cycles: 133009877 cumulative IPC: 0.751824 (Simulation time: 1 hr 8 min 52 sec) 
Heartbeat CPU 4 instructions: 260000000 cycles: 156795651 heartbeat IPC: 1.56968 cumulative IPC: 1.56074 (Simulation time: 1 hr 9 min 51 sec) 
Heartbeat CPU 1 instructions: 170000003 cycles: 158404443 heartbeat IPC: 0.986296 cumulative IPC: 0.848094 (Simulation time: 1 hr 10 min 26 sec) 
Heartbeat CPU 0 instructions: 140000000 cycles: 159622268 heartbeat IPC: 0.701861 cumulative IPC: 0.751027 (Simulation time: 1 hr 10 min 52 sec) 
Heartbeat CPU 2 instructions: 40000000 cycles: 161651705 heartbeat IPC: 0.142898 cumulative IPC: 0.142315 (Simulation time: 1 hr 11 min 38 sec) 
Heartbeat CPU 4 instructions: 270000003 cycles: 163235642 heartbeat IPC: 1.5528 cumulative IPC: 1.56038 (Simulation time: 1 hr 12 min 14 sec) 
Heartbeat CPU 7 instructions: 100000000 cycles: 164805352 heartbeat IPC: 0.396574 cumulative IPC: 0.394088 (Simulation time: 1 hr 12 min 50 sec) 
Heartbeat CPU 6 instructions: 150000002 cycles: 166577763 heartbeat IPC: 0.768475 cumulative IPC: 0.781001 (Simulation time: 1 hr 13 min 30 sec) 
Heartbeat CPU 1 instructions: 180000000 cycles: 168539086 heartbeat IPC: 0.986714 cumulative IPC: 0.857624 (Simulation time: 1 hr 14 min 13 sec) 
Heartbeat CPU 4 instructions: 280000000 cycles: 169890572 heartbeat IPC: 1.50265 cumulative IPC: 1.5578 (Simulation time: 1 hr 14 min 44 sec) 
Heartbeat CPU 0 instructions: 150000000 cycles: 171861289 heartbeat IPC: 0.817059 cumulative IPC: 0.756388 (Simulation time: 1 hr 15 min 27 sec) 
Heartbeat CPU 5 instructions: 100000000 cycles: 176025765 heartbeat IPC: 0.401789 cumulative IPC: 0.426654 (Simulation time: 1 hr 16 min 59 sec) 
Heartbeat CPU 4 instructions: 290000001 cycles: 176317983 heartbeat IPC: 1.55584 cumulative IPC: 1.55772 (Simulation time: 1 hr 17 min 6 sec) 
Heartbeat CPU 6 instructions: 160000000 cycles: 178231970 heartbeat IPC: 0.858059 cumulative IPC: 0.786717 (Simulation time: 1 hr 17 min 47 sec) 
Heartbeat CPU 1 instructions: 190000001 cycles: 178678160 heartbeat IPC: 0.986283 cumulative IPC: 0.865903 (Simulation time: 1 hr 17 min 57 sec) 
Heartbeat CPU 3 instructions: 100000000 cycles: 181518792 heartbeat IPC: 0.362888 cumulative IPC: 0.427025 (Simulation time: 1 hr 18 min 57 sec) 
Heartbeat CPU 4 instructions: 300000000 cycles: 182773762 heartbeat IPC: 1.549 cumulative IPC: 1.55737 (Simulation time: 1 hr 19 min 24 sec) 
Heartbeat CPU 0 instructions: 160000000 cycles: 185394151 heartbeat IPC: 0.738942 cumulative IPC: 0.754951 (Simulation time: 1 hr 20 min 18 sec) 
Heartbeat CPU 1 instructions: 200000000 cycles: 188812997 heartbeat IPC: 0.986696 cumulative IPC: 0.873203 (Simulation time: 1 hr 21 min 32 sec) 
Heartbeat CPU 4 instructions: 310000000 cycles: 189076971 heartbeat IPC: 1.58649 cumulative IPC: 1.55846 (Simulation time: 1 hr 21 min 37 sec) 
Heartbeat CPU 7 instructions: 110000000 cycles: 189707144 heartbeat IPC: 0.401578 cumulative IPC: 0.395194 (Simulation time: 1 hr 21 min 51 sec) 
Heartbeat CPU 6 instructions: 170000001 cycles: 191869931 heartbeat IPC: 0.733248 cumulative IPC: 0.782446 (Simulation time: 1 hr 22 min 37 sec) 
Heartbeat CPU 4 instructions: 320000000 cycles: 195642065 heartbeat IPC: 1.52321 cumulative IPC: 1.55713 (Simulation time: 1 hr 24 min 4 sec) 
Heartbeat CPU 5 instructions: 110000000 cycles: 198256003 heartbeat IPC: 0.449838 cumulative IPC: 0.429564 (Simulation time: 1 hr 25 min 4 sec) 
Heartbeat CPU 1 instructions: 210000003 cycles: 198957257 heartbeat IPC: 0.985779 cumulative IPC: 0.879625 (Simulation time: 1 hr 25 min 21 sec) 
Heartbeat CPU 0 instructions: 170000000 cycles: 198994736 heartbeat IPC: 0.735263 cumulative IPC: 0.753446 (Simulation time: 1 hr 25 min 21 sec) 
Heartbeat CPU 4 instructions: 330000002 cycles: 201995937 heartbeat IPC: 1.57384 cumulative IPC: 1.55772 (Simulation time: 1 hr 26 min 32 sec) 
Heartbeat CPU 6 instructions: 180000000 cycles: 203826323 heartbeat IPC: 0.836373 cumulative IPC: 0.785975 (Simulation time: 1 hr 27 min 14 sec) 
Heartbeat CPU 4 instructions: 340000000 cycles: 208547122 heartbeat IPC: 1.52644 cumulative IPC: 1.55663 (Simulation time: 1 hr 29 min 3 sec) 
Heartbeat CPU 3 instructions: 110000000 cycles: 208929702 heartbeat IPC: 0.364818 cumulative IPC: 0.417946 (Simulation time: 1 hr 29 min 11 sec) 
Heartbeat CPU 1 instructions: 220000000 cycles: 209094190 heartbeat IPC: 0.986491 cumulative IPC: 0.885388 (Simulation time: 1 hr 29 min 15 sec) 
Heartbeat CPU 5 instructions: 120000000 cycles: 212442115 heartbeat IPC: 0.704915 cumulative IPC: 0.44998 (Simulation time: 1 hr 30 min 32 sec) 
Heartbeat CPU 7 instructions: 120000000 cycles: 213162581 heartbeat IPC: 0.42634 cumulative IPC: 0.398998 (Simulation time: 1 hr 30 min 49 sec) 
Heartbeat CPU 0 instructions: 180000000 cycles: 213612463 heartbeat IPC: 0.684101 cumulative IPC: 0.74818 (Simulation time: 1 hr 31 min 0 sec) 
Heartbeat CPU 4 instructions: 350000002 cycles: 215395524 heartbeat IPC: 1.46019 cumulative IPC: 1.55323 (Simulation time: 1 hr 31 min 41 sec) 
Heartbeat CPU 6 instructions: 190000003 cycles: 215974183 heartbeat IPC: 0.823191 cumulative IPC: 0.788295 (Simulation time: 1 hr 31 min 55 sec) 
Heartbeat CPU 1 instructions: 230000003 cycles: 219229754 heartbeat IPC: 0.986625 cumulative IPC: 0.890567 (Simulation time: 1 hr 33 min 8 sec) 
Heartbeat CPU 4 instructions: 360000000 cycles: 221527673 heartbeat IPC: 1.63075 cumulative IPC: 1.5556 (Simulation time: 1 hr 33 min 58 sec) 
Heartbeat CPU 4 instructions: 370000003 cycles: 227823886 heartbeat IPC: 1.58826 cumulative IPC: 1.5566 (Simulation time: 1 hr 36 min 13 sec) 
Heartbeat CPU 0 instructions: 190000001 cycles: 228021739 heartbeat IPC: 0.693997 cumulative IPC: 0.744407 (Simulation time: 1 hr 36 min 18 sec) 
Heartbeat CPU 1 instructions: 240000000 cycles: 229367032 heartbeat IPC: 0.986458 cumulative IPC: 0.895235 (Simulation time: 1 hr 36 min 46 sec) 
Heartbeat CPU 6 instructions: 200000000 cycles: 231342793 heartbeat IPC: 0.650677 cumulative IPC: 0.778235 (Simulation time: 1 hr 37 min 29 sec) 
Heartbeat CPU 2 instructions: 50000001 cycles: 231452623 heartbeat IPC: 0.143265 cumulative IPC: 0.14263 (Simulation time: 1 hr 37 min 32 sec) 
Heartbeat CPU 5 instructions: 130000000 cycles: 232951792 heartbeat IPC: 0.487575 cumulative IPC: 0.45362 (Simulation time: 1 hr 38 min 4 sec) 
Heartbeat CPU 4 instructions: 380000000 cycles: 234012770 heartbeat IPC: 1.6158 cumulative IPC: 1.55832 (Simulation time: 1 hr 38 min 27 sec) 
Heartbeat CPU 7 instructions: 130000003 cycles: 239050751 heartbeat IPC: 0.386277 cumulative IPC: 0.397487 (Simulation time: 1 hr 40 min 15 sec) 
Heartbeat CPU 1 instructions: 250000001 cycles: 239513490 heartbeat IPC: 0.985566 cumulative IPC: 0.899432 (Simulation time: 1 hr 40 min 25 sec) 
Heartbeat CPU 4 instructions: 390000003 cycles: 240359981 heartbeat IPC: 1.5755 cumulative IPC: 1.55881 (Simulation time: 1 hr 40 min 43 sec) 
Heartbeat CPU 0 instructions: 200000000 cycles: 240893856 heartbeat IPC: 0.776873 cumulative IPC: 0.746308 (Simulation time: 1 hr 40 min 54 sec) 
Heartbeat CPU 3 instructions: 120000000 cycles: 241395260 heartbeat IPC: 0.308019 cumulative IPC: 0.401745 (Simulation time: 1 hr 41 min 5 sec) 
Finished CPU 5 instructions: 100000000 cycles: 223191466 cumulative IPC: 0.448046 (Simulation time: 1 hr 42 min 8 sec) 
Heartbeat CPU 6 instructions: 210000000 cycles: 246187650 heartbeat IPC: 0.673634 cumulative IPC: 0.771335 (Simulation time: 1 hr 42 min 50 sec) 
Heartbeat CPU 4 instructions: 400000000 cycles: 246650826 heartbeat IPC: 1.58961 cumulative IPC: 1.55967 (Simulation time: 1 hr 43 min 1 sec) 
Heartbeat CPU 1 instructions: 260000000 cycles: 249652027 heartbeat IPC: 0.986336 cumulative IPC: 0.903287 (Simulation time: 1 hr 44 min 6 sec) 
Heartbeat CPU 4 instructions: 410000000 cycles: 252948556 heartbeat IPC: 1.58787 cumulative IPC: 1.56044 (Simulation time: 1 hr 45 min 18 sec) 
Heartbeat CPU 0 instructions: 210000003 cycles: 253149796 heartbeat IPC: 0.815931 cumulative IPC: 0.749986 (Simulation time: 1 hr 45 min 22 sec) 
Heartbeat CPU 1 instructions: 270000000 cycles: 259795371 heartbeat IPC: 0.985868 cumulative IPC: 0.906797 (Simulation time: 1 hr 47 min 45 sec) 
Heartbeat CPU 4 instructions: 420000000 cycles: 259831130 heartbeat IPC: 1.45294 cumulative IPC: 1.55734 (Simulation time: 1 hr 47 min 45 sec) 
Heartbeat CPU 5 instructions: 140000000 cycles: 260658130 heartbeat IPC: 0.360928 cumulative IPC: 0.442899 (Simulation time: 1 hr 48 min 4 sec) 
Heartbeat CPU 6 instructions: 220000000 cycles: 260936086 heartbeat IPC: 0.678038 cumulative IPC: 0.765598 (Simulation time: 1 hr 48 min 10 sec) 
Heartbeat CPU 7 instructions: 140000000 cycles: 264922952 heartbeat IPC: 0.386515 cumulative IPC: 0.396323 (Simulation time: 1 hr 49 min 39 sec) 
Heartbeat CPU 4 instructions: 430000001 cycles: 265856446 heartbeat IPC: 1.65966 cumulative IPC: 1.55986 (Simulation time: 1 hr 50 min 1 sec) 
Heartbeat CPU 0 instructions: 220000000 cycles: 267104862 heartbeat IPC: 0.716585 cumulative IPC: 0.748091 (Simulation time: 1 hr 50 min 29 sec) 
Heartbeat CPU 3 instructions: 130000003 cycles: 268705452 heartbeat IPC: 0.366164 cumulative IPC: 0.39782 (Simulation time: 1 hr 51 min 5 sec) 
Heartbeat CPU 1 instructions: 280000000 cycles: 269936569 heartbeat IPC: 0.986077 cumulative IPC: 0.910028 (Simulation time: 1 hr 51 min 33 sec) 
Heartbeat CPU 4 instructions: 440000000 cycles: 272036289 heartbeat IPC: 1.61816 cumulative IPC: 1.56129 (Simulation time: 1 hr 52 min 20 sec) 
Finished CPU 7 instructions: 100000002 cycles: 252039874 cumulative IPC: 0.396763 (Simulation time: 1 hr 52 min 45 sec) 
Finished CPU 3 instructions: 100000001 cycles: 252393509 cumulative IPC: 0.396207 (Simulation time: 1 hr 52 min 53 sec) 
Heartbeat CPU 6 instructions: 230000000 cycles: 275871381 heartbeat IPC: 0.669555 cumulative IPC: 0.759967 (Simulation time: 1 hr 53 min 44 sec) 
Heartbeat CPU 4 instructions: 450000000 cycles: 278384447 heartbeat IPC: 1.57526 cumulative IPC: 1.56164 (Simulation time: 1 hr 54 min 37 sec) 
Heartbeat CPU 1 instructions: 290000000 cycles: 280078860 heartbeat IPC: 0.98597 cumulative IPC: 0.913002 (Simulation time: 1 hr 55 min 13 sec) 
Heartbeat CPU 0 instructions: 230000001 cycles: 280189328 heartbeat IPC: 0.764265 cumulative IPC: 0.748908 (Simulation time: 1 hr 55 min 16 sec) 
Heartbeat CPU 4 instructions: 460000000 cycles: 284638956 heartbeat IPC: 1.59885 cumulative IPC: 1.56252 (Simulation time: 1 hr 56 min 46 sec) 
Heartbeat CPU 5 instructions: 150000000 cycles: 285525803 heartbeat IPC: 0.402128 cumulative IPC: 0.439065 (Simulation time: 1 hr 57 min 3 sec) 
Heartbeat CPU 7 instructions: 150000002 cycles: 289157846 heartbeat IPC: 0.412628 cumulative IPC: 0.397797 (Simulation time: 1 hr 58 min 17 sec) 
Heartbeat CPU 1 instructions: 300000000 cycles: 290218212 heartbeat IPC: 0.986256 cumulative IPC: 0.915762 (Simulation time: 1 hr 58 min 38 sec) 
Heartbeat CPU 6 instructions: 240000000 cycles: 290447244 heartbeat IPC: 0.686066 cumulative IPC: 0.755968 (Simulation time: 1 hr 58 min 43 sec) 
Heartbeat CPU 4 instructions: 470000000 cycles: 291568101 heartbeat IPC: 1.44318 cumulative IPC: 1.55946 (Simulation time: 1 hr 59 min 6 sec) 
Heartbeat CPU 0 instructions: 240000000 cycles: 295200628 heartbeat IPC: 0.666165 cumulative IPC: 0.744376 (Simulation time: 2 hr 0 min 27 sec) 
Heartbeat CPU 4 instructions: 480000000 cycles: 297795104 heartbeat IPC: 1.60591 cumulative IPC: 1.56051 (Simulation time: 2 hr 1 min 26 sec) 
Heartbeat CPU 3 instructions: 140000000 cycles: 298648982 heartbeat IPC: 0.333962 cumulative IPC: 0.39093 (Simulation time: 2 hr 1 min 45 sec) 
Heartbeat CPU 1 instructions: 310000000 cycles: 300351590 heartbeat IPC: 0.986838 cumulative IPC: 0.918342 (Simulation time: 2 hr 2 min 21 sec) 
Heartbeat CPU 2 instructions: 60000000 cycles: 301257691 heartbeat IPC: 0.143256 cumulative IPC: 0.142786 (Simulation time: 2 hr 2 min 40 sec) 
Heartbeat CPU 6 instructions: 250000002 cycles: 301811155 heartbeat IPC: 0.879979 cumulative IPC: 0.760988 (Simulation time: 2 hr 2 min 51 sec) 
Heartbeat CPU 5 instructions: 160000000 cycles: 302632593 heartbeat IPC: 0.584563 cumulative IPC: 0.447906 (Simulation time: 2 hr 3 min 8 sec) 
Heartbeat CPU 4 instructions: 490000002 cycles: 305753829 heartbeat IPC: 1.25648 cumulative IPC: 1.55201 (Simulation time: 2 hr 4 min 13 sec) 
Heartbeat CPU 0 instructions: 250000000 cycles: 309726852 heartbeat IPC: 0.68841 cumulative IPC: 0.741559 (Simulation time: 2 hr 5 min 37 sec) 
Heartbeat CPU 1 instructions: 320000000 cycles: 310490582 heartbeat IPC: 0.986291 cumulative IPC: 0.920722 (Simulation time: 2 hr 5 min 53 sec) 
Heartbeat CPU 4 instructions: 500000000 cycles: 311952131 heartbeat IPC: 1.61334 cumulative IPC: 1.55332 (Simulation time: 2 hr 6 min 23 sec) 
Heartbeat CPU 7 instructions: 160000000 cycles: 314905335 heartbeat IPC: 0.388387 cumulative IPC: 0.396972 (Simulation time: 2 hr 7 min 23 sec) 
Heartbeat CPU 6 instructions: 260000000 cycles: 316291795 heartbeat IPC: 0.690577 cumulative IPC: 0.757534 (Simulation time: 2 hr 7 min 52 sec) 
Heartbeat CPU 4 instructions: 510000000 cycles: 318118187 heartbeat IPC: 1.62178 cumulative IPC: 1.55474 (Simulation time: 2 hr 8 min 29 sec) 
Heartbeat CPU 1 instructions: 330000000 cycles: 320630946 heartbeat IPC: 0.986158 cumulative IPC: 0.922938 (Simulation time: 2 hr 9 min 19 sec) 
Heartbeat CPU 0 instructions: 260000000 cycles: 321920401 heartbeat IPC: 0.820106 cumulative IPC: 0.744743 (Simulation time: 2 hr 9 min 45 sec) 
Heartbeat CPU 4 instructions: 520000000 cycles: 324388974 heartbeat IPC: 1.5947 cumulative IPC: 1.55556 (Simulation time: 2 hr 10 min 34 sec) 
Heartbeat CPU 5 instructions: 170000000 cycles: 325289355 heartbeat IPC: 0.441369 cumulative IPC: 0.447419 (Simulation time: 2 hr 10 min 51 sec) 
Heartbeat CPU 3 instructions: 150000000 cycles: 326191819 heartbeat IPC: 0.363071 cumulative IPC: 0.388415 (Simulation time: 2 hr 11 min 9 sec) 
Heartbeat CPU 6 instructions: 270000000 cycles: 330079684 heartbeat IPC: 0.725274 cumulative IPC: 0.756094 (Simulation time: 2 hr 12 min 30 sec) 
Heartbeat CPU 1 instructions: 340000000 cycles: 330771185 heartbeat IPC: 0.98617 cumulative IPC: 0.925009 (Simulation time: 2 hr 12 min 44 sec) 
Heartbeat CPU 4 instructions: 530000001 cycles: 330812627 heartbeat IPC: 1.55675 cumulative IPC: 1.55559 (Simulation time: 2 hr 12 min 45 sec) 
Heartbeat CPU 0 instructions: 270000002 cycles: 334761303 heartbeat IPC: 0.778762 cumulative IPC: 0.746136 (Simulation time: 2 hr 14 min 8 sec) 
Heartbeat CPU 4 instructions: 540000000 cycles: 337207521 heartbeat IPC: 1.56375 cumulative IPC: 1.55575 (Simulation time: 2 hr 15 min 0 sec) 
Heartbeat CPU 7 instructions: 170000000 cycles: 339398929 heartbeat IPC: 0.40827 cumulative IPC: 0.397842 (Simulation time: 2 hr 15 min 45 sec) 
Heartbeat CPU 1 instructions: 350000002 cycles: 340913485 heartbeat IPC: 0.98597 cumulative IPC: 0.926942 (Simulation time: 2 hr 16 min 17 sec) 
Heartbeat CPU 6 instructions: 280000000 cycles: 343100088 heartbeat IPC: 0.768025 cumulative IPC: 0.756577 (Simulation time: 2 hr 17 min 1 sec) 
Heartbeat CPU 4 instructions: 550000003 cycles: 343488364 heartbeat IPC: 1.59214 cumulative IPC: 1.55646 (Simulation time: 2 hr 17 min 9 sec) 
Heartbeat CPU 0 instructions: 280000000 cycles: 348237991 heartbeat IPC: 0.742022 cumulative IPC: 0.745966 (Simulation time: 2 hr 18 min 47 sec) 
Heartbeat CPU 4 instructions: 560000000 cycles: 350278424 heartbeat IPC: 1.47274 cumulative IPC: 1.55474 (Simulation time: 2 hr 19 min 27 sec) 
Heartbeat CPU 1 instructions: 360000000 cycles: 351055864 heartbeat IPC: 0.985962 cumulative IPC: 0.928756 (Simulation time: 2 hr 19 min 42 sec) 
Heartbeat CPU 5 instructions: 180000000 cycles: 352051728 heartbeat IPC: 0.373659 cumulative IPC: 0.441454 (Simulation time: 2 hr 19 min 59 sec) 
Heartbeat CPU 3 instructions: 160000000 cycles: 352346763 heartbeat IPC: 0.382337 cumulative IPC: 0.387935 (Simulation time: 2 hr 20 min 5 sec) 
Heartbeat CPU 4 instructions: 570000003 cycles: 356569007 heartbeat IPC: 1.58968 cumulative IPC: 1.55539 (Simulation time: 2 hr 21 min 25 sec) 
Heartbeat CPU 6 instructions: 290000000 cycles: 357573903 heartbeat IPC: 0.690903 cumulative IPC: 0.753752 (Simulation time: 2 hr 21 min 45 sec) 
Heartbeat CPU 1 instructions: 370000003 cycles: 361198241 heartbeat IPC: 0.985962 cumulative IPC: 0.930462 (Simulation time: 2 hr 22 min 56 sec) 
Heartbeat CPU 7 instructions: 180000000 cycles: 362764560 heartbeat IPC: 0.427979 cumulative IPC: 0.399903 (Simulation time: 2 hr 23 min 27 sec) 
Heartbeat CPU 4 instructions: 580000000 cycles: 362792171 heartbeat IPC: 1.6069 cumulative IPC: 1.55633 (Simulation time: 2 hr 23 min 28 sec) 
Heartbeat CPU 0 instructions: 290000001 cycles: 367556771 heartbeat IPC: 0.517631 cumulative IPC: 0.733233 (Simulation time: 2 hr 25 min 0 sec) 
Heartbeat CPU 4 instructions: 590000000 cycles: 369290719 heartbeat IPC: 1.53881 cumulative IPC: 1.556 (Simulation time: 2 hr 25 min 29 sec) 
Heartbeat CPU 2 instructions: 70000000 cycles: 370732263 heartbeat IPC: 0.143938 cumulative IPC: 0.143015 (Simulation time: 2 hr 25 min 54 sec) 
Heartbeat CPU 1 instructions: 380000000 cycles: 371338702 heartbeat IPC: 0.986148 cumulative IPC: 0.932075 (Simulation time: 2 hr 26 min 5 sec) 
Heartbeat CPU 6 instructions: 300000000 cycles: 372798137 heartbeat IPC: 0.656847 cumulative IPC: 0.749557 (Simulation time: 2 hr 26 min 31 sec) 
Heartbeat CPU 5 instructions: 190000001 cycles: 373332024 heartbeat IPC: 0.469918 cumulative IPC: 0.443174 (Simulation time: 2 hr 26 min 40 sec) 
Heartbeat CPU 4 instructions: 600000000 cycles: 375833142 heartbeat IPC: 1.52849 cumulative IPC: 1.55549 (Simulation time: 2 hr 27 min 23 sec) 
Heartbeat CPU 1 instructions: 390000000 cycles: 381477688 heartbeat IPC: 0.986292 cumulative IPC: 0.9336 (Simulation time: 2 hr 29 min 5 sec) 
Heartbeat CPU 3 instructions: 170000000 cycles: 381811058 heartbeat IPC: 0.339394 cumulative IPC: 0.38397 (Simulation time: 2 hr 29 min 11 sec) 
Heartbeat CPU 4 instructions: 610000000 cycles: 382288898 heartbeat IPC: 1.54901 cumulative IPC: 1.55538 (Simulation time: 2 hr 29 min 19 sec) 
Heartbeat CPU 6 instructions: 310000001 cycles: 387560301 heartbeat IPC: 0.677408 cumulative IPC: 0.74665 (Simulation time: 2 hr 30 min 59 sec) 
Heartbeat CPU 7 instructions: 190000001 cycles: 387602091 heartbeat IPC: 0.402617 cumulative IPC: 0.400087 (Simulation time: 2 hr 31 min 0 sec) 
Heartbeat CPU 4 instructions: 620000000 cycles: 388620581 heartbeat IPC: 1.57936 cumulative IPC: 1.55579 (Simulation time: 2 hr 31 min 20 sec) 
Heartbeat CPU 1 instructions: 400000000 cycles: 391615644 heartbeat IPC: 0.986392 cumulative IPC: 0.935045 (Simulation time: 2 hr 32 min 16 sec) 
Heartbeat CPU 0 instructions: 300000000 cycles: 392311392 heartbeat IPC: 0.403965 cumulative IPC: 0.711275 (Simulation time: 2 hr 32 min 30 sec) 
Heartbeat CPU 4 instructions: 630000002 cycles: 395531160 heartbeat IPC: 1.44706 cumulative IPC: 1.55378 (Simulation time: 2 hr 33 min 32 sec) 
Heartbeat CPU 5 instructions: 200000000 cycles: 400595813 heartbeat IPC: 0.366787 cumulative IPC: 0.437686 (Simulation time: 2 hr 35 min 5 sec) 
Heartbeat CPU 6 instructions: 320000000 cycles: 401473266 heartbeat IPC: 0.718754 cumulative IPC: 0.74563 (Simulation time: 2 hr 35 min 23 sec) 
Heartbeat CPU 4 instructions: 640000000 cycles: 401741886 heartbeat IPC: 1.61012 cumulative IPC: 1.5547 (Simulation time: 2 hr 35 min 28 sec) 
Heartbeat CPU 1 instructions: 410000002 cycles: 401762342 heartbeat IPC: 0.985542 cumulative IPC: 0.936391 (Simulation time: 2 hr 35 min 29 sec) 
Heartbeat CPU 3 instructions: 180000000 cycles: 406580037 heartbeat IPC: 0.403731 cumulative IPC: 0.385239 (Simulation time: 2 hr 36 min 59 sec) 
Heartbeat CPU 4 instructions: 650000003 cycles: 408018532 heartbeat IPC: 1.59321 cumulative IPC: 1.55533 (Simulation time: 2 hr 37 min 27 sec) 
Heartbeat CPU 1 instructions: 420000000 cycles: 411894797 heartbeat IPC: 0.986927 cumulative IPC: 0.937701 (Simulation time: 2 hr 38 min 39 sec) 
Heartbeat CPU 7 instructions: 200000000 cycles: 412264288 heartbeat IPC: 0.405479 cumulative IPC: 0.400427 (Simulation time: 2 hr 38 min 46 sec) 
Heartbeat CPU 6 instructions: 330000002 cycles: 413327257 heartbeat IPC: 0.843598 cumulative IPC: 0.748591 (Simulation time: 2 hr 39 min 6 sec) 
Heartbeat CPU 4 instructions: 660000000 cycles: 414517000 heartbeat IPC: 1.53882 cumulative IPC: 1.55506 (Simulation time: 2 hr 39 min 28 sec) 
Heartbeat CPU 0 instructions: 310000003 cycles: 417679279 heartbeat IPC: 0.394199 cumulative IPC: 0.690992 (Simulation time: 2 hr 40 min 25 sec) 
Heartbeat CPU 4 instructions: 670000002 cycles: 420904934 heartbeat IPC: 1.56545 cumulative IPC: 1.55522 (Simulation time: 2 hr 41 min 25 sec) 
Heartbeat CPU 1 instructions: 430000000 cycles: 422038083 heartbeat IPC: 0.985874 cumulative IPC: 0.93892 (Simulation time: 2 hr 41 min 46 sec) 
Heartbeat CPU 5 instructions: 210000003 cycles: 425270184 heartbeat IPC: 0.405279 cumulative IPC: 0.435707 (Simulation time: 2 hr 42 min 47 sec) 
Heartbeat CPU 6 instructions: 340000000 cycles: 426058523 heartbeat IPC: 0.785468 cumulative IPC: 0.74975 (Simulation time: 2 hr 43 min 1 sec) 
Heartbeat CPU 4 instructions: 680000000 cycles: 427378169 heartbeat IPC: 1.54482 cumulative IPC: 1.55506 (Simulation time: 2 hr 43 min 26 sec) 
Heartbeat CPU 1 instructions: 440000000 cycles: 432172389 heartbeat IPC: 0.986747 cumulative IPC: 0.940099 (Simulation time: 2 hr 44 min 55 sec) 
Heartbeat CPU 4 instructions: 690000002 cycles: 433962422 heartbeat IPC: 1.51878 cumulative IPC: 1.55448 (Simulation time: 2 hr 45 min 29 sec) 
Heartbeat CPU 7 instructions: 210000001 cycles: 437275903 heartbeat IPC: 0.399814 cumulative IPC: 0.40039 (Simulation time: 2 hr 46 min 33 sec) 
Heartbeat CPU 3 instructions: 190000001 cycles: 437294734 heartbeat IPC: 0.325577 cumulative IPC: 0.380836 (Simulation time: 2 hr 46 min 34 sec) 
Heartbeat CPU 6 instructions: 350000003 cycles: 438648580 heartbeat IPC: 0.794278 cumulative IPC: 0.751093 (Simulation time: 2 hr 47 min 0 sec) 
Heartbeat CPU 4 instructions: 700000000 cycles: 440205042 heartbeat IPC: 1.60189 cumulative IPC: 1.55518 (Simulation time: 2 hr 47 min 30 sec) 
Heartbeat CPU 0 instructions: 320000000 cycles: 440416446 heartbeat IPC: 0.439808 cumulative IPC: 0.677371 (Simulation time: 2 hr 47 min 34 sec) 
Heartbeat CPU 2 instructions: 80000000 cycles: 440823285 heartbeat IPC: 0.142672 cumulative IPC: 0.142957 (Simulation time: 2 hr 47 min 42 sec) 
Heartbeat CPU 1 instructions: 450000002 cycles: 442318094 heartbeat IPC: 0.985639 cumulative IPC: 0.941196 (Simulation time: 2 hr 48 min 11 sec) 
Heartbeat CPU 4 instructions: 710000000 cycles: 446574898 heartbeat IPC: 1.56989 cumulative IPC: 1.5554 (Simulation time: 2 hr 49 min 33 sec) 
Heartbeat CPU 5 instructions: 220000000 cycles: 448369634 heartbeat IPC: 0.432911 cumulative IPC: 0.435556 (Simulation time: 2 hr 50 min 8 sec) 
Heartbeat CPU 1 instructions: 460000000 cycles: 452454533 heartbeat IPC: 0.98654 cumulative IPC: 0.942262 (Simulation time: 2 hr 51 min 26 sec) 
Heartbeat CPU 4 instructions: 720000000 cycles: 453068560 heartbeat IPC: 1.53996 cumulative IPC: 1.55517 (Simulation time: 2 hr 51 min 38 sec) 
Heartbeat CPU 6 instructions: 360000000 cycles: 453167967 heartbeat IPC: 0.688734 cumulative IPC: 0.748997 (Simulation time: 2 hr 51 min 40 sec) 
Heartbeat CPU 0 instructions: 330000000 cycles: 455091002 heartbeat IPC: 0.681452 cumulative IPC: 0.677509 (Simulation time: 2 hr 52 min 18 sec) 
Heartbeat CPU 4 instructions: 730000000 cycles: 459398663 heartbeat IPC: 1.57975 cumulative IPC: 1.55553 (Simulation time: 2 hr 53 min 44 sec) 
Heartbeat CPU 7 instructions: 220000000 cycles: 462163242 heartbeat IPC: 0.401811 cumulative IPC: 0.40047 (Simulation time: 2 hr 54 min 40 sec) 
Heartbeat CPU 1 instructions: 470000002 cycles: 462591296 heartbeat IPC: 0.986508 cumulative IPC: 0.943278 (Simulation time: 2 hr 54 min 49 sec) 
Heartbeat CPU 5 instructions: 230000001 cycles: 464534818 heartbeat IPC: 0.618613 cumulative IPC: 0.44223 (Simulation time: 2 hr 55 min 31 sec) 
Heartbeat CPU 4 instructions: 740000000 cycles: 466071152 heartbeat IPC: 1.49869 cumulative IPC: 1.55467 (Simulation time: 2 hr 56 min 4 sec) 
Heartbeat CPU 6 instructions: 370000002 cycles: 466097828 heartbeat IPC: 0.773404 cumulative IPC: 0.749706 (Simulation time: 2 hr 56 min 5 sec) 
Heartbeat CPU 3 instructions: 200000000 cycles: 466656499 heartbeat IPC: 0.340579 cumulative IPC: 0.378183 (Simulation time: 2 hr 56 min 18 sec) 
Heartbeat CPU 0 instructions: 340000000 cycles: 471443165 heartbeat IPC: 0.61154 cumulative IPC: 0.675113 (Simulation time: 2 hr 57 min 55 sec) 
Heartbeat CPU 1 instructions: 480000000 cycles: 472728466 heartbeat IPC: 0.986468 cumulative IPC: 0.944247 (Simulation time: 2 hr 58 min 19 sec) 
Heartbeat CPU 4 instructions: 750000001 cycles: 472939939 heartbeat IPC: 1.45586 cumulative IPC: 1.55317 (Simulation time: 2 hr 58 min 23 sec) 
Heartbeat CPU 5 instructions: 240000000 cycles: 479226702 heartbeat IPC: 0.680648 cumulative IPC: 0.449876 (Simulation time: 3 hr 0 min 26 sec) 
Heartbeat CPU 4 instructions: 760000000 cycles: 479261254 heartbeat IPC: 1.58195 cumulative IPC: 1.55357 (Simulation time: 3 hr 0 min 27 sec) 
Heartbeat CPU 6 instructions: 380000000 cycles: 479881987 heartbeat IPC: 0.72547 cumulative IPC: 0.748978 (Simulation time: 3 hr 0 min 39 sec) 
Heartbeat CPU 1 instructions: 490000002 cycles: 482869519 heartbeat IPC: 0.986091 cumulative IPC: 0.945166 (Simulation time: 3 hr 1 min 38 sec) 
Heartbeat CPU 4 instructions: 770000002 cycles: 485740755 heartbeat IPC: 1.54333 cumulative IPC: 1.55343 (Simulation time: 3 hr 2 min 29 sec) 
Heartbeat CPU 7 instructions: 230000001 cycles: 486492506 heartbeat IPC: 0.411028 cumulative IPC: 0.401022 (Simulation time: 3 hr 2 min 43 sec) 
Heartbeat CPU 0 instructions: 350000000 cycles: 491074993 heartbeat IPC: 0.509377 cumulative IPC: 0.66819 (Simulation time: 3 hr 4 min 4 sec) 
Heartbeat CPU 1 instructions: 500000000 cycles: 493008610 heartbeat IPC: 0.986282 cumulative IPC: 0.946049 (Simulation time: 3 hr 4 min 37 sec) 
Heartbeat CPU 4 instructions: 780000000 cycles: 493611507 heartbeat IPC: 1.27053 cumulative IPC: 1.54871 (Simulation time: 3 hr 4 min 48 sec) 
Heartbeat CPU 3 instructions: 210000000 cycles: 494189291 heartbeat IPC: 0.363203 cumulative IPC: 0.377311 (Simulation time: 3 hr 4 min 58 sec) 
Heartbeat CPU 6 instructions: 390000003 cycles: 494851410 heartbeat IPC: 0.668029 cumulative IPC: 0.74642 (Simulation time: 3 hr 5 min 10 sec) 
Heartbeat CPU 5 instructions: 250000001 cycles: 498931166 heartbeat IPC: 0.507499 cumulative IPC: 0.452252 (Simulation time: 3 hr 6 min 22 sec) 
Heartbeat CPU 4 instructions: 790000002 cycles: 499762913 heartbeat IPC: 1.62564 cumulative IPC: 1.5497 (Simulation time: 3 hr 6 min 36 sec) 
Heartbeat CPU 1 instructions: 510000002 cycles: 503154157 heartbeat IPC: 0.985654 cumulative IPC: 0.946883 (Simulation time: 3 hr 7 min 35 sec) 
Heartbeat CPU 4 instructions: 800000000 cycles: 506275396 heartbeat IPC: 1.53551 cumulative IPC: 1.54951 (Simulation time: 3 hr 8 min 29 sec) 
Heartbeat CPU 6 instructions: 400000000 cycles: 509703860 heartbeat IPC: 0.673289 cumulative IPC: 0.744197 (Simulation time: 3 hr 9 min 29 sec) 
Heartbeat CPU 2 instructions: 90000003 cycles: 509853209 heartbeat IPC: 0.144865 cumulative IPC: 0.143227 (Simulation time: 3 hr 9 min 32 sec) 
Heartbeat CPU 7 instructions: 240000000 cycles: 511879884 heartbeat IPC: 0.393896 cumulative IPC: 0.400653 (Simulation time: 3 hr 10 min 9 sec) 
Heartbeat CPU 4 instructions: 810000001 cycles: 512607511 heartbeat IPC: 1.57925 cumulative IPC: 1.5499 (Simulation time: 3 hr 10 min 21 sec) 
Heartbeat CPU 1 instructions: 520000000 cycles: 513290312 heartbeat IPC: 0.986567 cumulative IPC: 0.9477 (Simulation time: 3 hr 10 min 34 sec) 
Heartbeat CPU 4 instructions: 820000000 cycles: 518870190 heartbeat IPC: 1.59676 cumulative IPC: 1.55049 (Simulation time: 3 hr 12 min 13 sec) 
Heartbeat CPU 0 instructions: 360000000 cycles: 519699565 heartbeat IPC: 0.34935 cumulative IPC: 0.649885 (Simulation time: 3 hr 12 min 28 sec) 
Heartbeat CPU 3 instructions: 220000000 cycles: 522172157 heartbeat IPC: 0.357362 cumulative IPC: 0.376197 (Simulation time: 3 hr 13 min 13 sec) 
Heartbeat CPU 1 instructions: 530000000 cycles: 523436378 heartbeat IPC: 0.985604 cumulative IPC: 0.948466 (Simulation time: 3 hr 13 min 35 sec) 
Heartbeat CPU 6 instructions: 410000000 cycles: 523576853 heartbeat IPC: 0.720825 cumulative IPC: 0.743552 (Simulation time: 3 hr 13 min 37 sec) 
Heartbeat CPU 4 instructions: 830000003 cycles: 525291144 heartbeat IPC: 1.5574 cumulative IPC: 1.55057 (Simulation time: 3 hr 14 min 7 sec) 
Heartbeat CPU 5 instructions: 260000000 cycles: 527709928 heartbeat IPC: 0.347478 cumulative IPC: 0.4463 (Simulation time: 3 hr 14 min 51 sec) 
Heartbeat CPU 4 instructions: 840000000 cycles: 531646398 heartbeat IPC: 1.5735 cumulative IPC: 1.55086 (Simulation time: 3 hr 16 min 2 sec) 
Heartbeat CPU 1 instructions: 540000000 cycles: 533573323 heartbeat IPC: 0.98649 cumulative IPC: 0.949218 (Simulation time: 3 hr 16 min 37 sec) 
Heartbeat CPU 6 instructions: 420000000 cycles: 536863673 heartbeat IPC: 0.752626 cumulative IPC: 0.743786 (Simulation time: 3 hr 17 min 38 sec) 
Heartbeat CPU 7 instructions: 250000000 cycles: 537217063 heartbeat IPC: 0.394677 cumulative IPC: 0.40036 (Simulation time: 3 hr 17 min 45 sec) 
Heartbeat CPU 4 instructions: 850000002 cycles: 538030231 heartbeat IPC: 1.56646 cumulative IPC: 1.55105 (Simulation time: 3 hr 18 min 0 sec) 
Heartbeat CPU 1 instructions: 550000002 cycles: 543716054 heartbeat IPC: 0.985928 cumulative IPC: 0.949931 (Simulation time: 3 hr 19 min 45 sec) 
Heartbeat CPU 4 instructions: 860000000 cycles: 544483117 heartbeat IPC: 1.54969 cumulative IPC: 1.55103 (Simulation time: 3 hr 20 min 0 sec) 
Heartbeat CPU 0 instructions: 370000000 cycles: 546681905 heartbeat IPC: 0.370613 cumulative IPC: 0.635547 (Simulation time: 3 hr 20 min 39 sec) 
Heartbeat CPU 6 instructions: 430000001 cycles: 549017317 heartbeat IPC: 0.822799 cumulative IPC: 0.745605 (Simulation time: 3 hr 21 min 20 sec) 
Heartbeat CPU 4 instructions: 870000003 cycles: 550814890 heartbeat IPC: 1.57934 cumulative IPC: 1.55137 (Simulation time: 3 hr 21 min 53 sec) 
Heartbeat CPU 3 instructions: 230000003 cycles: 551843321 heartbeat IPC: 0.337028 cumulative IPC: 0.374007 (Simulation time: 3 hr 22 min 11 sec) 
Heartbeat CPU 5 instructions: 270000001 cycles: 552689420 heartbeat IPC: 0.400328 cumulative IPC: 0.44414 (Simulation time: 3 hr 22 min 26 sec) 
Heartbeat CPU 1 instructions: 560000000 cycles: 553856366 heartbeat IPC: 0.986163 cumulative IPC: 0.95062 (Simulation time: 3 hr 22 min 47 sec) 
Heartbeat CPU 4 instructions: 880000000 cycles: 557053020 heartbeat IPC: 1.60304 cumulative IPC: 1.55197 (Simulation time: 3 hr 23 min 47 sec) 
Heartbeat CPU 7 instructions: 260000000 cycles: 562121997 heartbeat IPC: 0.401527 cumulative IPC: 0.400414 (Simulation time: 3 hr 25 min 23 sec) 
Heartbeat CPU 6 instructions: 440000000 cycles: 563061981 heartbeat IPC: 0.712014 cumulative IPC: 0.744734 (Simulation time: 3 hr 25 min 42 sec) 
Heartbeat CPU 4 instructions: 890000001 cycles: 563358158 heartbeat IPC: 1.58601 cumulative IPC: 1.55237 (Simulation time: 3 hr 25 min 48 sec) 
Heartbeat CPU 1 instructions: 570000000 cycles: 563998739 heartbeat IPC: 0.985963 cumulative IPC: 0.95128 (Simulation time: 3 hr 26 min 1 sec) 
Heartbeat CPU 0 instructions: 380000000 cycles: 564504192 heartbeat IPC: 0.561095 cumulative IPC: 0.633105 (Simulation time: 3 hr 26 min 11 sec) 
Heartbeat CPU 4 instructions: 900000000 cycles: 569724719 heartbeat IPC: 1.57071 cumulative IPC: 1.55258 (Simulation time: 3 hr 27 min 51 sec) 
Heartbeat CPU 1 instructions: 580000000 cycles: 574129314 heartbeat IPC: 0.987111 cumulative IPC: 0.951937 (Simulation time: 3 hr 29 min 18 sec) 
Heartbeat CPU 6 instructions: 450000001 cycles: 574902214 heartbeat IPC: 0.844578 cumulative IPC: 0.746869 (Simulation time: 3 hr 29 min 33 sec) 
Heartbeat CPU 4 instructions: 910000001 cycles: 575969510 heartbeat IPC: 1.60133 cumulative IPC: 1.55313 (Simulation time: 3 hr 29 min 53 sec) 
Heartbeat CPU 0 instructions: 390000000 cycles: 578185148 heartbeat IPC: 0.730943 cumulative IPC: 0.635508 (Simulation time: 3 hr 30 min 36 sec) 
Heartbeat CPU 2 instructions: 100000000 cycles: 579669053 heartbeat IPC: 0.143234 cumulative IPC: 0.143228 (Simulation time: 3 hr 31 min 5 sec) 
Heartbeat CPU 5 instructions: 280000000 cycles: 579809098 heartbeat IPC: 0.368736 cumulative IPC: 0.44048 (Simulation time: 3 hr 31 min 8 sec) 
Heartbeat CPU 3 instructions: 240000000 cycles: 581680002 heartbeat IPC: 0.335158 cumulative IPC: 0.37194 (Simulation time: 3 hr 31 min 45 sec) 
Heartbeat CPU 4 instructions: 920000000 cycles: 582212093 heartbeat IPC: 1.6019 cumulative IPC: 1.55367 (Simulation time: 3 hr 31 min 55 sec) 
Heartbeat CPU 1 instructions: 590000000 cycles: 584267144 heartbeat IPC: 0.986404 cumulative IPC: 0.952557 (Simulation time: 3 hr 32 min 36 sec) 
Heartbeat CPU 7 instructions: 270000000 cycles: 587143404 heartbeat IPC: 0.399658 cumulative IPC: 0.40038 (Simulation time: 3 hr 33 min 35 sec) 
Heartbeat CPU 4 instructions: 930000003 cycles: 588505417 heartbeat IPC: 1.58899 cumulative IPC: 1.55407 (Simulation time: 3 hr 34 min 2 sec) 
Heartbeat CPU 6 instructions: 460000000 cycles: 588965980 heartbeat IPC: 0.711047 cumulative IPC: 0.745982 (Simulation time: 3 hr 34 min 11 sec) 
Heartbeat CPU 0 instructions: 400000000 cycles: 590974497 heartbeat IPC: 0.781901 cumulative IPC: 0.638793 (Simulation time: 3 hr 34 min 49 sec) 
Heartbeat CPU 1 instructions: 600000000 cycles: 594397688 heartbeat IPC: 0.987114 cumulative IPC: 0.953168 (Simulation time: 3 hr 35 min 52 sec) 
Heartbeat CPU 4 instructions: 940000000 cycles: 594881225 heartbeat IPC: 1.56843 cumulative IPC: 1.55423 (Simulation time: 3 hr 36 min 1 sec) 
Heartbeat CPU 5 instructions: 290000000 cycles: 601813355 heartbeat IPC: 0.454458 cumulative IPC: 0.441009 (Simulation time: 3 hr 38 min 6 sec) 
Heartbeat CPU 4 instructions: 950000001 cycles: 601843668 heartbeat IPC: 1.43628 cumulative IPC: 1.55281 (Simulation time: 3 hr 38 min 7 sec) 
Heartbeat CPU 0 instructions: 410000001 cycles: 602484222 heartbeat IPC: 0.868831 cumulative IPC: 0.643347 (Simulation time: 3 hr 38 min 19 sec) 
Heartbeat CPU 1 instructions: 610000003 cycles: 604547050 heartbeat IPC: 0.985284 cumulative IPC: 0.953727 (Simulation time: 3 hr 38 min 58 sec) 
Heartbeat CPU 4 instructions: 960000000 cycles: 608158270 heartbeat IPC: 1.58363 cumulative IPC: 1.55314 (Simulation time: 3 hr 40 min 8 sec) 
Heartbeat CPU 6 instructions: 470000000 cycles: 608367829 heartbeat IPC: 0.515415 cumulative IPC: 0.738364 (Simulation time: 3 hr 40 min 12 sec) 
Heartbeat CPU 3 instructions: 250000001 cycles: 610088190 heartbeat IPC: 0.352011 cumulative IPC: 0.370978 (Simulation time: 3 hr 40 min 48 sec) 
Heartbeat CPU 7 instructions: 280000000 cycles: 612383813 heartbeat IPC: 0.39619 cumulative IPC: 0.400201 (Simulation time: 3 hr 41 min 28 sec) 
Heartbeat CPU 4 instructions: 970000002 cycles: 614546001 heartbeat IPC: 1.5655 cumulative IPC: 1.55328 (Simulation time: 3 hr 42 min 8 sec) 
Heartbeat CPU 0 instructions: 420000000 cycles: 614666021 heartbeat IPC: 0.820897 cumulative IPC: 0.646991 (Simulation time: 3 hr 42 min 10 sec) 
Heartbeat CPU 1 instructions: 620000000 cycles: 614682596 heartbeat IPC: 0.986626 cumulative IPC: 0.954288 (Simulation time: 3 hr 42 min 10 sec) 
Heartbeat CPU 4 instructions: 980000000 cycles: 622095487 heartbeat IPC: 1.32459 cumulative IPC: 1.5504 (Simulation time: 3 hr 44 min 25 sec) 
Heartbeat CPU 1 instructions: 630000000 cycles: 624820026 heartbeat IPC: 0.986443 cumulative IPC: 0.954828 (Simulation time: 3 hr 45 min 16 sec) 
Heartbeat CPU 6 instructions: 480000000 cycles: 627441614 heartbeat IPC: 0.52428 cumulative IPC: 0.731629 (Simulation time: 3 hr 46 min 5 sec) 
Heartbeat CPU 0 instructions: 430000003 cycles: 628377595 heartbeat IPC: 0.729311 cumulative IPC: 0.64885 (Simulation time: 3 hr 46 min 23 sec) 
Heartbeat CPU 4 instructions: 990000000 cycles: 628427636 heartbeat IPC: 1.57924 cumulative IPC: 1.5507 (Simulation time: 3 hr 46 min 24 sec) 
Heartbeat CPU 5 instructions: 300000000 cycles: 628873198 heartbeat IPC: 0.369551 cumulative IPC: 0.437828 (Simulation time: 3 hr 46 min 33 sec) 
Heartbeat CPU 4 instructions: 1000000000 cycles: 634770855 heartbeat IPC: 1.57649 cumulative IPC: 1.55097 (Simulation time: 3 hr 48 min 29 sec) 
Heartbeat CPU 1 instructions: 640000000 cycles: 634953180 heartbeat IPC: 0.98686 cumulative IPC: 0.955357 (Simulation time: 3 hr 48 min 32 sec) 
Heartbeat CPU 7 instructions: 290000002 cycles: 636785762 heartbeat IPC: 0.409803 cumulative IPC: 0.400582 (Simulation time: 3 hr 49 min 9 sec) 
Heartbeat CPU 3 instructions: 260000000 cycles: 637424140 heartbeat IPC: 0.365819 cumulative IPC: 0.37075 (Simulation time: 3 hr 49 min 21 sec) 
Heartbeat CPU 6 instructions: 490000000 cycles: 640409158 heartbeat IPC: 0.771156 cumulative IPC: 0.732457 (Simulation time: 3 hr 50 min 18 sec) 
Heartbeat CPU 4 instructions: 1010000000 cycles: 641037000 heartbeat IPC: 1.59588 cumulative IPC: 1.55142 (Simulation time: 3 hr 50 min 31 sec) 
Heartbeat CPU 0 instructions: 440000000 cycles: 642136403 heartbeat IPC: 0.726807 cumulative IPC: 0.650577 (Simulation time: 3 hr 50 min 53 sec) 
Heartbeat CPU 1 instructions: 650000002 cycles: 645100856 heartbeat IPC: 0.985448 cumulative IPC: 0.955847 (Simulation time: 3 hr 51 min 51 sec) 
Heartbeat CPU 4 instructions: 1020000000 cycles: 647358664 heartbeat IPC: 1.58186 cumulative IPC: 1.55173 (Simulation time: 3 hr 52 min 33 sec) 
Heartbeat CPU 2 instructions: 110000003 cycles: 649937817 heartbeat IPC: 0.142311 cumulative IPC: 0.143125 (Simulation time: 3 hr 53 min 21 sec) 
Heartbeat CPU 5 instructions: 310000002 cycles: 653407446 heartbeat IPC: 0.407594 cumulative IPC: 0.436655 (Simulation time: 3 hr 54 min 26 sec) 
Heartbeat CPU 4 instructions: 1030000003 cycles: 653890519 heartbeat IPC: 1.53096 cumulative IPC: 1.55152 (Simulation time: 3 hr 54 min 36 sec) 
Heartbeat CPU 1 instructions: 660000000 cycles: 655235007 heartbeat IPC: 0.986762 cumulative IPC: 0.956341 (Simulation time: 3 hr 55 min 2 sec) 
Heartbeat CPU 0 instructions: 450000001 cycles: 655639700 heartbeat IPC: 0.74056 cumulative IPC: 0.652492 (Simulation time: 3 hr 55 min 11 sec) 
Heartbeat CPU 6 instructions: 500000000 cycles: 656141186 heartbeat IPC: 0.635646 cumulative IPC: 0.730059 (Simulation time: 3 hr 55 min 21 sec) 
Heartbeat CPU 4 instructions: 1040000000 cycles: 661043838 heartbeat IPC: 1.39795 cumulative IPC: 1.5498 (Simulation time: 3 hr 57 min 2 sec) 
Heartbeat CPU 7 instructions: 300000000 cycles: 664131383 heartbeat IPC: 0.365689 cumulative IPC: 0.399098 (Simulation time: 3 hr 57 min 55 sec) 
Heartbeat CPU 1 instructions: 670000001 cycles: 665376322 heartbeat IPC: 0.986066 cumulative IPC: 0.956809 (Simulation time: 3 hr 58 min 16 sec) 
Heartbeat CPU 4 instructions: 1050000002 cycles: 667430085 heartbeat IPC: 1.56587 cumulative IPC: 1.54996 (Simulation time: 3 hr 58 min 52 sec) 
Heartbeat CPU 3 instructions: 270000000 cycles: 668449836 heartbeat IPC: 0.322313 cumulative IPC: 0.368428 (Simulation time: 3 hr 59 min 10 sec) 
Heartbeat CPU 0 instructions: 460000000 cycles: 668612822 heartbeat IPC: 0.770824 cumulative IPC: 0.654863 (Simulation time: 3 hr 59 min 13 sec) 
Heartbeat CPU 4 instructions: 1060000000 cycles: 673681361 heartbeat IPC: 1.59967 cumulative IPC: 1.55044 (Simulation time: 4 hr 0 min 43 sec) 
Heartbeat CPU 6 instructions: 510000001 cycles: 675056279 heartbeat IPC: 0.528678 cumulative IPC: 0.724234 (Simulation time: 4 hr 1 min 8 sec) 
Heartbeat CPU 5 instructions: 320000000 cycles: 675499836 heartbeat IPC: 0.452644 cumulative IPC: 0.437194 (Simulation time: 4 hr 1 min 17 sec) 
Heartbeat CPU 1 instructions: 680000000 cycles: 675509785 heartbeat IPC: 0.986829 cumulative IPC: 0.957273 (Simulation time: 4 hr 1 min 17 sec) 
Heartbeat CPU 4 instructions: 1070000001 cycles: 680135198 heartbeat IPC: 1.54947 cumulative IPC: 1.55043 (Simulation time: 4 hr 2 min 45 sec) 
Heartbeat CPU 0 instructions: 470000001 cycles: 681648933 heartbeat IPC: 0.7671 cumulative IPC: 0.657078 (Simulation time: 4 hr 3 min 14 sec) 
Heartbeat CPU 1 instructions: 690000000 cycles: 685655916 heartbeat IPC: 0.985597 cumulative IPC: 0.957706 (Simulation time: 4 hr 4 min 27 sec) 
Heartbeat CPU 4 instructions: 1080000000 cycles: 687290069 heartbeat IPC: 1.39765 cumulative IPC: 1.54879 (Simulation time: 4 hr 4 min 57 sec) 
Heartbeat CPU 7 instructions: 310000003 cycles: 688819862 heartbeat IPC: 0.405047 cumulative IPC: 0.399318 (Simulation time: 4 hr 5 min 26 sec) 
Heartbeat CPU 5 instructions: 330000000 cycles: 689512999 heartbeat IPC: 0.713615 cumulative IPC: 0.44299 (Simulation time: 4 hr 5 min 39 sec) 
Heartbeat CPU 4 instructions: 1090000001 cycles: 693531609 heartbeat IPC: 1.60217 cumulative IPC: 1.54928 (Simulation time: 4 hr 6 min 55 sec) 
Heartbeat CPU 0 instructions: 480000000 cycles: 695013491 heartbeat IPC: 0.748248 cumulative IPC: 0.658886 (Simulation time: 4 hr 7 min 23 sec) 
Heartbeat CPU 1 instructions: 700000000 cycles: 695793096 heartbeat IPC: 0.986468 cumulative IPC: 0.958138 (Simulation time: 4 hr 7 min 38 sec) 
Heartbeat CPU 3 instructions: 280000000 cycles: 698897240 heartbeat IPC: 0.328435 cumulative IPC: 0.366631 (Simulation time: 4 hr 8 min 36 sec) 
Heartbeat CPU 4 instructions: 1100000000 cycles: 699743325 heartbeat IPC: 1.60986 cumulative IPC: 1.54984 (Simulation time: 4 hr 8 min 52 sec) 
Heartbeat CPU 6 instructions: 520000000 cycles: 700961263 heartbeat IPC: 0.386026 cumulative IPC: 0.711347 (Simulation time: 4 hr 9 min 15 sec) 
Heartbeat CPU 1 instructions: 710000000 cycles: 705929277 heartbeat IPC: 0.986565 cumulative IPC: 0.958559 (Simulation time: 4 hr 10 min 47 sec) 
Heartbeat CPU 4 instructions: 1110000000 cycles: 706102739 heartbeat IPC: 1.57247 cumulative IPC: 1.55005 (Simulation time: 4 hr 10 min 50 sec) 
Heartbeat CPU 5 instructions: 340000000 cycles: 707512551 heartbeat IPC: 0.555569 cumulative IPC: 0.445942 (Simulation time: 4 hr 11 min 18 sec) 
Heartbeat CPU 0 instructions: 490000001 cycles: 708112656 heartbeat IPC: 0.763408 cumulative IPC: 0.660879 (Simulation time: 4 hr 11 min 29 sec) 
Heartbeat CPU 4 instructions: 1120000000 cycles: 712524566 heartbeat IPC: 1.55719 cumulative IPC: 1.55011 (Simulation time: 4 hr 12 min 53 sec) 
Heartbeat CPU 7 instructions: 320000000 cycles: 713175022 heartbeat IPC: 0.41059 cumulative IPC: 0.399715 (Simulation time: 4 hr 13 min 5 sec) 
Heartbeat CPU 1 instructions: 720000000 cycles: 716065299 heartbeat IPC: 0.98658 cumulative IPC: 0.958967 (Simulation time: 4 hr 14 min 2 sec) 
Heartbeat CPU 0 instructions: 500000000 cycles: 717927965 heartbeat IPC: 1.01882 cumulative IPC: 0.665921 (Simulation time: 4 hr 14 min 39 sec) 
Heartbeat CPU 4 instructions: 1130000002 cycles: 718950765 heartbeat IPC: 1.55613 cumulative IPC: 1.55017 (Simulation time: 4 hr 14 min 59 sec) 
Heartbeat CPU 2 instructions: 120000000 cycles: 719929203 heartbeat IPC: 0.142875 cumulative IPC: 0.1431 (Simulation time: 4 hr 15 min 19 sec) 
Finished CPU 2 instructions: 100000000 cycles: 698811204 cumulative IPC: 0.1431 (Simulation time: 4 hr 15 min 19 sec) 

CPU 0 Branch Prediction Accuracy: 97.8877% MPKI: 2.69019

CPU 1 Branch Prediction Accuracy: 98.0305% MPKI: 2.81204

CPU 2 Branch Prediction Accuracy: 92.4261% MPKI: 6.09924

CPU 3 Branch Prediction Accuracy: 91.9461% MPKI: 13.9352

CPU 4 Branch Prediction Accuracy: 96.9333% MPKI: 4.08004

CPU 5 Branch Prediction Accuracy: 99.21% MPKI: 1.91558

CPU 6 Branch Prediction Accuracy: 98.247% MPKI: 2.22097

CPU 7 Branch Prediction Accuracy: 99.2408% MPKI: 1.64587

ChampSim completed all CPUs

Total Simulation Statistics (not including warmup)

CPU 0 cumulative IPC: 0.666932 instructions: 466059537 cycles: 698811204
L1D TOTAL     ACCESS:  174082465  HIT:  173576153  MISS:     506312
L1D LOAD      ACCESS:   76377306  HIT:   75921622  MISS:     455684
L1D RFO       ACCESS:   97705159  HIT:   97654531  MISS:      50628
L1D PREFETCH  ACCESS:          0  HIT:          0  MISS:          0
L1D WRITEBACK ACCESS:          0  HIT:          0  MISS:          0
L1I TOTAL     ACCESS:  127308523  HIT:  126704184  MISS:     604339
L1I LOAD      ACCESS:  127308523  HIT:  126704184  MISS:     604339
L1I RFO       ACCESS:          0  HIT:          0  MISS:          0
L1I PREFETCH  ACCESS:          0  HIT:          0  MISS:          0
L1I WRITEBACK ACCESS:          0  HIT:          0  MISS:          0
L2C TOTAL     ACCESS:    1255883  HIT:     956550  MISS:     299333
L2C LOAD      ACCESS:    1060015  HIT:     782010  MISS:     278005
L2C RFO       ACCESS:      50617  HIT:      31107  MISS:      19510
L2C PREFETCH  ACCESS:          0  HIT:          0  MISS:          0
L2C WRITEBACK ACCESS:     145251  HIT:     143433  MISS:       1818
LLC TOTAL     ACCESS:     356681  HIT:     175121  MISS:     181560
LLC LOAD      ACCESS:     278005  HIT:     112922  MISS:     165083
LLC RFO       ACCESS:      19509  HIT:       7797  MISS:      11712
LLC PREFETCH  ACCESS:          0  HIT:          0  MISS:          0
LLC WRITEBACK ACCESS:      59167  HIT:      54402  MISS:       4765

CPU 1 cumulative IPC: 0.959122 instructions: 670245282 cycles: 698811204
L1D TOTAL     ACCESS:  132330887  HIT:  131546004  MISS:     784883
L1D LOAD      ACCESS:   86475071  HIT:   85779649  MISS:     695422
L1D RFO       ACCESS:   45855816  HIT:   45766355  MISS:      89461
L1D PREFETCH  ACCESS:          0  HIT:          0  MISS:          0
L1D WRITEBACK ACCESS:          0  HIT:          0  MISS:          0
L1I TOTAL     ACCESS:  162580716  HIT:  162580642  MISS:         74
L1I LOAD      ACCESS:  162580716  HIT:  162580642  MISS:         74
L1I RFO       ACCESS:          0  HIT:          0  MISS:          0
L1I PREFETCH  ACCESS:          0  HIT:          0  MISS:          0
L1I WRITEBACK ACCESS:          0  HIT:          0  MISS:          0
L2C TOTAL     ACCESS:     906257  HIT:     658523  MISS:     247734
L2C LOAD      ACCESS:     695457  HIT:     500826  MISS:     194631
L2C RFO       ACCESS:      89433  HIT:      36440  MISS:      52993
L2C PREFETCH  ACCESS:          0  HIT:          0  MISS:          0
L2C WRITEBACK ACCESS:     121367  HIT:     121257  MISS:        110
LLC TOTAL     ACCESS:     326060  HIT:     205933  MISS:     120127
LLC LOAD      ACCESS:     194631  HIT:      97945  MISS:      96686
LLC RFO       ACCESS:      52993  HIT:      33124  MISS:      19869
LLC PREFETCH  ACCESS:          0  HIT:          0  MISS:          0
LLC WRITEBACK ACCESS:      78436  HIT:      74864  MISS:       3572

CPU 2 cumulative IPC: 0.1431 instructions: 100000000 cycles: 698811204
L1D TOTAL     ACCESS:   53082290  HIT:   44059401  MISS:    9022889
L1D LOAD      ACCESS:   33174711  HIT:   28525255  MISS:    4649456
L1D RFO       ACCESS:   19907579  HIT:   15534146  MISS:    4373433
L1D PREFETCH  ACCESS:          0  HIT:          0  MISS:          0
L1D WRITEBACK ACCESS:          0  HIT:          0  MISS:          0
L1I TOTAL     ACCESS:   24217303  HIT:   24217303  MISS:          0
L1I LOAD      ACCESS:   24217303  HIT:   24217303  MISS:          0
L1I RFO       ACCESS:          0  HIT:          0  MISS:          0
L1I PREFETCH  ACCESS:          0  HIT:          0  MISS:          0
L1I WRITEBACK ACCESS:          0  HIT:          0  MISS:          0
L2C TOTAL     ACCESS:   18045726  HIT:    9291581  MISS:    8754145
L2C LOAD      ACCESS:    4649404  HIT:     273249  MISS:    4376155
L2C RFO       ACCESS:    4373433  HIT:         15  MISS:    4373418
L2C PREFETCH  ACCESS:          0  HIT:          0  MISS:          0
L2C WRITEBACK ACCESS:    9022889  HIT:    9018317  MISS:       4572
LLC TOTAL     ACCESS:   17500309  HIT:   10822435  MISS:    6677874
LLC LOAD      ACCESS:    4376095  HIT:    1871209  MISS:    2504886
LLC RFO       ACCESS:    4373418  HIT:     200430  MISS:    4172988
LLC PREFETCH  ACCESS:          0  HIT:          0  MISS:          0
LLC WRITEBACK ACCESS:    8750796  HIT:    8750796  MISS:          0

CPU 3 cumulative IPC: 0.366092 instructions: 255829256 cycles: 698811205
L1D TOTAL     ACCESS:   86126762  HIT:   83472795  MISS:    2653967
L1D LOAD      ACCESS:   53125970  HIT:   50764417  MISS:    2361553
L1D RFO       ACCESS:   33000792  HIT:   32708378  MISS:     292414
L1D PREFETCH  ACCESS:          0  HIT:          0  MISS:          0
L1D WRITEBACK ACCESS:          0  HIT:          0  MISS:          0
L1I TOTAL     ACCESS:   68882828  HIT:   67794554  MISS:    1088274
L1I LOAD      ACCESS:   68882828  HIT:   67794554  MISS:    1088274
L1I RFO       ACCESS:          0  HIT:          0  MISS:          0
L1I PREFETCH  ACCESS:          0  HIT:          0  MISS:          0
L1I WRITEBACK ACCESS:          0  HIT:          0  MISS:          0
L2C TOTAL     ACCESS:    4413692  HIT:    3182091  MISS:    1231601
L2C LOAD      ACCESS:    3449800  HIT:    2400615  MISS:    1049185
L2C RFO       ACCESS:     292403  HIT:     114232  MISS:     178171
L2C PREFETCH  ACCESS:          0  HIT:          0  MISS:          0
L2C WRITEBACK ACCESS:     671489  HIT:     667244  MISS:       4245
LLC TOTAL     ACCESS:    1572548  HIT:    1212514  MISS:     360034
LLC LOAD      ACCESS:    1049180  HIT:     803078  MISS:     246102
LLC RFO       ACCESS:     178171  HIT:      72113  MISS:     106058
LLC PREFETCH  ACCESS:          0  HIT:          0  MISS:          0
LLC WRITEBACK ACCESS:     345197  HIT:     337323  MISS:       7874

CPU 4 cumulative IPC: 1.55027 instructions: 1083343434 cycles: 698811205
L1D TOTAL     ACCESS:  315724485  HIT:  315724368  MISS:        117
L1D LOAD      ACCESS:  137479116  HIT:  137479070  MISS:         46
L1D RFO       ACCESS:  178245369  HIT:  178245298  MISS:         71
L1D PREFETCH  ACCESS:          0  HIT:          0  MISS:          0
L1D WRITEBACK ACCESS:          0  HIT:          0  MISS:          0
L1I TOTAL     ACCESS:  238403284  HIT:  238382998  MISS:      20286
L1I LOAD      ACCESS:  238403284  HIT:  238382998  MISS:      20286
L1I RFO       ACCESS:          0  HIT:          0  MISS:          0
L1I PREFETCH  ACCESS:          0  HIT:          0  MISS:          0
L1I WRITEBACK ACCESS:          0  HIT:          0  MISS:          0
L2C TOTAL     ACCESS:      20403  HIT:      19272  MISS:       1131
L2C LOAD      ACCESS:      20332  HIT:      19272  MISS:       1060
L2C RFO       ACCESS:         71  HIT:          0  MISS:         71
L2C PREFETCH  ACCESS:          0  HIT:          0  MISS:          0
L2C WRITEBACK ACCESS:          0  HIT:          0  MISS:          0
LLC TOTAL     ACCESS:       1131  HIT:          0  MISS:       1131
LLC LOAD      ACCESS:       1060  HIT:          0  MISS:       1060
LLC RFO       ACCESS:         71  HIT:          0  MISS:         71
LLC PREFETCH  ACCESS:          0  HIT:          0  MISS:          0
LLC WRITEBACK ACCESS:          0  HIT:          0  MISS:          0

CPU 5 cumulative IPC: 0.444293 instructions: 310477212 cycles: 698811205
L1D TOTAL     ACCESS:   79029392  HIT:   66529216  MISS:   12500176
L1D LOAD      ACCESS:   55152081  HIT:   43177008  MISS:   11975073
L1D RFO       ACCESS:   23877311  HIT:   23352208  MISS:     525103
L1D PREFETCH  ACCESS:          0  HIT:          0  MISS:          0
L1D WRITEBACK ACCESS:          0  HIT:          0  MISS:          0
L1I TOTAL     ACCESS:  134354262  HIT:  133516289  MISS:     837973
L1I LOAD      ACCESS:  134354262  HIT:  133516289  MISS:     837973
L1I RFO       ACCESS:          0  HIT:          0  MISS:          0
L1I PREFETCH  ACCESS:          0  HIT:          0  MISS:          0
L1I WRITEBACK ACCESS:          0  HIT:          0  MISS:          0
L2C TOTAL     ACCESS:   14236476  HIT:   12632008  MISS:    1604468
L2C LOAD      ACCESS:   12812987  HIT:   11603521  MISS:    1209466
L2C RFO       ACCESS:     525090  HIT:     130228  MISS:     394862
L2C PREFETCH  ACCESS:          0  HIT:          0  MISS:          0
L2C WRITEBACK ACCESS:     898399  HIT:     898259  MISS:        140
LLC TOTAL     ACCESS:    2117424  HIT:    1617791  MISS:     499633
LLC LOAD      ACCESS:    1209456  HIT:    1082152  MISS:     127304
LLC RFO       ACCESS:     394862  HIT:      31301  MISS:     363561
LLC PREFETCH  ACCESS:          0  HIT:          0  MISS:          0
LLC WRITEBACK ACCESS:     513106  HIT:     504338  MISS:       8768

CPU 6 cumulative IPC: 0.703512 instructions: 491622016 cycles: 698811205
L1D TOTAL     ACCESS:  184473440  HIT:  183964868  MISS:     508572
L1D LOAD      ACCESS:   80592219  HIT:   80119660  MISS:     472559
L1D RFO       ACCESS:  103881221  HIT:  103845208  MISS:      36013
L1D PREFETCH  ACCESS:          0  HIT:          0  MISS:          0
L1D WRITEBACK ACCESS:          0  HIT:          0  MISS:          0
L1I TOTAL     ACCESS:  133077231  HIT:  132492120  MISS:     585111
L1I LOAD      ACCESS:  133077231  HIT:  132492120  MISS:     585111
L1I RFO       ACCESS:          0  HIT:          0  MISS:          0
L1I PREFETCH  ACCESS:          0  HIT:          0  MISS:          0
L1I WRITEBACK ACCESS:          0  HIT:          0  MISS:          0
L2C TOTAL     ACCESS:    1212638  HIT:    1075525  MISS:     137113
L2C LOAD      ACCESS:    1057525  HIT:     932128  MISS:     125397
L2C RFO       ACCESS:      36006  HIT:      25148  MISS:      10858
L2C PREFETCH  ACCESS:          0  HIT:          0  MISS:          0
L2C WRITEBACK ACCESS:     119107  HIT:     118249  MISS:        858
LLC TOTAL     ACCESS:     165618  HIT:      82530  MISS:      83088
LLC LOAD      ACCESS:     125397  HIT:      56521  MISS:      68876
LLC RFO       ACCESS:      10858  HIT:       3009  MISS:       7849
LLC PREFETCH  ACCESS:          0  HIT:          0  MISS:          0
LLC WRITEBACK ACCESS:      29363  HIT:      23000  MISS:       6363

CPU 7 cumulative IPC: 0.400052 instructions: 279560592 cycles: 698811205
L1D TOTAL     ACCESS:   65436285  HIT:   57641646  MISS:    7794639
L1D LOAD      ACCESS:   52102330  HIT:   44480878  MISS:    7621452
L1D RFO       ACCESS:   13333955  HIT:   13160768  MISS:     173187
L1D PREFETCH  ACCESS:          0  HIT:          0  MISS:          0
L1D WRITEBACK ACCESS:          0  HIT:          0  MISS:          0
L1I TOTAL     ACCESS:   89161707  HIT:   88157677  MISS:    1004030
L1I LOAD      ACCESS:   89161707  HIT:   88157677  MISS:    1004030
L1I RFO       ACCESS:          0  HIT:          0  MISS:          0
L1I PREFETCH  ACCESS:          0  HIT:          0  MISS:          0
L1I WRITEBACK ACCESS:          0  HIT:          0  MISS:          0
L2C TOTAL     ACCESS:    9159251  HIT:    1862919  MISS:    7296332
L2C LOAD      ACCESS:    8625307  HIT:    1418960  MISS:    7206347
L2C RFO       ACCESS:     173162  HIT:      85756  MISS:      87406
L2C PREFETCH  ACCESS:          0  HIT:          0  MISS:          0
L2C WRITEBACK ACCESS:     360782  HIT:     358203  MISS:       2579
LLC TOTAL     ACCESS:    7444773  HIT:    7177886  MISS:     266887
LLC LOAD      ACCESS:    7206346  HIT:    6979923  MISS:     226423
LLC RFO       ACCESS:      87373  HIT:      46956  MISS:      40417
LLC PREFETCH  ACCESS:          0  HIT:          0  MISS:          0
LLC WRITEBACK ACCESS:     151054  HIT:     151007  MISS:         47

Region of Interest Statistics

CPU 0 cumulative IPC: 0.751824 instructions: 100000000 cycles: 133009877
L1D TOTAL     ACCESS:   37381169  HIT:   37373002  MISS:       8167
L1D LOAD      ACCESS:   15792893  HIT:   15785074  MISS:       7819
L1D RFO       ACCESS:   21588276  HIT:   21587928  MISS:        348
L1D PREFETCH  ACCESS:          0  HIT:          0  MISS:          0
L1D WRITEBACK ACCESS:          0  HIT:          0  MISS:          0
L1D PREFETCH  REQUESTED:          0  ISSUED:          0  USEFUL:          0  USELESS:          0
L1I TOTAL     ACCESS:   27630436  HIT:   27627185  MISS:       3251
L1I LOAD      ACCESS:   27630436  HIT:   27627185  MISS:       3251
L1I RFO       ACCESS:          0  HIT:          0  MISS:          0
L1I PREFETCH  ACCESS:          0  HIT:          0  MISS:          0
L1I WRITEBACK ACCESS:          0  HIT:          0  MISS:          0
L1I PREFETCH  REQUESTED:          0  ISSUED:          0  USEFUL:          0  USELESS:          0
L2C TOTAL     ACCESS:      12390  HIT:       5409  MISS:       6981
L2C LOAD      ACCESS:      11070  HIT:       4307  MISS:       6763
L2C RFO       ACCESS:        348  HIT:        141  MISS:        207
L2C PREFETCH  ACCESS:          0  HIT:          0  MISS:          0
L2C WRITEBACK ACCESS:        972  HIT:        961  MISS:         11
L2C PREFETCH  REQUESTED:          0  ISSUED:          0  USEFUL:          0  USELESS:          0
LLC TOTAL     ACCESS:       7551  HIT:          9  MISS:       7542
LLC LOAD      ACCESS:       6763  HIT:          0  MISS:       6763
LLC RFO       ACCESS:        207  HIT:          2  MISS:        205
LLC PREFETCH  ACCESS:          0  HIT:          0  MISS:          0
LLC WRITEBACK ACCESS:        581  HIT:          7  MISS:        574
LLC PREFETCH  REQUESTED:          0  ISSUED:          0  USEFUL:          0  USELESS:          0
Major fault: 0 Minor fault: 5901

CPU 1 cumulative IPC: 0.828958 instructions: 100000001 cycles: 120633301
L1D TOTAL     ACCESS:   23659357  HIT:   22982189  MISS:     677168
L1D LOAD      ACCESS:   16540494  HIT:   15944099  MISS:     596395
L1D RFO       ACCESS:    7118863  HIT:    7038090  MISS:      80773
L1D PREFETCH  ACCESS:          0  HIT:          0  MISS:          0
L1D WRITEBACK ACCESS:          0  HIT:          0  MISS:          0
L1D PREFETCH  REQUESTED:          0  ISSUED:          0  USEFUL:          0  USELESS:          0
L1I TOTAL     ACCESS:   27879283  HIT:   27879209  MISS:         74
L1I LOAD      ACCESS:   27879283  HIT:   27879209  MISS:         74
L1I RFO       ACCESS:          0  HIT:          0  MISS:          0
L1I PREFETCH  ACCESS:          0  HIT:          0  MISS:          0
L1I WRITEBACK ACCESS:          0  HIT:          0  MISS:          0
L1I PREFETCH  REQUESTED:          0  ISSUED:          0  USEFUL:          0  USELESS:          0
L2C TOTAL     ACCESS:     789582  HIT:     559227  MISS:     230355
L2C LOAD      ACCESS:     596431  HIT:     417666  MISS:     178765
L2C RFO       ACCESS:      80745  HIT:      29258  MISS:      51487
L2C PREFETCH  ACCESS:          0  HIT:          0  MISS:          0
L2C WRITEBACK ACCESS:     112406  HIT:     112303  MISS:        103
L2C PREFETCH  REQUESTED:          0  ISSUED:          0  USEFUL:          0  USELESS:          0
LLC TOTAL     ACCESS:     305468  HIT:     205698  MISS:      99770
LLC LOAD      ACCESS:     178765  HIT:      97834  MISS:      80931
LLC RFO       ACCESS:      51487  HIT:      33114  MISS:      18373
LLC PREFETCH  ACCESS:          0  HIT:          0  MISS:          0
LLC WRITEBACK ACCESS:      75216  HIT:      74750  MISS:        466
LLC PREFETCH  REQUESTED:          0  ISSUED:          0  USEFUL:          0  USELESS:          0
Major fault: 0 Minor fault: 2679

CPU 2 cumulative IPC: 0.1431 instructions: 100000000 cycles: 698811204
L1D TOTAL     ACCESS:   53082290  HIT:   44059401  MISS:    9022889
L1D LOAD      ACCESS:   33174711  HIT:   28525255  MISS:    4649456
L1D RFO       ACCESS:   19907579  HIT:   15534146  MISS:    4373433
L1D PREFETCH  ACCESS:          0  HIT:          0  MISS:          0
L1D WRITEBACK ACCESS:          0  HIT:          0  MISS:          0
L1D PREFETCH  REQUESTED:          0  ISSUED:          0  USEFUL:          0  USELESS:          0
L1I TOTAL     ACCESS:   24217303  HIT:   24217303  MISS:          0
L1I LOAD      ACCESS:   24217303  HIT:   24217303  MISS:          0
L1I RFO       ACCESS:          0  HIT:          0  MISS:          0
L1I PREFETCH  ACCESS:          0  HIT:          0  MISS:          0
L1I WRITEBACK ACCESS:          0  HIT:          0  MISS:          0
L1I PREFETCH  REQUESTED:          0  ISSUED:          0  USEFUL:          0  USELESS:          0
L2C TOTAL     ACCESS:   18045726  HIT:    9291581  MISS:    8754145
L2C LOAD      ACCESS:    4649404  HIT:     273249  MISS:    4376155
L2C RFO       ACCESS:    4373433  HIT:         15  MISS:    4373418
L2C PREFETCH  ACCESS:          0  HIT:          0  MISS:          0
L2C WRITEBACK ACCESS:    9022889  HIT:    9018317  MISS:       4572
L2C PREFETCH  REQUESTED:          0  ISSUED:          0  USEFUL:          0  USELESS:          0
LLC TOTAL     ACCESS:   17500309  HIT:   10822435  MISS:    6677874
LLC LOAD      ACCESS:    4376095  HIT:    1871209  MISS:    2504886
LLC RFO       ACCESS:    4373418  HIT:     200430  MISS:    4172988
LLC PREFETCH  ACCESS:          0  HIT:          0  MISS:          0
LLC WRITEBACK ACCESS:    8750796  HIT:    8750796  MISS:          0
LLC PREFETCH  REQUESTED:          0  ISSUED:          0  USEFUL:          0  USELESS:          0
Major fault: 0 Minor fault: 257383

CPU 3 cumulative IPC: 0.396207 instructions: 100000001 cycles: 252393509
L1D TOTAL     ACCESS:   31425740  HIT:   30339481  MISS:    1086259
L1D LOAD      ACCESS:   19577326  HIT:   18594295  MISS:     983031
L1D RFO       ACCESS:   11848414  HIT:   11745186  MISS:     103228
L1D PREFETCH  ACCESS:          0  HIT:          0  MISS:          0
L1D WRITEBACK ACCESS:          0  HIT:          0  MISS:          0
L1D PREFETCH  REQUESTED:          0  ISSUED:          0  USEFUL:          0  USELESS:          0
L1I TOTAL     ACCESS:   27466812  HIT:   27238147  MISS:     228665
L1I LOAD      ACCESS:   27466812  HIT:   27238147  MISS:     228665
L1I RFO       ACCESS:          0  HIT:          0  MISS:          0
L1I PREFETCH  ACCESS:          0  HIT:          0  MISS:          0
L1I WRITEBACK ACCESS:          0  HIT:          0  MISS:          0
L1I PREFETCH  REQUESTED:          0  ISSUED:          0  USEFUL:          0  USELESS:          0
L2C TOTAL     ACCESS:    1559932  HIT:     953870  MISS:     606062
L2C LOAD      ACCESS:    1211689  HIT:     681841  MISS:     529848
L2C RFO       ACCESS:     103224  HIT:      28647  MISS:      74577
L2C PREFETCH  ACCESS:          0  HIT:          0  MISS:          0
L2C WRITEBACK ACCESS:     245019  HIT:     243382  MISS:       1637
L2C PREFETCH  REQUESTED:          0  ISSUED:          0  USEFUL:          0  USELESS:          0
LLC TOTAL     ACCESS:     758760  HIT:     618663  MISS:     140097
LLC LOAD      ACCESS:     529846  HIT:     439137  MISS:      90709
LLC RFO       ACCESS:      74577  HIT:      25922  MISS:      48655
LLC PREFETCH  ACCESS:          0  HIT:          0  MISS:          0
LLC WRITEBACK ACCESS:     154337  HIT:     153604  MISS:        733
LLC PREFETCH  REQUESTED:          0  ISSUED:          0  USEFUL:          0  USELESS:          0
Major fault: 0 Minor fault: 11248

CPU 4 cumulative IPC: 1.57128 instructions: 100000002 cycles: 63642536
L1D TOTAL     ACCESS:   29693720  HIT:   29693718  MISS:          2
L1D LOAD      ACCESS:   12902656  HIT:   12902654  MISS:          2
L1D RFO       ACCESS:   16791064  HIT:   16791064  MISS:          0
L1D PREFETCH  ACCESS:          0  HIT:          0  MISS:          0
L1D WRITEBACK ACCESS:          0  HIT:          0  MISS:          0
L1D PREFETCH  REQUESTED:          0  ISSUED:          0  USEFUL:          0  USELESS:          0
L1I TOTAL     ACCESS:   21896861  HIT:   21896861  MISS:          0
L1I LOAD      ACCESS:   21896861  HIT:   21896861  MISS:          0
L1I RFO       ACCESS:          0  HIT:          0  MISS:          0
L1I PREFETCH  ACCESS:          0  HIT:          0  MISS:          0
L1I WRITEBACK ACCESS:          0  HIT:          0  MISS:          0
L1I PREFETCH  REQUESTED:          0  ISSUED:          0  USEFUL:          0  USELESS:          0
L2C TOTAL     ACCESS:          2  HIT:          0  MISS:          2
L2C LOAD      ACCESS:          2  HIT:          0  MISS:          2
L2C RFO       ACCESS:          0  HIT:          0  MISS:          0
L2C PREFETCH  ACCESS:          0  HIT:          0  MISS:          0
L2C WRITEBACK ACCESS:          0  HIT:          0  MISS:          0
L2C PREFETCH  REQUESTED:          0  ISSUED:          0  USEFUL:          0  USELESS:          0
LLC TOTAL     ACCESS:          2  HIT:          0  MISS:          2
LLC LOAD      ACCESS:          2  HIT:          0  MISS:          2
LLC RFO       ACCESS:          0  HIT:          0  MISS:          0
LLC PREFETCH  ACCESS:          0  HIT:          0  MISS:          0
LLC WRITEBACK ACCESS:          0  HIT:          0  MISS:          0
LLC PREFETCH  REQUESTED:          0  ISSUED:          0  USEFUL:          0  USELESS:          0
Major fault: 0 Minor fault: 48

CPU 5 cumulative IPC: 0.448046 instructions: 100000000 cycles: 223191466
L1D TOTAL     ACCESS:   24995039  HIT:   20907198  MISS:    4087841
L1D LOAD      ACCESS:   17643174  HIT:   13708440  MISS:    3934734
L1D RFO       ACCESS:    7351865  HIT:    7198758  MISS:     153107
L1D PREFETCH  ACCESS:          0  HIT:          0  MISS:          0
L1D WRITEBACK ACCESS:          0  HIT:          0  MISS:          0
L1D PREFETCH  REQUESTED:          0  ISSUED:          0  USEFUL:          0  USELESS:          0
L1I TOTAL     ACCESS:   43462172  HIT:   43209040  MISS:     253132
L1I LOAD      ACCESS:   43462172  HIT:   43209040  MISS:     253132
L1I RFO       ACCESS:          0  HIT:          0  MISS:          0
L1I PREFETCH  ACCESS:          0  HIT:          0  MISS:          0
L1I WRITEBACK ACCESS:          0  HIT:          0  MISS:          0
L1I PREFETCH  REQUESTED:          0  ISSUED:          0  USEFUL:          0  USELESS:          0
L2C TOTAL     ACCESS:    4614813  HIT:    4116479  MISS:     498334
L2C LOAD      ACCESS:    4187850  HIT:    3801505  MISS:     386345
L2C RFO       ACCESS:     153106  HIT:      41171  MISS:     111935
L2C PREFETCH  ACCESS:          0  HIT:          0  MISS:          0
L2C WRITEBACK ACCESS:     273857  HIT:     273803  MISS:         54
L2C PREFETCH  REQUESTED:          0  ISSUED:          0  USEFUL:          0  USELESS:          0
LLC TOTAL     ACCESS:     649508  HIT:     501685  MISS:     147823
LLC LOAD      ACCESS:     386344  HIT:     342949  MISS:      43395
LLC RFO       ACCESS:     111935  HIT:      10750  MISS:     101185
LLC PREFETCH  ACCESS:          0  HIT:          0  MISS:          0
LLC WRITEBACK ACCESS:     151229  HIT:     147986  MISS:       3243
LLC PREFETCH  REQUESTED:          0  ISSUED:          0  USEFUL:          0  USELESS:          0
Major fault: 0 Minor fault: 2666

CPU 6 cumulative IPC: 0.787697 instructions: 100000001 cycles: 126952344
L1D TOTAL     ACCESS:   37897066  HIT:   37883909  MISS:      13157
L1D LOAD      ACCESS:   15781205  HIT:   15768678  MISS:      12527
L1D RFO       ACCESS:   22115861  HIT:   22115231  MISS:        630
L1D PREFETCH  ACCESS:          0  HIT:          0  MISS:          0
L1D WRITEBACK ACCESS:          0  HIT:          0  MISS:          0
L1D PREFETCH  REQUESTED:          0  ISSUED:          0  USEFUL:          0  USELESS:          0
L1I TOTAL     ACCESS:   26985003  HIT:   26983102  MISS:       1901
L1I LOAD      ACCESS:   26985003  HIT:   26983102  MISS:       1901
L1I RFO       ACCESS:          0  HIT:          0  MISS:          0
L1I PREFETCH  ACCESS:          0  HIT:          0  MISS:          0
L1I WRITEBACK ACCESS:          0  HIT:          0  MISS:          0
L1I PREFETCH  REQUESTED:          0  ISSUED:          0  USEFUL:          0  USELESS:          0
L2C TOTAL     ACCESS:      17124  HIT:      13443  MISS:       3681
L2C LOAD      ACCESS:      14425  HIT:      11121  MISS:       3304
L2C RFO       ACCESS:        630  HIT:        259  MISS:        371
L2C PREFETCH  ACCESS:          0  HIT:          0  MISS:          0
L2C WRITEBACK ACCESS:       2069  HIT:       2063  MISS:          6
L2C PREFETCH  REQUESTED:          0  ISSUED:          0  USEFUL:          0  USELESS:          0
LLC TOTAL     ACCESS:       4077  HIT:          5  MISS:       4072
LLC LOAD      ACCESS:       3304  HIT:          1  MISS:       3303
LLC RFO       ACCESS:        371  HIT:          2  MISS:        369
LLC PREFETCH  ACCESS:          0  HIT:          0  MISS:          0
LLC WRITEBACK ACCESS:        402  HIT:          2  MISS:        400
LLC PREFETCH  REQUESTED:          0  ISSUED:          0  USEFUL:          0  USELESS:          0
Major fault: 0 Minor fault: 4511

CPU 7 cumulative IPC: 0.396763 instructions: 100000002 cycles: 252039874
L1D TOTAL     ACCESS:   23330423  HIT:   20510890  MISS:    2819533
L1D LOAD      ACCESS:   18629190  HIT:   15870069  MISS:    2759121
L1D RFO       ACCESS:    4701233  HIT:    4640821  MISS:      60412
L1D PREFETCH  ACCESS:          0  HIT:          0  MISS:          0
L1D WRITEBACK ACCESS:          0  HIT:          0  MISS:          0
L1D PREFETCH  REQUESTED:          0  ISSUED:          0  USEFUL:          0  USELESS:          0
L1I TOTAL     ACCESS:   32004036  HIT:   31652445  MISS:     351591
L1I LOAD      ACCESS:   32004036  HIT:   31652445  MISS:     351591
L1I RFO       ACCESS:          0  HIT:          0  MISS:          0
L1I PREFETCH  ACCESS:          0  HIT:          0  MISS:          0
L1I WRITEBACK ACCESS:          0  HIT:          0  MISS:          0
L1I PREFETCH  REQUESTED:          0  ISSUED:          0  USEFUL:          0  USELESS:          0
L2C TOTAL     ACCESS:    3297006  HIT:     647243  MISS:    2649763
L2C LOAD      ACCESS:    3110647  HIT:     492652  MISS:    2617995
L2C RFO       ACCESS:      60405  HIT:      29501  MISS:      30904
L2C PREFETCH  ACCESS:          0  HIT:          0  MISS:          0
L2C WRITEBACK ACCESS:     125954  HIT:     125090  MISS:        864
L2C PREFETCH  REQUESTED:          0  ISSUED:          0  USEFUL:          0  USELESS:          0
LLC TOTAL     ACCESS:    2701719  HIT:    2605024  MISS:      96695
LLC LOAD      ACCESS:    2617995  HIT:    2535799  MISS:      82196
LLC RFO       ACCESS:      30900  HIT:      16420  MISS:      14480
LLC PREFETCH  ACCESS:          0  HIT:          0  MISS:          0
LLC WRITEBACK ACCESS:      52824  HIT:      52805  MISS:         19
LLC PREFETCH  REQUESTED:          0  ISSUED:          0  USEFUL:          0  USELESS:          0
Major fault: 0 Minor fault: 11662

DRAM Statistics
 CHANNEL 0
 RQ ROW_BUFFER_HIT:     284593  ROW_BUFFER_MISS:    3794143
 DBUS_CONGESTED:    8547883
 WQ ROW_BUFFER_HIT:     361399  ROW_BUFFER_MISS:    3350908  FULL:          0

 CHANNEL 1
 RQ ROW_BUFFER_HIT:     282325  ROW_BUFFER_MISS:    3797720
 DBUS_CONGESTED:    8547883
 WQ ROW_BUFFER_HIT:     363374  ROW_BUFFER_MISS:    3350631  FULL:          0

 AVG_CONGESTED_CYCLE: 14
