
*** ChampSim Multicore Out-of-Order Simulator ***

Warmup Instructions: 20000000
Simulation Instructions: 100000000
Number of CPUs: 8
LLC sets: 16384
LLC ways: 16
Off-chip DRAM Size: 8192 MB Channels: 2 Width: 64-bit Data Rate: 1600 MT/s

CPU 0 runs /scratch/user/djimenez/champsim-traces/speccpu2017/xz/644.nab_s/644.nab_s-7928B.champsimtrace.xz
CPU 1 runs /scratch/user/djimenez/champsim-traces/speccpu2017/xz/657.xz_s/657.xz_s-2302B.champsimtrace.xz
CPU 2 runs /scratch/user/djimenez/champsim-traces/speccpu2017/xz/649.fotonik3d_s/649.fotonik3d_s-10881B.champsimtrace.xz
CPU 3 runs /scratch/user/djimenez/champsim-traces/speccpu2017/xz/600.perlbench_s/600.perlbench_s-570B.champsimtrace.xz
CPU 4 runs /scratch/user/djimenez/champsim-traces/speccpu2017/xz/649.fotonik3d_s/649.fotonik3d_s-1176B.champsimtrace.xz
CPU 5 runs /scratch/user/djimenez/champsim-traces/speccpu2017/xz/605.mcf_s/605.mcf_s-1536B.champsimtrace.xz
CPU 6 runs /scratch/user/djimenez/champsim-traces/speccpu2017/xz/605.mcf_s/605.mcf_s-472B.champsimtrace.xz
CPU 7 runs /scratch/user/djimenez/champsim-traces/speccpu2017/xz/644.nab_s/644.nab_s-12521B.champsimtrace.xz
Heartbeat CPU 5 instructions: 10000002 cycles: 3660791 heartbeat IPC: 2.73165 cumulative IPC: 2.73165 (Simulation time: 0 hr 3 min 16 sec) 
Heartbeat CPU 7 instructions: 10000000 cycles: 4390858 heartbeat IPC: 2.27746 cumulative IPC: 2.27746 (Simulation time: 0 hr 3 min 55 sec) 
Heartbeat CPU 4 instructions: 10000000 cycles: 4454852 heartbeat IPC: 2.24474 cumulative IPC: 2.24474 (Simulation time: 0 hr 3 min 59 sec) 
Heartbeat CPU 1 instructions: 10000002 cycles: 4456893 heartbeat IPC: 2.24372 cumulative IPC: 2.24372 (Simulation time: 0 hr 3 min 59 sec) 
Heartbeat CPU 0 instructions: 10000003 cycles: 4846722 heartbeat IPC: 2.06325 cumulative IPC: 2.06325 (Simulation time: 0 hr 4 min 20 sec) 
Heartbeat CPU 3 instructions: 10000000 cycles: 5690272 heartbeat IPC: 1.75739 cumulative IPC: 1.75739 (Simulation time: 0 hr 5 min 5 sec) 
Heartbeat CPU 6 instructions: 10000000 cycles: 6750190 heartbeat IPC: 1.48144 cumulative IPC: 1.48144 (Simulation time: 0 hr 6 min 2 sec) 
Heartbeat CPU 5 instructions: 20000000 cycles: 7316050 heartbeat IPC: 2.73578 cumulative IPC: 2.73372 (Simulation time: 0 hr 6 min 33 sec) 
Heartbeat CPU 2 instructions: 10000001 cycles: 8412610 heartbeat IPC: 1.18869 cumulative IPC: 1.18869 (Simulation time: 0 hr 7 min 33 sec) 
Heartbeat CPU 7 instructions: 20000000 cycles: 8782394 heartbeat IPC: 2.27711 cumulative IPC: 2.27728 (Simulation time: 0 hr 7 min 53 sec) 
Heartbeat CPU 1 instructions: 20000000 cycles: 8881602 heartbeat IPC: 2.26004 cumulative IPC: 2.25185 (Simulation time: 0 hr 7 min 58 sec) 
Heartbeat CPU 4 instructions: 20000000 cycles: 8909003 heartbeat IPC: 2.2451 cumulative IPC: 2.24492 (Simulation time: 0 hr 7 min 59 sec) 
Heartbeat CPU 0 instructions: 20000000 cycles: 9700568 heartbeat IPC: 2.06022 cumulative IPC: 2.06173 (Simulation time: 0 hr 8 min 43 sec) 
Heartbeat CPU 5 instructions: 30000002 cycles: 10986832 heartbeat IPC: 2.72422 cumulative IPC: 0.910181 (Simulation time: 0 hr 9 min 50 sec) 
Heartbeat CPU 3 instructions: 20000000 cycles: 11556568 heartbeat IPC: 1.70465 cumulative IPC: 1.73062 (Simulation time: 0 hr 10 min 20 sec) 
Heartbeat CPU 6 instructions: 20000000 cycles: 13145843 heartbeat IPC: 1.56356 cumulative IPC: 1.52139 (Simulation time: 0 hr 11 min 40 sec) 
Heartbeat CPU 7 instructions: 30000002 cycles: 13174937 heartbeat IPC: 2.27659 cumulative IPC: 0.759017 (Simulation time: 0 hr 11 min 42 sec) 
Heartbeat CPU 4 instructions: 30000002 cycles: 13364207 heartbeat IPC: 2.24457 cumulative IPC: 0.748268 (Simulation time: 0 hr 11 min 52 sec) 
Heartbeat CPU 1 instructions: 30000003 cycles: 13401755 heartbeat IPC: 2.21232 cumulative IPC: 0.746171 (Simulation time: 0 hr 11 min 54 sec) 
Heartbeat CPU 0 instructions: 30000002 cycles: 14555301 heartbeat IPC: 2.05985 cumulative IPC: 0.687035 (Simulation time: 0 hr 12 min 55 sec) 
Heartbeat CPU 5 instructions: 40000000 cycles: 14656533 heartbeat IPC: 2.72502 cumulative IPC: 1.36458 (Simulation time: 0 hr 13 min 1 sec) 
Heartbeat CPU 2 instructions: 20000000 cycles: 16796092 heartbeat IPC: 1.19282 cumulative IPC: 1.19075 (Simulation time: 0 hr 15 min 0 sec) 

Warmup complete CPU 0 instructions: 34615714 cycles: 16796111 (Simulation time: 0 hr 15 min 0 sec) 
Warmup complete CPU 1 instructions: 37556319 cycles: 16796111 (Simulation time: 0 hr 15 min 0 sec) 
Warmup complete CPU 2 instructions: 20000001 cycles: 16796111 (Simulation time: 0 hr 15 min 0 sec) 
Warmup complete CPU 3 instructions: 28937668 cycles: 16796110 (Simulation time: 0 hr 15 min 0 sec) 
Warmup complete CPU 4 instructions: 37702505 cycles: 16796110 (Simulation time: 0 hr 15 min 0 sec) 
Warmup complete CPU 5 instructions: 45827933 cycles: 16796110 (Simulation time: 0 hr 15 min 0 sec) 
Warmup complete CPU 6 instructions: 26100572 cycles: 16796110 (Simulation time: 0 hr 15 min 0 sec) 
Warmup complete CPU 7 instructions: 38244140 cycles: 16796110 (Simulation time: 0 hr 15 min 0 sec) 

Heartbeat CPU 3 instructions: 30000000 cycles: 18356159 heartbeat IPC: 1.47068 cumulative IPC: 0.680961 (Simulation time: 0 hr 15 min 30 sec) 
Heartbeat CPU 7 instructions: 40000000 cycles: 18944732 heartbeat IPC: 1.73316 cumulative IPC: 0.817203 (Simulation time: 0 hr 15 min 42 sec) 
Heartbeat CPU 1 instructions: 40000000 cycles: 21005954 heartbeat IPC: 1.31506 cumulative IPC: 0.580468 (Simulation time: 0 hr 16 min 22 sec) 
Heartbeat CPU 4 instructions: 40000000 cycles: 23896334 heartbeat IPC: 0.949476 cumulative IPC: 0.323581 (Simulation time: 0 hr 17 min 19 sec) 
Heartbeat CPU 0 instructions: 40000000 cycles: 24868924 heartbeat IPC: 0.969591 cumulative IPC: 0.666965 (Simulation time: 0 hr 17 min 38 sec) 
Heartbeat CPU 6 instructions: 30000002 cycles: 28574315 heartbeat IPC: 0.648152 cumulative IPC: 0.331072 (Simulation time: 0 hr 18 min 50 sec) 
Heartbeat CPU 7 instructions: 50000001 cycles: 31146892 heartbeat IPC: 0.819527 cumulative IPC: 0.819179 (Simulation time: 0 hr 19 min 39 sec) 
Heartbeat CPU 3 instructions: 40000000 cycles: 32226086 heartbeat IPC: 0.720984 cumulative IPC: 0.716938 (Simulation time: 0 hr 20 min 1 sec) 
Heartbeat CPU 1 instructions: 50000003 cycles: 38199747 heartbeat IPC: 0.581605 cumulative IPC: 0.581382 (Simulation time: 0 hr 21 min 58 sec) 
Heartbeat CPU 5 instructions: 50000003 cycles: 39883615 heartbeat IPC: 0.396399 cumulative IPC: 0.180707 (Simulation time: 0 hr 22 min 29 sec) 
Heartbeat CPU 0 instructions: 50000000 cycles: 40070517 heartbeat IPC: 0.657826 cumulative IPC: 0.660996 (Simulation time: 0 hr 22 min 33 sec) 
Heartbeat CPU 7 instructions: 60000000 cycles: 43277393 heartbeat IPC: 0.824368 cumulative IPC: 0.821556 (Simulation time: 0 hr 23 min 33 sec) 
Heartbeat CPU 3 instructions: 50000002 cycles: 45323616 heartbeat IPC: 0.763503 cumulative IPC: 0.738317 (Simulation time: 0 hr 24 min 14 sec) 
Heartbeat CPU 2 instructions: 30000000 cycles: 45648389 heartbeat IPC: 0.346593 cumulative IPC: 0.346593 (Simulation time: 0 hr 24 min 20 sec) 
Heartbeat CPU 4 instructions: 50000002 cycles: 53738567 heartbeat IPC: 0.335096 cumulative IPC: 0.332882 (Simulation time: 0 hr 26 min 57 sec) 
Heartbeat CPU 0 instructions: 60000000 cycles: 55142334 heartbeat IPC: 0.66349 cumulative IPC: 0.661976 (Simulation time: 0 hr 27 min 24 sec) 
Heartbeat CPU 1 instructions: 60000000 cycles: 55386133 heartbeat IPC: 0.581856 cumulative IPC: 0.581593 (Simulation time: 0 hr 27 min 29 sec) 
Heartbeat CPU 7 instructions: 70000001 cycles: 55503519 heartbeat IPC: 0.817921 cumulative IPC: 0.820408 (Simulation time: 0 hr 27 min 31 sec) 
Heartbeat CPU 3 instructions: 60000000 cycles: 58273429 heartbeat IPC: 0.772212 cumulative IPC: 0.748899 (Simulation time: 0 hr 28 min 37 sec) 
Heartbeat CPU 6 instructions: 40000000 cycles: 67324086 heartbeat IPC: 0.258066 cumulative IPC: 0.275084 (Simulation time: 0 hr 31 min 49 sec) 
Heartbeat CPU 7 instructions: 80000000 cycles: 67685692 heartbeat IPC: 0.820872 cumulative IPC: 0.820519 (Simulation time: 0 hr 31 min 55 sec) 
Heartbeat CPU 0 instructions: 70000000 cycles: 70154705 heartbeat IPC: 0.666117 cumulative IPC: 0.663141 (Simulation time: 0 hr 32 min 45 sec) 
Heartbeat CPU 1 instructions: 70000002 cycles: 71556055 heartbeat IPC: 0.618432 cumulative IPC: 0.592471 (Simulation time: 0 hr 33 min 14 sec) 
Heartbeat CPU 2 instructions: 40000000 cycles: 74452057 heartbeat IPC: 0.347178 cumulative IPC: 0.346885 (Simulation time: 0 hr 34 min 22 sec) 
Heartbeat CPU 7 instructions: 90000003 cycles: 79827019 heartbeat IPC: 0.823633 cumulative IPC: 0.821119 (Simulation time: 0 hr 36 min 7 sec) 
Heartbeat CPU 3 instructions: 70000002 cycles: 79958551 heartbeat IPC: 0.461146 cumulative IPC: 0.650107 (Simulation time: 0 hr 36 min 9 sec) 
Heartbeat CPU 4 instructions: 60000000 cycles: 83656819 heartbeat IPC: 0.334244 cumulative IPC: 0.333492 (Simulation time: 0 hr 37 min 29 sec) 
Heartbeat CPU 0 instructions: 80000000 cycles: 85110986 heartbeat IPC: 0.668615 cumulative IPC: 0.66434 (Simulation time: 0 hr 38 min 1 sec) 
Heartbeat CPU 1 instructions: 80000000 cycles: 88495650 heartbeat IPC: 0.590333 cumulative IPC: 0.591966 (Simulation time: 0 hr 39 min 6 sec) 
Heartbeat CPU 7 instructions: 100000000 cycles: 92146517 heartbeat IPC: 0.811721 cumulative IPC: 0.819582 (Simulation time: 0 hr 40 min 23 sec) 
Heartbeat CPU 5 instructions: 60000000 cycles: 95132737 heartbeat IPC: 0.180998 cumulative IPC: 0.180912 (Simulation time: 0 hr 41 min 33 sec) 
Heartbeat CPU 0 instructions: 90000001 cycles: 100009838 heartbeat IPC: 0.671193 cumulative IPC: 0.665567 (Simulation time: 0 hr 43 min 19 sec) 
Heartbeat CPU 3 instructions: 80000000 cycles: 102855229 heartbeat IPC: 0.436744 cumulative IPC: 0.59334 (Simulation time: 0 hr 44 min 23 sec) 
Heartbeat CPU 6 instructions: 50000000 cycles: 103299816 heartbeat IPC: 0.277965 cumulative IPC: 0.276282 (Simulation time: 0 hr 44 min 31 sec) 
Heartbeat CPU 2 instructions: 50000001 cycles: 103401740 heartbeat IPC: 0.345427 cumulative IPC: 0.346398 (Simulation time: 0 hr 44 min 33 sec) 
Heartbeat CPU 7 instructions: 110000001 cycles: 104380212 heartbeat IPC: 0.817415 cumulative IPC: 0.819279 (Simulation time: 0 hr 44 min 53 sec) 
Heartbeat CPU 1 instructions: 90000001 cycles: 105763090 heartbeat IPC: 0.579125 cumulative IPC: 0.589474 (Simulation time: 0 hr 45 min 25 sec) 
Heartbeat CPU 4 instructions: 70000000 cycles: 113399049 heartbeat IPC: 0.336222 cumulative IPC: 0.334332 (Simulation time: 0 hr 47 min 46 sec) 
Heartbeat CPU 0 instructions: 100000000 cycles: 115827560 heartbeat IPC: 0.632202 cumulative IPC: 0.660238 (Simulation time: 0 hr 48 min 31 sec) 
Heartbeat CPU 7 instructions: 120000000 cycles: 116529041 heartbeat IPC: 0.823125 cumulative IPC: 0.819748 (Simulation time: 0 hr 48 min 44 sec) 
Heartbeat CPU 1 instructions: 100000000 cycles: 121954546 heartbeat IPC: 0.61761 cumulative IPC: 0.593806 (Simulation time: 0 hr 50 min 22 sec) 
Heartbeat CPU 7 instructions: 130000000 cycles: 128679307 heartbeat IPC: 0.823027 cumulative IPC: 0.820104 (Simulation time: 0 hr 52 min 26 sec) 
Heartbeat CPU 0 instructions: 110000000 cycles: 131305347 heartbeat IPC: 0.646087 cumulative IPC: 0.658325 (Simulation time: 0 hr 53 min 13 sec) 
Heartbeat CPU 3 instructions: 90000002 cycles: 131824554 heartbeat IPC: 0.345193 cumulative IPC: 0.530846 (Simulation time: 0 hr 53 min 26 sec) 
Heartbeat CPU 2 instructions: 60000000 cycles: 132181582 heartbeat IPC: 0.347465 cumulative IPC: 0.346664 (Simulation time: 0 hr 53 min 34 sec) 
Heartbeat CPU 6 instructions: 60000000 cycles: 132836331 heartbeat IPC: 0.338564 cumulative IPC: 0.292135 (Simulation time: 0 hr 53 min 48 sec) 
Finished CPU 7 instructions: 100000000 cycles: 121902771 cumulative IPC: 0.820326 (Simulation time: 0 hr 55 min 45 sec) 
Heartbeat CPU 1 instructions: 110000002 cycles: 139392561 heartbeat IPC: 0.57346 cumulative IPC: 0.590912 (Simulation time: 0 hr 55 min 58 sec) 
Heartbeat CPU 7 instructions: 140000000 cycles: 140828646 heartbeat IPC: 0.82309 cumulative IPC: 0.820396 (Simulation time: 0 hr 56 min 27 sec) 
Heartbeat CPU 4 instructions: 80000000 cycles: 143251201 heartbeat IPC: 0.334984 cumulative IPC: 0.334486 (Simulation time: 0 hr 57 min 13 sec) 
Heartbeat CPU 3 instructions: 100000000 cycles: 146149323 heartbeat IPC: 0.698091 cumulative IPC: 0.549367 (Simulation time: 0 hr 58 min 10 sec) 
Heartbeat CPU 0 instructions: 120000000 cycles: 146818643 heartbeat IPC: 0.644608 cumulative IPC: 0.656688 (Simulation time: 0 hr 58 min 24 sec) 
Heartbeat CPU 5 instructions: 70000000 cycles: 150290797 heartbeat IPC: 0.181297 cumulative IPC: 0.181071 (Simulation time: 0 hr 59 min 31 sec) 
Heartbeat CPU 7 instructions: 150000002 cycles: 152889019 heartbeat IPC: 0.829162 cumulative IPC: 0.821173 (Simulation time: 1 hr 0 min 23 sec) 
Heartbeat CPU 1 instructions: 120000000 cycles: 157049210 heartbeat IPC: 0.566359 cumulative IPC: 0.587821 (Simulation time: 1 hr 1 min 44 sec) 
Heartbeat CPU 3 instructions: 110000000 cycles: 160289887 heartbeat IPC: 0.707185 cumulative IPC: 0.564919 (Simulation time: 1 hr 2 min 45 sec) 
Heartbeat CPU 2 instructions: 70000001 cycles: 160890368 heartbeat IPC: 0.348325 cumulative IPC: 0.346995 (Simulation time: 1 hr 2 min 56 sec) 
Heartbeat CPU 6 instructions: 70000002 cycles: 161132842 heartbeat IPC: 0.353401 cumulative IPC: 0.304146 (Simulation time: 1 hr 3 min 0 sec) 
Heartbeat CPU 0 instructions: 130000001 cycles: 162346261 heartbeat IPC: 0.644014 cumulative IPC: 0.655336 (Simulation time: 1 hr 3 min 22 sec) 
Heartbeat CPU 7 instructions: 160000000 cycles: 164995035 heartbeat IPC: 0.826035 cumulative IPC: 0.82157 (Simulation time: 1 hr 4 min 9 sec) 
Finished CPU 0 instructions: 100000000 cycles: 152632079 cumulative IPC: 0.65517 (Simulation time: 1 hr 5 min 28 sec) 
Heartbeat CPU 4 instructions: 90000002 cycles: 173036129 heartbeat IPC: 0.33574 cumulative IPC: 0.334725 (Simulation time: 1 hr 6 min 35 sec) 
Heartbeat CPU 1 instructions: 130000000 cycles: 174496092 heartbeat IPC: 0.573168 cumulative IPC: 0.5862 (Simulation time: 1 hr 7 min 2 sec) 
Heartbeat CPU 3 instructions: 120000000 cycles: 175638711 heartbeat IPC: 0.651516 cumulative IPC: 0.573287 (Simulation time: 1 hr 7 min 25 sec) 
Heartbeat CPU 7 instructions: 170000000 cycles: 177475771 heartbeat IPC: 0.801235 cumulative IPC: 0.819991 (Simulation time: 1 hr 8 min 2 sec) 
Heartbeat CPU 0 instructions: 140000000 cycles: 177861083 heartbeat IPC: 0.644545 cumulative IPC: 0.654297 (Simulation time: 1 hr 8 min 10 sec) 
Finished CPU 1 instructions: 100000002 cycles: 169537818 cumulative IPC: 0.589839 (Simulation time: 1 hr 11 min 22 sec) 
Finished CPU 3 instructions: 100000001 cycles: 172215256 cumulative IPC: 0.580669 (Simulation time: 1 hr 12 min 19 sec) 
Heartbeat CPU 1 instructions: 140000000 cycles: 189419488 heartbeat IPC: 0.670089 cumulative IPC: 0.593452 (Simulation time: 1 hr 12 min 27 sec) 
Heartbeat CPU 2 instructions: 80000000 cycles: 189479633 heartbeat IPC: 0.349782 cumulative IPC: 0.347456 (Simulation time: 1 hr 12 min 28 sec) 
Heartbeat CPU 7 instructions: 180000000 cycles: 189636949 heartbeat IPC: 0.822289 cumulative IPC: 0.820153 (Simulation time: 1 hr 12 min 31 sec) 
Heartbeat CPU 3 instructions: 130000000 cycles: 190816141 heartbeat IPC: 0.658873 cumulative IPC: 0.580751 (Simulation time: 1 hr 12 min 53 sec) 
Heartbeat CPU 6 instructions: 80000000 cycles: 192927416 heartbeat IPC: 0.314519 cumulative IPC: 0.306018 (Simulation time: 1 hr 13 min 30 sec) 
Heartbeat CPU 0 instructions: 150000000 cycles: 193374187 heartbeat IPC: 0.644616 cumulative IPC: 0.653446 (Simulation time: 1 hr 13 min 38 sec) 
Heartbeat CPU 7 instructions: 190000000 cycles: 201863710 heartbeat IPC: 0.817878 cumulative IPC: 0.820002 (Simulation time: 1 hr 16 min 11 sec) 
Heartbeat CPU 4 instructions: 100000000 cycles: 202991236 heartbeat IPC: 0.333833 cumulative IPC: 0.334582 (Simulation time: 1 hr 16 min 32 sec) 
Heartbeat CPU 5 instructions: 80000000 cycles: 205498874 heartbeat IPC: 0.181133 cumulative IPC: 0.181089 (Simulation time: 1 hr 17 min 16 sec) 
Heartbeat CPU 1 instructions: 150000000 cycles: 207026507 heartbeat IPC: 0.567955 cumulative IPC: 0.591092 (Simulation time: 1 hr 17 min 44 sec) 
Heartbeat CPU 0 instructions: 160000000 cycles: 208825149 heartbeat IPC: 0.647209 cumulative IPC: 0.652944 (Simulation time: 1 hr 18 min 16 sec) 
Heartbeat CPU 7 instructions: 200000000 cycles: 214020454 heartbeat IPC: 0.822589 cumulative IPC: 0.820162 (Simulation time: 1 hr 19 min 47 sec) 
Heartbeat CPU 2 instructions: 90000000 cycles: 218412578 heartbeat IPC: 0.345627 cumulative IPC: 0.347194 (Simulation time: 1 hr 21 min 2 sec) 
Heartbeat CPU 3 instructions: 140000000 cycles: 220153670 heartbeat IPC: 0.34086 cumulative IPC: 0.546143 (Simulation time: 1 hr 21 min 33 sec) 
Heartbeat CPU 6 instructions: 90000000 cycles: 220389925 heartbeat IPC: 0.364133 cumulative IPC: 0.313857 (Simulation time: 1 hr 21 min 37 sec) 
Heartbeat CPU 0 instructions: 170000000 cycles: 224278203 heartbeat IPC: 0.647121 cumulative IPC: 0.652511 (Simulation time: 1 hr 22 min 46 sec) 
Heartbeat CPU 1 instructions: 160000000 cycles: 224748399 heartbeat IPC: 0.564274 cumulative IPC: 0.588807 (Simulation time: 1 hr 22 min 55 sec) 
Heartbeat CPU 7 instructions: 210000001 cycles: 226219277 heartbeat IPC: 0.819751 cumulative IPC: 0.820138 (Simulation time: 1 hr 23 min 22 sec) 
Heartbeat CPU 4 instructions: 110000001 cycles: 232797799 heartbeat IPC: 0.335497 cumulative IPC: 0.334708 (Simulation time: 1 hr 25 min 23 sec) 
Heartbeat CPU 7 instructions: 220000000 cycles: 238394777 heartbeat IPC: 0.821321 cumulative IPC: 0.820203 (Simulation time: 1 hr 27 min 7 sec) 
Heartbeat CPU 1 instructions: 170000003 cycles: 238972947 heartbeat IPC: 0.70301 cumulative IPC: 0.596118 (Simulation time: 1 hr 27 min 17 sec) 
Heartbeat CPU 0 instructions: 180000000 cycles: 239479696 heartbeat IPC: 0.65783 cumulative IPC: 0.652874 (Simulation time: 1 hr 27 min 27 sec) 
Heartbeat CPU 3 instructions: 150000001 cycles: 247064234 heartbeat IPC: 0.371601 cumulative IPC: 0.525745 (Simulation time: 1 hr 29 min 49 sec) 
Heartbeat CPU 2 instructions: 100000000 cycles: 247092956 heartbeat IPC: 0.34867 cumulative IPC: 0.347378 (Simulation time: 1 hr 29 min 49 sec) 
Heartbeat CPU 7 instructions: 230000001 cycles: 250592469 heartbeat IPC: 0.819827 cumulative IPC: 0.820183 (Simulation time: 1 hr 30 min 55 sec) 
Heartbeat CPU 1 instructions: 180000000 cycles: 251241061 heartbeat IPC: 0.815121 cumulative IPC: 0.607578 (Simulation time: 1 hr 31 min 7 sec) 
Heartbeat CPU 6 instructions: 100000000 cycles: 252726283 heartbeat IPC: 0.309249 cumulative IPC: 0.313226 (Simulation time: 1 hr 31 min 33 sec) 
Heartbeat CPU 0 instructions: 190000000 cycles: 254581543 heartbeat IPC: 0.662171 cumulative IPC: 0.653464 (Simulation time: 1 hr 32 min 7 sec) 
Heartbeat CPU 5 instructions: 90000003 cycles: 260615712 heartbeat IPC: 0.181433 cumulative IPC: 0.181167 (Simulation time: 1 hr 34 min 0 sec) 
Heartbeat CPU 4 instructions: 120000000 cycles: 262237559 heartbeat IPC: 0.339677 cumulative IPC: 0.335304 (Simulation time: 1 hr 34 min 30 sec) 
Heartbeat CPU 7 instructions: 240000000 cycles: 262821180 heartbeat IPC: 0.817748 cumulative IPC: 0.820062 (Simulation time: 1 hr 34 min 40 sec) 
Heartbeat CPU 1 instructions: 190000001 cycles: 263427881 heartbeat IPC: 0.820559 cumulative IPC: 0.618102 (Simulation time: 1 hr 34 min 52 sec) 
Heartbeat CPU 3 instructions: 160000000 cycles: 269295759 heartbeat IPC: 0.449812 cumulative IPC: 0.519059 (Simulation time: 1 hr 36 min 41 sec) 
Heartbeat CPU 0 instructions: 200000000 cycles: 269701515 heartbeat IPC: 0.661377 cumulative IPC: 0.653937 (Simulation time: 1 hr 36 min 49 sec) 
Heartbeat CPU 7 instructions: 250000000 cycles: 274992642 heartbeat IPC: 0.821594 cumulative IPC: 0.820134 (Simulation time: 1 hr 38 min 28 sec) 
Heartbeat CPU 2 instructions: 110000002 cycles: 275621330 heartbeat IPC: 0.350528 cumulative IPC: 0.347725 (Simulation time: 1 hr 38 min 41 sec) 
Heartbeat CPU 1 instructions: 200000000 cycles: 275685012 heartbeat IPC: 0.815852 cumulative IPC: 0.627465 (Simulation time: 1 hr 38 min 42 sec) 
Heartbeat CPU 0 instructions: 210000000 cycles: 284806292 heartbeat IPC: 0.662042 cumulative IPC: 0.654394 (Simulation time: 1 hr 41 min 34 sec) 
Heartbeat CPU 3 instructions: 170000003 cycles: 285553381 heartbeat IPC: 0.615096 cumulative IPC: 0.524869 (Simulation time: 1 hr 41 min 48 sec) 
Heartbeat CPU 7 instructions: 260000000 cycles: 287140467 heartbeat IPC: 0.823193 cumulative IPC: 0.820272 (Simulation time: 1 hr 42 min 18 sec) 
Heartbeat CPU 6 instructions: 110000002 cycles: 287680752 heartbeat IPC: 0.286086 cumulative IPC: 0.309724 (Simulation time: 1 hr 42 min 28 sec) 
Heartbeat CPU 1 instructions: 210000003 cycles: 288008003 heartbeat IPC: 0.811492 cumulative IPC: 0.635826 (Simulation time: 1 hr 42 min 34 sec) 
Heartbeat CPU 4 instructions: 130000003 cycles: 291720137 heartbeat IPC: 0.339183 cumulative IPC: 0.33572 (Simulation time: 1 hr 43 min 44 sec) 
Heartbeat CPU 7 instructions: 270000003 cycles: 299229949 heartbeat IPC: 0.827166 cumulative IPC: 0.820567 (Simulation time: 1 hr 46 min 3 sec) 
Heartbeat CPU 0 instructions: 220000000 cycles: 300038084 heartbeat IPC: 0.656522 cumulative IPC: 0.654509 (Simulation time: 1 hr 46 min 17 sec) 
Heartbeat CPU 1 instructions: 220000000 cycles: 300518832 heartbeat IPC: 0.799307 cumulative IPC: 0.643035 (Simulation time: 1 hr 46 min 26 sec) 
Heartbeat CPU 2 instructions: 120000000 cycles: 304099934 heartbeat IPC: 0.351141 cumulative IPC: 0.348064 (Simulation time: 1 hr 47 min 29 sec) 
Finished CPU 2 instructions: 100000000 cycles: 287303853 cumulative IPC: 0.348064 (Simulation time: 1 hr 47 min 29 sec) 
Heartbeat CPU 3 instructions: 180000000 cycles: 306342955 heartbeat IPC: 0.48101 cumulative IPC: 0.52172 (Simulation time: 1 hr 48 min 8 sec) 
Heartbeat CPU 7 instructions: 280000000 cycles: 311523673 heartbeat IPC: 0.813423 cumulative IPC: 0.820269 (Simulation time: 1 hr 49 min 39 sec) 
Heartbeat CPU 1 instructions: 230000002 cycles: 313437314 heartbeat IPC: 0.774085 cumulative IPC: 0.648742 (Simulation time: 1 hr 50 min 12 sec) 
Finished CPU 4 instructions: 100000001 cycles: 297718750 cumulative IPC: 0.335887 (Simulation time: 1 hr 50 min 31 sec) 
Heartbeat CPU 0 instructions: 230000000 cycles: 315379154 heartbeat IPC: 0.651845 cumulative IPC: 0.654372 (Simulation time: 1 hr 50 min 46 sec) 
Heartbeat CPU 5 instructions: 100000000 cycles: 315639893 heartbeat IPC: 0.181738 cumulative IPC: 0.181272 (Simulation time: 1 hr 50 min 50 sec) 
Heartbeat CPU 6 instructions: 120000000 cycles: 318775030 heartbeat IPC: 0.321603 cumulative IPC: 0.310947 (Simulation time: 1 hr 51 min 45 sec) 
Heartbeat CPU 4 instructions: 140000000 cycles: 321207294 heartbeat IPC: 0.339131 cumulative IPC: 0.33605 (Simulation time: 1 hr 52 min 28 sec) 
Heartbeat CPU 7 instructions: 290000001 cycles: 323628369 heartbeat IPC: 0.826126 cumulative IPC: 0.8205 (Simulation time: 1 hr 53 min 10 sec) 
Heartbeat CPU 1 instructions: 240000000 cycles: 326255566 heartbeat IPC: 0.780137 cumulative IPC: 0.654185 (Simulation time: 1 hr 53 min 55 sec) 
Heartbeat CPU 0 instructions: 240000000 cycles: 330779397 heartbeat IPC: 0.64934 cumulative IPC: 0.654125 (Simulation time: 1 hr 55 min 15 sec) 
Heartbeat CPU 2 instructions: 130000000 cycles: 332711407 heartbeat IPC: 0.34951 cumulative IPC: 0.348195 (Simulation time: 1 hr 55 min 49 sec) 
Heartbeat CPU 3 instructions: 190000003 cycles: 335581146 heartbeat IPC: 0.342019 cumulative IPC: 0.505238 (Simulation time: 1 hr 56 min 39 sec) 
Heartbeat CPU 7 instructions: 300000000 cycles: 335916550 heartbeat IPC: 0.81379 cumulative IPC: 0.820242 (Simulation time: 1 hr 56 min 45 sec) 
Finished CPU 6 instructions: 100000002 cycles: 321409500 cumulative IPC: 0.31113 (Simulation time: 1 hr 57 min 27 sec) 
Heartbeat CPU 1 instructions: 250000002 cycles: 339189149 heartbeat IPC: 0.773181 cumulative IPC: 0.658959 (Simulation time: 1 hr 57 min 44 sec) 
Heartbeat CPU 0 instructions: 250000000 cycles: 346045595 heartbeat IPC: 0.655042 cumulative IPC: 0.654167 (Simulation time: 1 hr 59 min 44 sec) 
Heartbeat CPU 7 instructions: 310000000 cycles: 348008477 heartbeat IPC: 0.826998 cumulative IPC: 0.820488 (Simulation time: 2 hr 0 min 18 sec) 
Heartbeat CPU 4 instructions: 150000001 cycles: 350823841 heartbeat IPC: 0.337649 cumulative IPC: 0.336192 (Simulation time: 2 hr 1 min 5 sec) 
Heartbeat CPU 1 instructions: 260000000 cycles: 351862906 heartbeat IPC: 0.789032 cumulative IPC: 0.663879 (Simulation time: 2 hr 1 min 24 sec) 
Heartbeat CPU 6 instructions: 130000002 cycles: 353710608 heartbeat IPC: 0.286241 cumulative IPC: 0.308385 (Simulation time: 2 hr 1 min 56 sec) 
Heartbeat CPU 7 instructions: 320000000 cycles: 360150254 heartbeat IPC: 0.823603 cumulative IPC: 0.820598 (Simulation time: 2 hr 3 min 47 sec) 
Heartbeat CPU 0 instructions: 260000000 cycles: 361278750 heartbeat IPC: 0.656463 cumulative IPC: 0.654269 (Simulation time: 2 hr 4 min 7 sec) 
Heartbeat CPU 2 instructions: 140000000 cycles: 361378987 heartbeat IPC: 0.348826 cumulative IPC: 0.348247 (Simulation time: 2 hr 4 min 9 sec) 
Heartbeat CPU 3 instructions: 200000000 cycles: 363291716 heartbeat IPC: 0.360873 cumulative IPC: 0.493693 (Simulation time: 2 hr 4 min 43 sec) 
Heartbeat CPU 1 instructions: 270000002 cycles: 365195921 heartbeat IPC: 0.750018 cumulative IPC: 0.667175 (Simulation time: 2 hr 5 min 17 sec) 
Heartbeat CPU 5 instructions: 110000001 cycles: 370536573 heartbeat IPC: 0.18216 cumulative IPC: 0.18141 (Simulation time: 2 hr 6 min 52 sec) 
Heartbeat CPU 7 instructions: 330000001 cycles: 372250178 heartbeat IPC: 0.826452 cumulative IPC: 0.820798 (Simulation time: 2 hr 7 min 23 sec) 
Heartbeat CPU 0 instructions: 270000000 cycles: 376649250 heartbeat IPC: 0.650597 cumulative IPC: 0.654112 (Simulation time: 2 hr 8 min 40 sec) 
Heartbeat CPU 1 instructions: 280000000 cycles: 378540050 heartbeat IPC: 0.749393 cumulative IPC: 0.670208 (Simulation time: 2 hr 9 min 14 sec) 
Heartbeat CPU 4 instructions: 160000000 cycles: 380443614 heartbeat IPC: 0.337612 cumulative IPC: 0.336308 (Simulation time: 2 hr 9 min 48 sec) 
Heartbeat CPU 3 instructions: 210000002 cycles: 383951106 heartbeat IPC: 0.484041 cumulative IPC: 0.49315 (Simulation time: 2 hr 10 min 53 sec) 
Heartbeat CPU 6 instructions: 140000000 cycles: 384180058 heartbeat IPC: 0.328198 cumulative IPC: 0.310028 (Simulation time: 2 hr 10 min 57 sec) 
Heartbeat CPU 7 instructions: 340000000 cycles: 384565433 heartbeat IPC: 0.812001 cumulative IPC: 0.820503 (Simulation time: 2 hr 11 min 5 sec) 
Heartbeat CPU 2 instructions: 150000001 cycles: 389792196 heartbeat IPC: 0.351949 cumulative IPC: 0.348529 (Simulation time: 2 hr 12 min 41 sec) 
Heartbeat CPU 0 instructions: 280000000 cycles: 391872287 heartbeat IPC: 0.656899 cumulative IPC: 0.654225 (Simulation time: 2 hr 13 min 19 sec) 
Heartbeat CPU 1 instructions: 290000000 cycles: 391981645 heartbeat IPC: 0.743959 cumulative IPC: 0.67285 (Simulation time: 2 hr 13 min 21 sec) 
Heartbeat CPU 7 instructions: 350000001 cycles: 396729245 heartbeat IPC: 0.822111 cumulative IPC: 0.820555 (Simulation time: 2 hr 14 min 51 sec) 
Heartbeat CPU 3 instructions: 220000000 cycles: 398825609 heartbeat IPC: 0.672291 cumulative IPC: 0.500125 (Simulation time: 2 hr 15 min 29 sec) 
Heartbeat CPU 1 instructions: 300000000 cycles: 406640661 heartbeat IPC: 0.682174 cumulative IPC: 0.673201 (Simulation time: 2 hr 17 min 54 sec) 
Heartbeat CPU 0 instructions: 290000002 cycles: 407033689 heartbeat IPC: 0.65957 cumulative IPC: 0.654433 (Simulation time: 2 hr 18 min 1 sec) 
Heartbeat CPU 7 instructions: 360000000 cycles: 408878511 heartbeat IPC: 0.823095 cumulative IPC: 0.820633 (Simulation time: 2 hr 18 min 33 sec) 
Heartbeat CPU 4 instructions: 170000003 cycles: 410002298 heartbeat IPC: 0.33831 cumulative IPC: 0.336458 (Simulation time: 2 hr 18 min 54 sec) 
Heartbeat CPU 3 instructions: 230000002 cycles: 412318407 heartbeat IPC: 0.741136 cumulative IPC: 0.508346 (Simulation time: 2 hr 19 min 36 sec) 
Heartbeat CPU 6 instructions: 150000001 cycles: 413648809 heartbeat IPC: 0.339343 cumulative IPC: 0.312205 (Simulation time: 2 hr 20 min 1 sec) 
Heartbeat CPU 2 instructions: 160000000 cycles: 418308368 heartbeat IPC: 0.350678 cumulative IPC: 0.348682 (Simulation time: 2 hr 21 min 27 sec) 
Heartbeat CPU 1 instructions: 310000001 cycles: 420682181 heartbeat IPC: 0.712174 cumulative IPC: 0.674556 (Simulation time: 2 hr 22 min 9 sec) 
Heartbeat CPU 7 instructions: 370000000 cycles: 420956119 heartbeat IPC: 0.827978 cumulative IPC: 0.820853 (Simulation time: 2 hr 22 min 14 sec) 
Heartbeat CPU 0 instructions: 300000000 cycles: 422192913 heartbeat IPC: 0.659664 cumulative IPC: 0.654628 (Simulation time: 2 hr 22 min 36 sec) 
Heartbeat CPU 5 instructions: 120000000 cycles: 425859586 heartbeat IPC: 0.180757 cumulative IPC: 0.181322 (Simulation time: 2 hr 23 min 46 sec) 
Heartbeat CPU 3 instructions: 240000000 cycles: 426707678 heartbeat IPC: 0.694962 cumulative IPC: 0.514897 (Simulation time: 2 hr 24 min 1 sec) 
Heartbeat CPU 1 instructions: 320000000 cycles: 432810670 heartbeat IPC: 0.824505 cumulative IPC: 0.678927 (Simulation time: 2 hr 25 min 57 sec) 
Heartbeat CPU 7 instructions: 380000000 cycles: 433157410 heartbeat IPC: 0.819585 cumulative IPC: 0.820816 (Simulation time: 2 hr 26 min 3 sec) 
Heartbeat CPU 0 instructions: 310000000 cycles: 437381880 heartbeat IPC: 0.658373 cumulative IPC: 0.654764 (Simulation time: 2 hr 27 min 21 sec) 
Heartbeat CPU 4 instructions: 180000000 cycles: 439509231 heartbeat IPC: 0.338903 cumulative IPC: 0.336629 (Simulation time: 2 hr 27 min 59 sec) 
Heartbeat CPU 3 instructions: 250000002 cycles: 442151936 heartbeat IPC: 0.64749 cumulative IPC: 0.519712 (Simulation time: 2 hr 28 min 47 sec) 
Heartbeat CPU 1 instructions: 330000001 cycles: 443732091 heartbeat IPC: 0.915632 cumulative IPC: 0.684983 (Simulation time: 2 hr 29 min 16 sec) 
Heartbeat CPU 7 instructions: 390000002 cycles: 445409665 heartbeat IPC: 0.816176 cumulative IPC: 0.820683 (Simulation time: 2 hr 29 min 47 sec) 
Heartbeat CPU 6 instructions: 160000000 cycles: 445986590 heartbeat IPC: 0.309236 cumulative IPC: 0.311981 (Simulation time: 2 hr 29 min 57 sec) 
Heartbeat CPU 2 instructions: 170000000 cycles: 447001146 heartbeat IPC: 0.34852 cumulative IPC: 0.348671 (Simulation time: 2 hr 30 min 14 sec) 
Heartbeat CPU 0 instructions: 320000000 cycles: 452899977 heartbeat IPC: 0.644409 cumulative IPC: 0.654395 (Simulation time: 2 hr 31 min 54 sec) 
Heartbeat CPU 3 instructions: 260000000 cycles: 457301151 heartbeat IPC: 0.6601 cumulative IPC: 0.52454 (Simulation time: 2 hr 33 min 17 sec) 
Heartbeat CPU 7 instructions: 400000000 cycles: 457834020 heartbeat IPC: 0.804871 cumulative IPC: 0.820238 (Simulation time: 2 hr 33 min 27 sec) 
Heartbeat CPU 1 instructions: 340000000 cycles: 458976292 heartbeat IPC: 0.655987 cumulative IPC: 0.683983 (Simulation time: 2 hr 33 min 48 sec) 
Heartbeat CPU 0 instructions: 330000001 cycles: 468133669 heartbeat IPC: 0.65644 cumulative IPC: 0.654464 (Simulation time: 2 hr 36 min 36 sec) 
Heartbeat CPU 4 instructions: 190000001 cycles: 469655374 heartbeat IPC: 0.331717 cumulative IPC: 0.336302 (Simulation time: 2 hr 37 min 4 sec) 
Heartbeat CPU 7 instructions: 410000000 cycles: 469988586 heartbeat IPC: 0.822736 cumulative IPC: 0.820305 (Simulation time: 2 hr 37 min 10 sec) 
Heartbeat CPU 1 instructions: 350000000 cycles: 470901185 heartbeat IPC: 0.838582 cumulative IPC: 0.688043 (Simulation time: 2 hr 37 min 26 sec) 
Heartbeat CPU 3 instructions: 270000001 cycles: 472608224 heartbeat IPC: 0.653293 cumulative IPC: 0.528863 (Simulation time: 2 hr 37 min 56 sec) 
Heartbeat CPU 2 instructions: 180000000 cycles: 475989286 heartbeat IPC: 0.344969 cumulative IPC: 0.348437 (Simulation time: 2 hr 38 min 57 sec) 
Heartbeat CPU 5 instructions: 130000002 cycles: 481674289 heartbeat IPC: 0.179164 cumulative IPC: 0.181063 (Simulation time: 2 hr 40 min 38 sec) 
Heartbeat CPU 7 instructions: 420000000 cycles: 482127984 heartbeat IPC: 0.823764 cumulative IPC: 0.820395 (Simulation time: 2 hr 40 min 46 sec) 
Heartbeat CPU 0 instructions: 340000000 cycles: 483303701 heartbeat IPC: 0.659194 cumulative IPC: 0.654618 (Simulation time: 2 hr 41 min 7 sec) 
Heartbeat CPU 6 instructions: 170000000 cycles: 483836844 heartbeat IPC: 0.264199 cumulative IPC: 0.308109 (Simulation time: 2 hr 41 min 16 sec) 
Heartbeat CPU 1 instructions: 360000000 cycles: 484281909 heartbeat IPC: 0.747344 cumulative IPC: 0.68974 (Simulation time: 2 hr 41 min 24 sec) 
Heartbeat CPU 3 instructions: 280000000 cycles: 487931238 heartbeat IPC: 0.652613 cumulative IPC: 0.532888 (Simulation time: 2 hr 42 min 31 sec) 
Heartbeat CPU 7 instructions: 430000003 cycles: 494266582 heartbeat IPC: 0.823819 cumulative IPC: 0.820482 (Simulation time: 2 hr 44 min 29 sec) 
Heartbeat CPU 1 instructions: 370000000 cycles: 495676066 heartbeat IPC: 0.877643 cumulative IPC: 0.694211 (Simulation time: 2 hr 44 min 55 sec) 
Heartbeat CPU 0 instructions: 350000003 cycles: 498271808 heartbeat IPC: 0.668087 cumulative IPC: 0.655037 (Simulation time: 2 hr 45 min 40 sec) 
Heartbeat CPU 4 instructions: 200000000 cycles: 499166760 heartbeat IPC: 0.338852 cumulative IPC: 0.336458 (Simulation time: 2 hr 45 min 56 sec) 
Heartbeat CPU 2 instructions: 190000000 cycles: 504549018 heartbeat IPC: 0.350143 cumulative IPC: 0.348537 (Simulation time: 2 hr 47 min 31 sec) 
Heartbeat CPU 7 instructions: 440000000 cycles: 506352111 heartbeat IPC: 0.827436 cumulative IPC: 0.820654 (Simulation time: 2 hr 48 min 3 sec) 
Heartbeat CPU 1 instructions: 380000000 cycles: 506655689 heartbeat IPC: 0.910778 cumulative IPC: 0.699065 (Simulation time: 2 hr 48 min 9 sec) 
Heartbeat CPU 3 instructions: 290000001 cycles: 507275307 heartbeat IPC: 0.516954 cumulative IPC: 0.53226 (Simulation time: 2 hr 48 min 21 sec) 
Heartbeat CPU 6 instructions: 180000000 cycles: 511222343 heartbeat IPC: 0.365157 cumulative IPC: 0.311269 (Simulation time: 2 hr 49 min 30 sec) 
Heartbeat CPU 0 instructions: 360000000 cycles: 513463654 heartbeat IPC: 0.658248 cumulative IPC: 0.655135 (Simulation time: 2 hr 50 min 9 sec) 
Heartbeat CPU 1 instructions: 390000002 cycles: 517704487 heartbeat IPC: 0.905076 cumulative IPC: 0.703609 (Simulation time: 2 hr 51 min 22 sec) 
Heartbeat CPU 7 instructions: 450000001 cycles: 518487142 heartbeat IPC: 0.824061 cumulative IPC: 0.820736 (Simulation time: 2 hr 51 min 36 sec) 
Heartbeat CPU 1 instructions: 400000000 cycles: 528438149 heartbeat IPC: 0.931648 cumulative IPC: 0.708393 (Simulation time: 2 hr 54 min 28 sec) 
Heartbeat CPU 0 instructions: 370000001 cycles: 528447948 heartbeat IPC: 0.667365 cumulative IPC: 0.655493 (Simulation time: 2 hr 54 min 28 sec) 
Heartbeat CPU 4 instructions: 210000003 cycles: 528620462 heartbeat IPC: 0.339516 cumulative IPC: 0.336634 (Simulation time: 2 hr 54 min 31 sec) 
Heartbeat CPU 7 instructions: 460000000 cycles: 530596907 heartbeat IPC: 0.82578 cumulative IPC: 0.820855 (Simulation time: 2 hr 55 min 3 sec) 
Heartbeat CPU 2 instructions: 200000000 cycles: 533165613 heartbeat IPC: 0.349448 cumulative IPC: 0.348588 (Simulation time: 2 hr 55 min 45 sec) 
Heartbeat CPU 3 instructions: 300000000 cycles: 535466010 heartbeat IPC: 0.354727 cumulative IPC: 0.52261 (Simulation time: 2 hr 56 min 25 sec) 
Heartbeat CPU 5 instructions: 140000000 cycles: 536945436 heartbeat IPC: 0.180926 cumulative IPC: 0.181048 (Simulation time: 2 hr 56 min 49 sec) 
Heartbeat CPU 1 instructions: 410000002 cycles: 541717686 heartbeat IPC: 0.753038 cumulative IPC: 0.709523 (Simulation time: 2 hr 58 min 8 sec) 
Heartbeat CPU 7 instructions: 470000001 cycles: 542833841 heartbeat IPC: 0.817198 cumulative IPC: 0.82077 (Simulation time: 2 hr 58 min 27 sec) 
Heartbeat CPU 0 instructions: 380000000 cycles: 543515067 heartbeat IPC: 0.663697 cumulative IPC: 0.655728 (Simulation time: 2 hr 58 min 39 sec) 
Heartbeat CPU 6 instructions: 190000000 cycles: 543656227 heartbeat IPC: 0.30832 cumulative IPC: 0.311087 (Simulation time: 2 hr 58 min 41 sec) 
Heartbeat CPU 1 instructions: 420000000 cycles: 553756320 heartbeat IPC: 0.830659 cumulative IPC: 0.712238 (Simulation time: 3 hr 1 min 32 sec) 
Heartbeat CPU 7 instructions: 480000000 cycles: 558202739 heartbeat IPC: 0.650665 cumulative IPC: 0.815941 (Simulation time: 3 hr 2 min 39 sec) 
Heartbeat CPU 0 instructions: 390000000 cycles: 558724924 heartbeat IPC: 0.657468 cumulative IPC: 0.655777 (Simulation time: 3 hr 2 min 47 sec) 
Heartbeat CPU 4 instructions: 220000000 cycles: 558941335 heartbeat IPC: 0.329806 cumulative IPC: 0.336252 (Simulation time: 3 hr 2 min 50 sec) 
Heartbeat CPU 2 instructions: 210000002 cycles: 562627344 heartbeat IPC: 0.339423 cumulative IPC: 0.348093 (Simulation time: 3 hr 3 min 47 sec) 
Heartbeat CPU 3 instructions: 310000001 cycles: 563423735 heartbeat IPC: 0.357683 cumulative IPC: 0.514175 (Simulation time: 3 hr 3 min 59 sec) 
Heartbeat CPU 1 instructions: 430000000 cycles: 564258223 heartbeat IPC: 0.952208 cumulative IPC: 0.716842 (Simulation time: 3 hr 4 min 11 sec) 
Finished CPU 5 instructions: 100000003 cycles: 554440220 cumulative IPC: 0.180362 (Simulation time: 3 hr 5 min 53 sec) 

CPU 0 Branch Prediction Accuracy: 98.3655% MPKI: 1.46954

CPU 1 Branch Prediction Accuracy: 90.6346% MPKI: 11.0819

CPU 2 Branch Prediction Accuracy: 99.9931% MPKI: 0.000830068

CPU 3 Branch Prediction Accuracy: 96.6639% MPKI: 4.68019

CPU 4 Branch Prediction Accuracy: 99.9751% MPKI: 0.00399805

CPU 5 Branch Prediction Accuracy: 99.9795% MPKI: 0.0181518

CPU 6 Branch Prediction Accuracy: 98.5115% MPKI: 1.62816

CPU 7 Branch Prediction Accuracy: 99.9177% MPKI: 0.0796908

ChampSim completed all CPUs

Total Simulation Statistics (not including warmup)

CPU 0 cumulative IPC: 0.6559 instructions: 363657148 cycles: 554440219
L1D TOTAL     ACCESS:  103470287  HIT:   99974878  MISS:    3495409
L1D LOAD      ACCESS:   78776975  HIT:   75281591  MISS:    3495384
L1D RFO       ACCESS:   24693312  HIT:   24693287  MISS:         25
L1D PREFETCH  ACCESS:          0  HIT:          0  MISS:          0
L1D WRITEBACK ACCESS:          0  HIT:          0  MISS:          0
L1I TOTAL     ACCESS:  115387624  HIT:  115387624  MISS:          0
L1I LOAD      ACCESS:  115387624  HIT:  115387624  MISS:          0
L1I RFO       ACCESS:          0  HIT:          0  MISS:          0
L1I PREFETCH  ACCESS:          0  HIT:          0  MISS:          0
L1I WRITEBACK ACCESS:          0  HIT:          0  MISS:          0
L2C TOTAL     ACCESS:    4590351  HIT:    4073539  MISS:     516812
L2C LOAD      ACCESS:    3495384  HIT:    2978596  MISS:     516788
L2C RFO       ACCESS:         24  HIT:         24  MISS:          0
L2C PREFETCH  ACCESS:          0  HIT:          0  MISS:          0
L2C WRITEBACK ACCESS:    1094943  HIT:    1094919  MISS:         24
LLC TOTAL     ACCESS:     670621  HIT:     438691  MISS:     231930
LLC LOAD      ACCESS:     516788  HIT:     297927  MISS:     218861
LLC RFO       ACCESS:          0  HIT:          0  MISS:          0
LLC PREFETCH  ACCESS:          0  HIT:          0  MISS:          0
LLC WRITEBACK ACCESS:     153833  HIT:     140764  MISS:      13069

CPU 1 cumulative IPC: 0.717194 instructions: 397641365 cycles: 554440219
L1D TOTAL     ACCESS:   92996223  HIT:   90667753  MISS:    2328470
L1D LOAD      ACCESS:   59496933  HIT:   57536432  MISS:    1960501
L1D RFO       ACCESS:   33499290  HIT:   33131321  MISS:     367969
L1D PREFETCH  ACCESS:          0  HIT:          0  MISS:          0
L1D WRITEBACK ACCESS:          0  HIT:          0  MISS:          0
L1I TOTAL     ACCESS:   78414197  HIT:   78413370  MISS:        827
L1I LOAD      ACCESS:   78414197  HIT:   78413370  MISS:        827
L1I RFO       ACCESS:          0  HIT:          0  MISS:          0
L1I PREFETCH  ACCESS:          0  HIT:          0  MISS:          0
L1I WRITEBACK ACCESS:          0  HIT:          0  MISS:          0
L2C TOTAL     ACCESS:    3888848  HIT:    2748160  MISS:    1140688
L2C LOAD      ACCESS:    1961287  HIT:     998183  MISS:     963104
L2C RFO       ACCESS:     367889  HIT:     194267  MISS:     173622
L2C PREFETCH  ACCESS:          0  HIT:          0  MISS:          0
L2C WRITEBACK ACCESS:    1559672  HIT:    1555710  MISS:       3962
LLC TOTAL     ACCESS:    1933046  HIT:    1275736  MISS:     657310
LLC LOAD      ACCESS:     963103  HIT:     440605  MISS:     522498
LLC RFO       ACCESS:     173619  HIT:      58189  MISS:     115430
LLC PREFETCH  ACCESS:          0  HIT:          0  MISS:          0
LLC WRITEBACK ACCESS:     796324  HIT:     776942  MISS:      19382

CPU 2 cumulative IPC: 0.347658 instructions: 192755379 cycles: 554440219
L1D TOTAL     ACCESS:  108006824  HIT:  104298154  MISS:    3708670
L1D LOAD      ACCESS:   95648681  HIT:   91940011  MISS:    3708670
L1D RFO       ACCESS:   12358143  HIT:   12358143  MISS:          0
L1D PREFETCH  ACCESS:          0  HIT:          0  MISS:          0
L1D WRITEBACK ACCESS:          0  HIT:          0  MISS:          0
L1I TOTAL     ACCESS:   59444614  HIT:   59444614  MISS:          0
L1I LOAD      ACCESS:   59444614  HIT:   59444614  MISS:          0
L1I RFO       ACCESS:          0  HIT:          0  MISS:          0
L1I PREFETCH  ACCESS:          0  HIT:          0  MISS:          0
L1I WRITEBACK ACCESS:          0  HIT:          0  MISS:          0
L2C TOTAL     ACCESS:    5581260  HIT:    1872591  MISS:    3708669
L2C LOAD      ACCESS:    3708671  HIT:          2  MISS:    3708669
L2C RFO       ACCESS:          0  HIT:          0  MISS:          0
L2C PREFETCH  ACCESS:          0  HIT:          0  MISS:          0
L2C WRITEBACK ACCESS:    1872589  HIT:    1872589  MISS:          0
LLC TOTAL     ACCESS:    5581310  HIT:    2622542  MISS:    2958768
LLC LOAD      ACCESS:    3708669  HIT:     749901  MISS:    2958768
LLC RFO       ACCESS:          0  HIT:          0  MISS:          0
LLC PREFETCH  ACCESS:          0  HIT:          0  MISS:          0
LLC WRITEBACK ACCESS:    1872641  HIT:    1872641  MISS:          0

CPU 3 cumulative IPC: 0.511337 instructions: 283505513 cycles: 554440220
L1D TOTAL     ACCESS:  106206227  HIT:  105250086  MISS:     956141
L1D LOAD      ACCESS:   50328628  HIT:   49457439  MISS:     871189
L1D RFO       ACCESS:   55877599  HIT:   55792647  MISS:      84952
L1D PREFETCH  ACCESS:          0  HIT:          0  MISS:          0
L1D WRITEBACK ACCESS:          0  HIT:          0  MISS:          0
L1I TOTAL     ACCESS:   77592083  HIT:   76424229  MISS:    1167854
L1I LOAD      ACCESS:   77592083  HIT:   76424229  MISS:    1167854
L1I RFO       ACCESS:          0  HIT:          0  MISS:          0
L1I PREFETCH  ACCESS:          0  HIT:          0  MISS:          0
L1I WRITEBACK ACCESS:          0  HIT:          0  MISS:          0
L2C TOTAL     ACCESS:    2392275  HIT:    1831041  MISS:     561234
L2C LOAD      ACCESS:    2039027  HIT:    1512201  MISS:     526826
L2C RFO       ACCESS:      84952  HIT:      53908  MISS:      31044
L2C PREFETCH  ACCESS:          0  HIT:          0  MISS:          0
L2C WRITEBACK ACCESS:     268296  HIT:     264932  MISS:       3364
LLC TOTAL     ACCESS:     664234  HIT:     316644  MISS:     347590
LLC LOAD      ACCESS:     526826  HIT:     206777  MISS:     320049
LLC RFO       ACCESS:      31042  HIT:      13262  MISS:      17780
LLC PREFETCH  ACCESS:          0  HIT:          0  MISS:          0
LLC WRITEBACK ACCESS:     106366  HIT:      96605  MISS:       9761

CPU 4 cumulative IPC: 0.335738 instructions: 186146754 cycles: 554440220
L1D TOTAL     ACCESS:   38380297  HIT:   35916895  MISS:    2463402
L1D LOAD      ACCESS:   25318168  HIT:   22857615  MISS:    2460553
L1D RFO       ACCESS:   13062129  HIT:   13059280  MISS:       2849
L1D PREFETCH  ACCESS:          0  HIT:          0  MISS:          0
L1D WRITEBACK ACCESS:          0  HIT:          0  MISS:          0
L1I TOTAL     ACCESS:   37156719  HIT:   37156719  MISS:          0
L1I LOAD      ACCESS:   37156719  HIT:   37156719  MISS:          0
L1I RFO       ACCESS:          0  HIT:          0  MISS:          0
L1I PREFETCH  ACCESS:          0  HIT:          0  MISS:          0
L1I WRITEBACK ACCESS:          0  HIT:          0  MISS:          0
L2C TOTAL     ACCESS:    4098697  HIT:    1702766  MISS:    2395931
L2C LOAD      ACCESS:    2460553  HIT:      67384  MISS:    2393169
L2C RFO       ACCESS:       2849  HIT:         87  MISS:       2762
L2C PREFETCH  ACCESS:          0  HIT:          0  MISS:          0
L2C WRITEBACK ACCESS:    1635295  HIT:    1635295  MISS:          0
LLC TOTAL     ACCESS:    4030517  HIT:    2397625  MISS:    1632892
LLC LOAD      ACCESS:    2393169  HIT:     760280  MISS:    1632889
LLC RFO       ACCESS:       2762  HIT:       2762  MISS:          0
LLC PREFETCH  ACCESS:          0  HIT:          0  MISS:          0
LLC WRITEBACK ACCESS:    1634586  HIT:    1634583  MISS:          3

CPU 5 cumulative IPC: 0.180362 instructions: 100000003 cycles: 554440220
L1D TOTAL     ACCESS:   19591572  HIT:   14046451  MISS:    5545121
L1D LOAD      ACCESS:   15157225  HIT:    9889353  MISS:    5267872
L1D RFO       ACCESS:    4434347  HIT:    4157098  MISS:     277249
L1D PREFETCH  ACCESS:          0  HIT:          0  MISS:          0
L1D WRITEBACK ACCESS:          0  HIT:          0  MISS:          0
L1I TOTAL     ACCESS:   25447200  HIT:   25447200  MISS:          0
L1I LOAD      ACCESS:   25447200  HIT:   25447200  MISS:          0
L1I RFO       ACCESS:          0  HIT:          0  MISS:          0
L1I PREFETCH  ACCESS:          0  HIT:          0  MISS:          0
L1I WRITEBACK ACCESS:          0  HIT:          0  MISS:          0
L2C TOTAL     ACCESS:    7762292  HIT:    4315077  MISS:    3447215
L2C LOAD      ACCESS:    5267871  HIT:    2043167  MISS:    3224704
L2C RFO       ACCESS:     277249  HIT:      54739  MISS:     222510
L2C PREFETCH  ACCESS:          0  HIT:          0  MISS:          0
L2C WRITEBACK ACCESS:    2217172  HIT:    2217171  MISS:          1
LLC TOTAL     ACCESS:    5664697  HIT:    3129375  MISS:    2535322
LLC LOAD      ACCESS:    3224703  HIT:     689390  MISS:    2535313
LLC RFO       ACCESS:     222510  HIT:     222508  MISS:          2
LLC PREFETCH  ACCESS:          0  HIT:          0  MISS:          0
LLC WRITEBACK ACCESS:    2217484  HIT:    2217477  MISS:          7

CPU 6 cumulative IPC: 0.309441 instructions: 171566551 cycles: 554440220
L1D TOTAL     ACCESS:   82288919  HIT:   73929575  MISS:    8359344
L1D LOAD      ACCESS:   40904142  HIT:   32945960  MISS:    7958182
L1D RFO       ACCESS:   41384777  HIT:   40983615  MISS:     401162
L1D PREFETCH  ACCESS:          0  HIT:          0  MISS:          0
L1D WRITEBACK ACCESS:          0  HIT:          0  MISS:          0
L1I TOTAL     ACCESS:   56449832  HIT:   56449832  MISS:          0
L1I LOAD      ACCESS:   56449832  HIT:   56449832  MISS:          0
L1I RFO       ACCESS:          0  HIT:          0  MISS:          0
L1I PREFETCH  ACCESS:          0  HIT:          0  MISS:          0
L1I WRITEBACK ACCESS:          0  HIT:          0  MISS:          0
L2C TOTAL     ACCESS:    9323852  HIT:    1192948  MISS:    8130904
L2C LOAD      ACCESS:    7958136  HIT:     218609  MISS:    7739527
L2C RFO       ACCESS:     401130  HIT:      15861  MISS:     385269
L2C PREFETCH  ACCESS:          0  HIT:          0  MISS:          0
L2C WRITEBACK ACCESS:     964586  HIT:     958478  MISS:       6108
LLC TOTAL     ACCESS:    8917823  HIT:    7017591  MISS:    1900232
LLC LOAD      ACCESS:    7739527  HIT:    6223872  MISS:    1515655
LLC RFO       ACCESS:     385269  HIT:       1080  MISS:     384189
LLC PREFETCH  ACCESS:          0  HIT:          0  MISS:          0
LLC WRITEBACK ACCESS:     793027  HIT:     792639  MISS:        388

CPU 7 cumulative IPC: 0.806362 instructions: 447079523 cycles: 554440220
L1D TOTAL     ACCESS:  118103113  HIT:  114278601  MISS:    3824512
L1D LOAD      ACCESS:  105399351  HIT:  101674850  MISS:    3724501
L1D RFO       ACCESS:   12703762  HIT:   12603751  MISS:     100011
L1D PREFETCH  ACCESS:          0  HIT:          0  MISS:          0
L1D WRITEBACK ACCESS:          0  HIT:          0  MISS:          0
L1I TOTAL     ACCESS:  151125311  HIT:  151125228  MISS:         83
L1I LOAD      ACCESS:  151125311  HIT:  151125228  MISS:         83
L1I RFO       ACCESS:          0  HIT:          0  MISS:          0
L1I PREFETCH  ACCESS:          0  HIT:          0  MISS:          0
L1I WRITEBACK ACCESS:          0  HIT:          0  MISS:          0
L2C TOTAL     ACCESS:    5128634  HIT:    4441970  MISS:     686664
L2C LOAD      ACCESS:    3724575  HIT:    3131578  MISS:     592997
L2C RFO       ACCESS:     100011  HIT:       6878  MISS:      93133
L2C PREFETCH  ACCESS:          0  HIT:          0  MISS:          0
L2C WRITEBACK ACCESS:    1304048  HIT:    1303514  MISS:        534
LLC TOTAL     ACCESS:     872672  HIT:     355258  MISS:     517414
LLC LOAD      ACCESS:     592997  HIT:     175744  MISS:     417253
LLC RFO       ACCESS:      93133  HIT:        142  MISS:      92991
LLC PREFETCH  ACCESS:          0  HIT:          0  MISS:          0
LLC WRITEBACK ACCESS:     186542  HIT:     179372  MISS:       7170

Region of Interest Statistics

CPU 0 cumulative IPC: 0.65517 instructions: 100000000 cycles: 152632079
L1D TOTAL     ACCESS:   28478611  HIT:   27515528  MISS:     963083
L1D LOAD      ACCESS:   21688018  HIT:   20724940  MISS:     963078
L1D RFO       ACCESS:    6790593  HIT:    6790588  MISS:          5
L1D PREFETCH  ACCESS:          0  HIT:          0  MISS:          0
L1D WRITEBACK ACCESS:          0  HIT:          0  MISS:          0
L1D PREFETCH  REQUESTED:          0  ISSUED:          0  USEFUL:          0  USELESS:          0
L1I TOTAL     ACCESS:   31807336  HIT:   31807336  MISS:          0
L1I LOAD      ACCESS:   31807336  HIT:   31807336  MISS:          0
L1I RFO       ACCESS:          0  HIT:          0  MISS:          0
L1I PREFETCH  ACCESS:          0  HIT:          0  MISS:          0
L1I WRITEBACK ACCESS:          0  HIT:          0  MISS:          0
L1I PREFETCH  REQUESTED:          0  ISSUED:          0  USEFUL:          0  USELESS:          0
L2C TOTAL     ACCESS:    1264585  HIT:    1119486  MISS:     145099
L2C LOAD      ACCESS:     963078  HIT:     817984  MISS:     145094
L2C RFO       ACCESS:          4  HIT:          4  MISS:          0
L2C PREFETCH  ACCESS:          0  HIT:          0  MISS:          0
L2C WRITEBACK ACCESS:     301503  HIT:     301498  MISS:          5
L2C PREFETCH  REQUESTED:          0  ISSUED:          0  USEFUL:          0  USELESS:          0
LLC TOTAL     ACCESS:     186604  HIT:     121617  MISS:      64987
LLC LOAD      ACCESS:     145094  HIT:      83718  MISS:      61376
LLC RFO       ACCESS:          0  HIT:          0  MISS:          0
LLC PREFETCH  ACCESS:          0  HIT:          0  MISS:          0
LLC WRITEBACK ACCESS:      41510  HIT:      37899  MISS:       3611
LLC PREFETCH  REQUESTED:          0  ISSUED:          0  USEFUL:          0  USELESS:          0
Major fault: 0 Minor fault: 3898

CPU 1 cumulative IPC: 0.589839 instructions: 100000002 cycles: 169537818
L1D TOTAL     ACCESS:   21967328  HIT:   21193918  MISS:     773410
L1D LOAD      ACCESS:   14471525  HIT:   13797757  MISS:     673768
L1D RFO       ACCESS:    7495803  HIT:    7396161  MISS:      99642
L1D PREFETCH  ACCESS:          0  HIT:          0  MISS:          0
L1D WRITEBACK ACCESS:          0  HIT:          0  MISS:          0
L1D PREFETCH  REQUESTED:          0  ISSUED:          0  USEFUL:          0  USELESS:          0
L1I TOTAL     ACCESS:   19421992  HIT:   19421793  MISS:        199
L1I LOAD      ACCESS:   19421992  HIT:   19421793  MISS:        199
L1I RFO       ACCESS:          0  HIT:          0  MISS:          0
L1I PREFETCH  ACCESS:          0  HIT:          0  MISS:          0
L1I WRITEBACK ACCESS:          0  HIT:          0  MISS:          0
L1I PREFETCH  REQUESTED:          0  ISSUED:          0  USEFUL:          0  USELESS:          0
L2C TOTAL     ACCESS:    1267611  HIT:     816580  MISS:     451031
L2C LOAD      ACCESS:     673954  HIT:     261828  MISS:     412126
L2C RFO       ACCESS:      99603  HIT:      62105  MISS:      37498
L2C PREFETCH  ACCESS:          0  HIT:          0  MISS:          0
L2C WRITEBACK ACCESS:     494054  HIT:     492647  MISS:       1407
L2C PREFETCH  REQUESTED:          0  ISSUED:          0  USEFUL:          0  USELESS:          0
LLC TOTAL     ACCESS:     755380  HIT:     514637  MISS:     240743
LLC LOAD      ACCESS:     412126  HIT:     193157  MISS:     218969
LLC RFO       ACCESS:      37497  HIT:      17374  MISS:      20123
LLC PREFETCH  ACCESS:          0  HIT:          0  MISS:          0
LLC WRITEBACK ACCESS:     305757  HIT:     304106  MISS:       1651
LLC PREFETCH  REQUESTED:          0  ISSUED:          0  USEFUL:          0  USELESS:          0
Major fault: 0 Minor fault: 9256

CPU 2 cumulative IPC: 0.348064 instructions: 100000000 cycles: 287303853
L1D TOTAL     ACCESS:   56029661  HIT:   54105642  MISS:    1924019
L1D LOAD      ACCESS:   49618353  HIT:   47694334  MISS:    1924019
L1D RFO       ACCESS:    6411308  HIT:    6411308  MISS:          0
L1D PREFETCH  ACCESS:          0  HIT:          0  MISS:          0
L1D WRITEBACK ACCESS:          0  HIT:          0  MISS:          0
L1D PREFETCH  REQUESTED:          0  ISSUED:          0  USEFUL:          0  USELESS:          0
L1I TOTAL     ACCESS:   30838082  HIT:   30838082  MISS:          0
L1I LOAD      ACCESS:   30838082  HIT:   30838082  MISS:          0
L1I RFO       ACCESS:          0  HIT:          0  MISS:          0
L1I PREFETCH  ACCESS:          0  HIT:          0  MISS:          0
L1I WRITEBACK ACCESS:          0  HIT:          0  MISS:          0
L1I PREFETCH  REQUESTED:          0  ISSUED:          0  USEFUL:          0  USELESS:          0
L2C TOTAL     ACCESS:    2895500  HIT:     971481  MISS:    1924019
L2C LOAD      ACCESS:    1924019  HIT:          0  MISS:    1924019
L2C RFO       ACCESS:          0  HIT:          0  MISS:          0
L2C PREFETCH  ACCESS:          0  HIT:          0  MISS:          0
L2C WRITEBACK ACCESS:     971481  HIT:     971481  MISS:          0
L2C PREFETCH  REQUESTED:          0  ISSUED:          0  USEFUL:          0  USELESS:          0
LLC TOTAL     ACCESS:    2895552  HIT:    1361481  MISS:    1534071
LLC LOAD      ACCESS:    1924019  HIT:     389948  MISS:    1534071
LLC RFO       ACCESS:          0  HIT:          0  MISS:          0
LLC PREFETCH  ACCESS:          0  HIT:          0  MISS:          0
LLC WRITEBACK ACCESS:     971533  HIT:     971533  MISS:          0
LLC PREFETCH  REQUESTED:          0  ISSUED:          0  USEFUL:          0  USELESS:          0
Major fault: 0 Minor fault: 544744

CPU 3 cumulative IPC: 0.580669 instructions: 100000001 cycles: 172215256
L1D TOTAL     ACCESS:   37271299  HIT:   37041208  MISS:     230091
L1D LOAD      ACCESS:   16848495  HIT:   16643266  MISS:     205229
L1D RFO       ACCESS:   20422804  HIT:   20397942  MISS:      24862
L1D PREFETCH  ACCESS:          0  HIT:          0  MISS:          0
L1D WRITEBACK ACCESS:          0  HIT:          0  MISS:          0
L1D PREFETCH  REQUESTED:          0  ISSUED:          0  USEFUL:          0  USELESS:          0
L1I TOTAL     ACCESS:   27434502  HIT:   27170257  MISS:     264245
L1I LOAD      ACCESS:   27434502  HIT:   27170257  MISS:     264245
L1I RFO       ACCESS:          0  HIT:          0  MISS:          0
L1I PREFETCH  ACCESS:          0  HIT:          0  MISS:          0
L1I WRITEBACK ACCESS:          0  HIT:          0  MISS:          0
L1I PREFETCH  REQUESTED:          0  ISSUED:          0  USEFUL:          0  USELESS:          0
L2C TOTAL     ACCESS:     561877  HIT:     428786  MISS:     133091
L2C LOAD      ACCESS:     469473  HIT:     345037  MISS:     124436
L2C RFO       ACCESS:      24862  HIT:      16991  MISS:       7871
L2C PREFETCH  ACCESS:          0  HIT:          0  MISS:          0
L2C WRITEBACK ACCESS:      67542  HIT:      66758  MISS:        784
L2C PREFETCH  REQUESTED:          0  ISSUED:          0  USEFUL:          0  USELESS:          0
LLC TOTAL     ACCESS:     158027  HIT:      63989  MISS:      94038
LLC LOAD      ACCESS:     124436  HIT:      38383  MISS:      86053
LLC RFO       ACCESS:       7870  HIT:       3071  MISS:       4799
LLC PREFETCH  ACCESS:          0  HIT:          0  MISS:          0
LLC WRITEBACK ACCESS:      25721  HIT:      22535  MISS:       3186
LLC PREFETCH  REQUESTED:          0  ISSUED:          0  USEFUL:          0  USELESS:          0
Major fault: 0 Minor fault: 5868

CPU 4 cumulative IPC: 0.335887 instructions: 100000001 cycles: 297718750
L1D TOTAL     ACCESS:   20618757  HIT:   19295383  MISS:    1323374
L1D LOAD      ACCESS:   13601640  HIT:   12279799  MISS:    1321841
L1D RFO       ACCESS:    7017117  HIT:    7015584  MISS:       1533
L1D PREFETCH  ACCESS:          0  HIT:          0  MISS:          0
L1D WRITEBACK ACCESS:          0  HIT:          0  MISS:          0
L1D PREFETCH  REQUESTED:          0  ISSUED:          0  USEFUL:          0  USELESS:          0
L1I TOTAL     ACCESS:   19961551  HIT:   19961551  MISS:          0
L1I LOAD      ACCESS:   19961551  HIT:   19961551  MISS:          0
L1I RFO       ACCESS:          0  HIT:          0  MISS:          0
L1I PREFETCH  ACCESS:          0  HIT:          0  MISS:          0
L1I WRITEBACK ACCESS:          0  HIT:          0  MISS:          0
L1I PREFETCH  REQUESTED:          0  ISSUED:          0  USEFUL:          0  USELESS:          0
L2C TOTAL     ACCESS:    2201871  HIT:     914330  MISS:    1287541
L2C LOAD      ACCESS:    1321841  HIT:      35789  MISS:    1286052
L2C RFO       ACCESS:       1533  HIT:         44  MISS:       1489
L2C PREFETCH  ACCESS:          0  HIT:          0  MISS:          0
L2C WRITEBACK ACCESS:     878497  HIT:     878497  MISS:          0
L2C PREFETCH  REQUESTED:          0  ISSUED:          0  USEFUL:          0  USELESS:          0
LLC TOTAL     ACCESS:    2165670  HIT:    1288456  MISS:     877214
LLC LOAD      ACCESS:    1286052  HIT:     408840  MISS:     877212
LLC RFO       ACCESS:       1489  HIT:       1489  MISS:          0
LLC PREFETCH  ACCESS:          0  HIT:          0  MISS:          0
LLC WRITEBACK ACCESS:     878129  HIT:     878127  MISS:          2
LLC PREFETCH  REQUESTED:          0  ISSUED:          0  USEFUL:          0  USELESS:          0
Major fault: 0 Minor fault: 30764

CPU 5 cumulative IPC: 0.180362 instructions: 100000003 cycles: 554440220
L1D TOTAL     ACCESS:   19591572  HIT:   14046451  MISS:    5545121
L1D LOAD      ACCESS:   15157225  HIT:    9889353  MISS:    5267872
L1D RFO       ACCESS:    4434347  HIT:    4157098  MISS:     277249
L1D PREFETCH  ACCESS:          0  HIT:          0  MISS:          0
L1D WRITEBACK ACCESS:          0  HIT:          0  MISS:          0
L1D PREFETCH  REQUESTED:          0  ISSUED:          0  USEFUL:          0  USELESS:          0
L1I TOTAL     ACCESS:   25447200  HIT:   25447200  MISS:          0
L1I LOAD      ACCESS:   25447200  HIT:   25447200  MISS:          0
L1I RFO       ACCESS:          0  HIT:          0  MISS:          0
L1I PREFETCH  ACCESS:          0  HIT:          0  MISS:          0
L1I WRITEBACK ACCESS:          0  HIT:          0  MISS:          0
L1I PREFETCH  REQUESTED:          0  ISSUED:          0  USEFUL:          0  USELESS:          0
L2C TOTAL     ACCESS:    7762292  HIT:    4315077  MISS:    3447215
L2C LOAD      ACCESS:    5267871  HIT:    2043167  MISS:    3224704
L2C RFO       ACCESS:     277249  HIT:      54739  MISS:     222510
L2C PREFETCH  ACCESS:          0  HIT:          0  MISS:          0
L2C WRITEBACK ACCESS:    2217172  HIT:    2217171  MISS:          1
L2C PREFETCH  REQUESTED:          0  ISSUED:          0  USEFUL:          0  USELESS:          0
LLC TOTAL     ACCESS:    5664697  HIT:    3129375  MISS:    2535322
LLC LOAD      ACCESS:    3224703  HIT:     689390  MISS:    2535313
LLC RFO       ACCESS:     222510  HIT:     222508  MISS:          2
LLC PREFETCH  ACCESS:          0  HIT:          0  MISS:          0
LLC WRITEBACK ACCESS:    2217484  HIT:    2217477  MISS:          7
LLC PREFETCH  REQUESTED:          0  ISSUED:          0  USEFUL:          0  USELESS:          0
Major fault: 0 Minor fault: 60110

CPU 6 cumulative IPC: 0.31113 instructions: 100000002 cycles: 321409500
L1D TOTAL     ACCESS:   48089062  HIT:   43329169  MISS:    4759893
L1D LOAD      ACCESS:   23794809  HIT:   19258854  MISS:    4535955
L1D RFO       ACCESS:   24294253  HIT:   24070315  MISS:     223938
L1D PREFETCH  ACCESS:          0  HIT:          0  MISS:          0
L1D WRITEBACK ACCESS:          0  HIT:          0  MISS:          0
L1D PREFETCH  REQUESTED:          0  ISSUED:          0  USEFUL:          0  USELESS:          0
L1I TOTAL     ACCESS:   32886633  HIT:   32886633  MISS:          0
L1I LOAD      ACCESS:   32886633  HIT:   32886633  MISS:          0
L1I RFO       ACCESS:          0  HIT:          0  MISS:          0
L1I PREFETCH  ACCESS:          0  HIT:          0  MISS:          0
L1I WRITEBACK ACCESS:          0  HIT:          0  MISS:          0
L1I PREFETCH  REQUESTED:          0  ISSUED:          0  USEFUL:          0  USELESS:          0
L2C TOTAL     ACCESS:    5307627  HIT:     675610  MISS:    4632017
L2C LOAD      ACCESS:    4535933  HIT:     123327  MISS:    4412606
L2C RFO       ACCESS:     223919  HIT:       8061  MISS:     215858
L2C PREFETCH  ACCESS:          0  HIT:          0  MISS:          0
L2C WRITEBACK ACCESS:     547775  HIT:     544222  MISS:       3553
L2C PREFETCH  REQUESTED:          0  ISSUED:          0  USEFUL:          0  USELESS:          0
LLC TOTAL     ACCESS:    5078521  HIT:    3984563  MISS:    1093958
LLC LOAD      ACCESS:    4412606  HIT:    3534171  MISS:     878435
LLC RFO       ACCESS:     215858  HIT:        586  MISS:     215272
LLC PREFETCH  ACCESS:          0  HIT:          0  MISS:          0
LLC WRITEBACK ACCESS:     450057  HIT:     449806  MISS:        251
LLC PREFETCH  REQUESTED:          0  ISSUED:          0  USEFUL:          0  USELESS:          0
Major fault: 0 Minor fault: 37124

CPU 7 cumulative IPC: 0.820326 instructions: 100000000 cycles: 121902771
L1D TOTAL     ACCESS:   26551778  HIT:   25616119  MISS:     935659
L1D LOAD      ACCESS:   23780066  HIT:   22846122  MISS:     933944
L1D RFO       ACCESS:    2771712  HIT:    2769997  MISS:       1715
L1D PREFETCH  ACCESS:          0  HIT:          0  MISS:          0
L1D WRITEBACK ACCESS:          0  HIT:          0  MISS:          0
L1D PREFETCH  REQUESTED:          0  ISSUED:          0  USEFUL:          0  USELESS:          0
L1I TOTAL     ACCESS:   33843223  HIT:   33843223  MISS:          0
L1I LOAD      ACCESS:   33843223  HIT:   33843223  MISS:          0
L1I RFO       ACCESS:          0  HIT:          0  MISS:          0
L1I PREFETCH  ACCESS:          0  HIT:          0  MISS:          0
L1I WRITEBACK ACCESS:          0  HIT:          0  MISS:          0
L1I PREFETCH  REQUESTED:          0  ISSUED:          0  USEFUL:          0  USELESS:          0
L2C TOTAL     ACCESS:    1248983  HIT:    1183164  MISS:      65819
L2C LOAD      ACCESS:     933944  HIT:     868190  MISS:      65754
L2C RFO       ACCESS:       1715  HIT:       1715  MISS:          0
L2C PREFETCH  ACCESS:          0  HIT:          0  MISS:          0
L2C WRITEBACK ACCESS:     313324  HIT:     313259  MISS:         65
L2C PREFETCH  REQUESTED:          0  ISSUED:          0  USEFUL:          0  USELESS:          0
LLC TOTAL     ACCESS:      67781  HIT:       1140  MISS:      66641
LLC LOAD      ACCESS:      65754  HIT:        805  MISS:      64949
LLC RFO       ACCESS:          0  HIT:          0  MISS:          0
LLC PREFETCH  ACCESS:          0  HIT:          0  MISS:          0
LLC WRITEBACK ACCESS:       2027  HIT:        335  MISS:       1692
LLC PREFETCH  REQUESTED:          0  ISSUED:          0  USEFUL:          0  USELESS:          0
Major fault: 0 Minor fault: 16282

DRAM Statistics
 CHANNEL 0
 RQ ROW_BUFFER_HIT:    1156921  ROW_BUFFER_MISS:    4209374
 DBUS_CONGESTED:    9713179
 WQ ROW_BUFFER_HIT:     418686  ROW_BUFFER_MISS:    3192588  FULL:          0

 CHANNEL 1
 RQ ROW_BUFFER_HIT:    1127050  ROW_BUFFER_MISS:    4238208
 DBUS_CONGESTED:    9713179
 WQ ROW_BUFFER_HIT:     424620  ROW_BUFFER_MISS:    3184510  FULL:          0

 AVG_CONGESTED_CYCLE: 14
