
*** ChampSim Multicore Out-of-Order Simulator ***

Warmup Instructions: 20000000
Simulation Instructions: 100000000
Number of CPUs: 8
LLC sets: 16384
LLC ways: 16
Off-chip DRAM Size: 8192 MB Channels: 2 Width: 64-bit Data Rate: 1600 MT/s

CPU 0 runs /scratch/user/djimenez/champsim-traces/speccpu2017/xz/627.cam4_s/627.cam4_s-573B.champsimtrace.xz
CPU 1 runs /scratch/user/djimenez/champsim-traces/speccpu2017/xz/600.perlbench_s/600.perlbench_s-570B.champsimtrace.xz
CPU 2 runs /scratch/user/djimenez/champsim-traces/speccpu2017/xz/631.deepsjeng_s/631.deepsjeng_s-928B.champsimtrace.xz
CPU 3 runs /scratch/user/djimenez/champsim-traces/speccpu2017/xz/603.bwaves_s/603.bwaves_s-5359B.champsimtrace.xz
CPU 4 runs /scratch/user/djimenez/champsim-traces/speccpu2017/xz/603.bwaves_s/603.bwaves_s-2931B.champsimtrace.xz
CPU 5 runs /scratch/user/djimenez/champsim-traces/speccpu2017/xz/605.mcf_s/605.mcf_s-1644B.champsimtrace.xz
CPU 6 runs /scratch/user/djimenez/champsim-traces/speccpu2017/xz/641.leela_s/641.leela_s-334B.champsimtrace.xz
CPU 7 runs /scratch/user/djimenez/champsim-traces/speccpu2017/xz/621.wrf_s/621.wrf_s-8065B.champsimtrace.xz
Heartbeat CPU 3 instructions: 10000000 cycles: 4003982 heartbeat IPC: 2.49751 cumulative IPC: 2.49751 (Simulation time: 0 hr 3 min 6 sec) 
Heartbeat CPU 0 instructions: 10000003 cycles: 4432760 heartbeat IPC: 2.25593 cumulative IPC: 2.25593 (Simulation time: 0 hr 3 min 26 sec) 
Heartbeat CPU 7 instructions: 10000003 cycles: 4749954 heartbeat IPC: 2.10528 cumulative IPC: 2.10528 (Simulation time: 0 hr 3 min 40 sec) 
Heartbeat CPU 4 instructions: 10000003 cycles: 5231143 heartbeat IPC: 1.91163 cumulative IPC: 1.91163 (Simulation time: 0 hr 4 min 3 sec) 
Heartbeat CPU 2 instructions: 10000003 cycles: 5309403 heartbeat IPC: 1.88345 cumulative IPC: 1.88345 (Simulation time: 0 hr 4 min 7 sec) 
Heartbeat CPU 1 instructions: 10000000 cycles: 5690263 heartbeat IPC: 1.75739 cumulative IPC: 1.75739 (Simulation time: 0 hr 4 min 24 sec) 
Heartbeat CPU 6 instructions: 10000001 cycles: 6393190 heartbeat IPC: 1.56416 cumulative IPC: 1.56416 (Simulation time: 0 hr 4 min 59 sec) 
Heartbeat CPU 3 instructions: 20000000 cycles: 8335475 heartbeat IPC: 2.30867 cumulative IPC: 2.39938 (Simulation time: 0 hr 6 min 34 sec) 
Heartbeat CPU 0 instructions: 20000000 cycles: 8603103 heartbeat IPC: 2.39788 cumulative IPC: 2.32474 (Simulation time: 0 hr 6 min 47 sec) 
Heartbeat CPU 7 instructions: 20000000 cycles: 9259937 heartbeat IPC: 2.2173 cumulative IPC: 2.15984 (Simulation time: 0 hr 7 min 18 sec) 
Heartbeat CPU 4 instructions: 20000000 cycles: 10461420 heartbeat IPC: 1.91194 cumulative IPC: 1.91179 (Simulation time: 0 hr 8 min 15 sec) 
Heartbeat CPU 5 instructions: 10000002 cycles: 10591597 heartbeat IPC: 0.944145 cumulative IPC: 0.944145 (Simulation time: 0 hr 8 min 21 sec) 
Heartbeat CPU 2 instructions: 20000000 cycles: 10752146 heartbeat IPC: 1.83731 cumulative IPC: 1.86009 (Simulation time: 0 hr 8 min 29 sec) 
Heartbeat CPU 1 instructions: 20000000 cycles: 11556511 heartbeat IPC: 1.70467 cumulative IPC: 1.73063 (Simulation time: 0 hr 9 min 8 sec) 
Heartbeat CPU 3 instructions: 30000002 cycles: 12326499 heartbeat IPC: 2.50562 cumulative IPC: 0.811261 (Simulation time: 0 hr 9 min 59 sec) 
Heartbeat CPU 0 instructions: 30000001 cycles: 12771064 heartbeat IPC: 2.39926 cumulative IPC: 0.78302 (Simulation time: 0 hr 10 min 24 sec) 
Heartbeat CPU 6 instructions: 20000000 cycles: 12790432 heartbeat IPC: 1.56317 cumulative IPC: 1.56367 (Simulation time: 0 hr 10 min 25 sec) 
Heartbeat CPU 7 instructions: 30000000 cycles: 13662675 heartbeat IPC: 2.27131 cumulative IPC: 0.731921 (Simulation time: 0 hr 11 min 6 sec) 
Heartbeat CPU 4 instructions: 30000002 cycles: 15692021 heartbeat IPC: 1.91183 cumulative IPC: 0.637267 (Simulation time: 0 hr 12 min 38 sec) 
Heartbeat CPU 2 instructions: 30000000 cycles: 16026704 heartbeat IPC: 1.89589 cumulative IPC: 0.623959 (Simulation time: 0 hr 12 min 53 sec) 
Heartbeat CPU 3 instructions: 40000000 cycles: 16315328 heartbeat IPC: 2.507 cumulative IPC: 1.22584 (Simulation time: 0 hr 13 min 6 sec) 
Heartbeat CPU 0 instructions: 40000000 cycles: 16862300 heartbeat IPC: 2.44425 cumulative IPC: 1.18608 (Simulation time: 0 hr 13 min 31 sec) 
Heartbeat CPU 1 instructions: 30000000 cycles: 17418191 heartbeat IPC: 1.706 cumulative IPC: 0.574112 (Simulation time: 0 hr 13 min 57 sec) 
Heartbeat CPU 7 instructions: 40000000 cycles: 18312967 heartbeat IPC: 2.1504 cumulative IPC: 1.09212 (Simulation time: 0 hr 14 min 37 sec) 
Heartbeat CPU 6 instructions: 30000000 cycles: 19159091 heartbeat IPC: 1.57019 cumulative IPC: 0.521945 (Simulation time: 0 hr 15 min 14 sec) 
Heartbeat CPU 3 instructions: 50000003 cycles: 20302506 heartbeat IPC: 2.50804 cumulative IPC: 1.47765 (Simulation time: 0 hr 16 min 4 sec) 
Heartbeat CPU 4 instructions: 40000000 cycles: 20922011 heartbeat IPC: 1.91205 cumulative IPC: 0.955931 (Simulation time: 0 hr 16 min 31 sec) 
Heartbeat CPU 5 instructions: 20000000 cycles: 21112769 heartbeat IPC: 0.950464 cumulative IPC: 0.947294 (Simulation time: 0 hr 16 min 40 sec) 

Warmup complete CPU 0 instructions: 49771902 cycles: 21112772 (Simulation time: 0 hr 16 min 40 sec) 
Warmup complete CPU 1 instructions: 36430782 cycles: 21112772 (Simulation time: 0 hr 16 min 40 sec) 
Warmup complete CPU 2 instructions: 39609151 cycles: 21112772 (Simulation time: 0 hr 16 min 40 sec) 
Warmup complete CPU 3 instructions: 52036804 cycles: 21112772 (Simulation time: 0 hr 16 min 40 sec) 
Warmup complete CPU 4 instructions: 40364800 cycles: 21112772 (Simulation time: 0 hr 16 min 40 sec) 
Warmup complete CPU 5 instructions: 20000001 cycles: 21112772 (Simulation time: 0 hr 16 min 40 sec) 
Warmup complete CPU 6 instructions: 33054104 cycles: 21112771 (Simulation time: 0 hr 16 min 40 sec) 
Warmup complete CPU 7 instructions: 46252850 cycles: 21112771 (Simulation time: 0 hr 16 min 40 sec) 

Heartbeat CPU 0 instructions: 50000001 cycles: 21394494 heartbeat IPC: 2.20644 cumulative IPC: 0.80966 (Simulation time: 0 hr 16 min 46 sec) 
Heartbeat CPU 2 instructions: 40000000 cycles: 21795689 heartbeat IPC: 1.73341 cumulative IPC: 0.572323 (Simulation time: 0 hr 16 min 54 sec) 
Heartbeat CPU 1 instructions: 40000000 cycles: 25527514 heartbeat IPC: 1.23315 cumulative IPC: 0.808477 (Simulation time: 0 hr 18 min 10 sec) 
Heartbeat CPU 7 instructions: 50000002 cycles: 28113437 heartbeat IPC: 1.02036 cumulative IPC: 0.535257 (Simulation time: 0 hr 19 min 3 sec) 
Heartbeat CPU 3 instructions: 60000000 cycles: 28132975 heartbeat IPC: 1.27706 cumulative IPC: 1.13433 (Simulation time: 0 hr 19 min 3 sec) 
Heartbeat CPU 0 instructions: 60000000 cycles: 34226345 heartbeat IPC: 0.779311 cumulative IPC: 0.779963 (Simulation time: 0 hr 21 min 10 sec) 
Heartbeat CPU 3 instructions: 70000001 cycles: 36992593 heartbeat IPC: 1.12872 cumulative IPC: 1.1312 (Simulation time: 0 hr 22 min 8 sec) 
Heartbeat CPU 6 instructions: 40000000 cycles: 37078372 heartbeat IPC: 0.558058 cumulative IPC: 0.435054 (Simulation time: 0 hr 22 min 9 sec) 
Heartbeat CPU 1 instructions: 50000002 cycles: 38624775 heartbeat IPC: 0.763519 cumulative IPC: 0.774853 (Simulation time: 0 hr 22 min 44 sec) 
Heartbeat CPU 4 instructions: 50000000 cycles: 39121944 heartbeat IPC: 0.549453 cumulative IPC: 0.535016 (Simulation time: 0 hr 22 min 55 sec) 
Heartbeat CPU 2 instructions: 50000001 cycles: 39526910 heartbeat IPC: 0.563977 cumulative IPC: 0.564287 (Simulation time: 0 hr 23 min 4 sec) 
Heartbeat CPU 7 instructions: 60000000 cycles: 40132918 heartbeat IPC: 0.831982 cumulative IPC: 0.722768 (Simulation time: 0 hr 23 min 17 sec) 
Heartbeat CPU 3 instructions: 80000000 cycles: 45776861 heartbeat IPC: 1.1384 cumulative IPC: 1.13376 (Simulation time: 0 hr 25 min 24 sec) 
Heartbeat CPU 0 instructions: 70000000 cycles: 46343862 heartbeat IPC: 0.825252 cumulative IPC: 0.801713 (Simulation time: 0 hr 25 min 38 sec) 
Heartbeat CPU 1 instructions: 60000000 cycles: 51559997 heartbeat IPC: 0.773083 cumulative IPC: 0.774101 (Simulation time: 0 hr 27 min 29 sec) 
Heartbeat CPU 7 instructions: 70000000 cycles: 54100316 heartbeat IPC: 0.715953 cumulative IPC: 0.719882 (Simulation time: 0 hr 28 min 30 sec) 
Heartbeat CPU 3 instructions: 90000001 cycles: 54584390 heartbeat IPC: 1.13539 cumulative IPC: 1.13419 (Simulation time: 0 hr 28 min 39 sec) 
Heartbeat CPU 2 instructions: 60000000 cycles: 56712460 heartbeat IPC: 0.581884 cumulative IPC: 0.572782 (Simulation time: 0 hr 29 min 25 sec) 
Heartbeat CPU 4 instructions: 60000000 cycles: 57423053 heartbeat IPC: 0.546415 cumulative IPC: 0.540761 (Simulation time: 0 hr 29 min 41 sec) 
Heartbeat CPU 0 instructions: 80000000 cycles: 58734852 heartbeat IPC: 0.807038 cumulative IPC: 0.803467 (Simulation time: 0 hr 30 min 12 sec) 
Heartbeat CPU 6 instructions: 50000000 cycles: 60340309 heartbeat IPC: 0.429887 cumulative IPC: 0.43199 (Simulation time: 0 hr 30 min 50 sec) 
Heartbeat CPU 3 instructions: 100000000 cycles: 63381402 heartbeat IPC: 1.13675 cumulative IPC: 1.13472 (Simulation time: 0 hr 32 min 2 sec) 
Heartbeat CPU 7 instructions: 80000000 cycles: 66484760 heartbeat IPC: 0.807465 cumulative IPC: 0.743788 (Simulation time: 0 hr 33 min 15 sec) 
Heartbeat CPU 0 instructions: 90000002 cycles: 71931663 heartbeat IPC: 0.757759 cumulative IPC: 0.791597 (Simulation time: 0 hr 35 min 12 sec) 
Heartbeat CPU 3 instructions: 110000002 cycles: 72176441 heartbeat IPC: 1.137 cumulative IPC: 1.13512 (Simulation time: 0 hr 35 min 18 sec) 
Heartbeat CPU 1 instructions: 70000002 cycles: 73463935 heartbeat IPC: 0.456539 cumulative IPC: 0.641232 (Simulation time: 0 hr 35 min 47 sec) 
Heartbeat CPU 2 instructions: 70000001 cycles: 73667799 heartbeat IPC: 0.589785 cumulative IPC: 0.578267 (Simulation time: 0 hr 35 min 52 sec) 
Heartbeat CPU 4 instructions: 70000001 cycles: 75833964 heartbeat IPC: 0.543156 cumulative IPC: 0.541567 (Simulation time: 0 hr 36 min 34 sec) 
Heartbeat CPU 7 instructions: 90000003 cycles: 80080644 heartbeat IPC: 0.735517 cumulative IPC: 0.741881 (Simulation time: 0 hr 38 min 8 sec) 
Heartbeat CPU 3 instructions: 120000000 cycles: 80997250 heartbeat IPC: 1.13368 cumulative IPC: 1.13491 (Simulation time: 0 hr 38 min 27 sec) 
Heartbeat CPU 6 instructions: 60000000 cycles: 83329873 heartbeat IPC: 0.43498 cumulative IPC: 0.433095 (Simulation time: 0 hr 39 min 15 sec) 
Heartbeat CPU 0 instructions: 100000000 cycles: 87008433 heartbeat IPC: 0.663272 cumulative IPC: 0.762237 (Simulation time: 0 hr 40 min 30 sec) 
Heartbeat CPU 3 instructions: 130000000 cycles: 89763342 heartbeat IPC: 1.14076 cumulative IPC: 1.13565 (Simulation time: 0 hr 41 min 23 sec) 
Heartbeat CPU 2 instructions: 80000000 cycles: 90923262 heartbeat IPC: 0.579527 cumulative IPC: 0.578579 (Simulation time: 0 hr 41 min 50 sec) 
Heartbeat CPU 4 instructions: 80000000 cycles: 97116895 heartbeat IPC: 0.46986 cumulative IPC: 0.521487 (Simulation time: 0 hr 43 min 59 sec) 
Heartbeat CPU 1 instructions: 80000000 cycles: 97227572 heartbeat IPC: 0.420811 cumulative IPC: 0.572415 (Simulation time: 0 hr 44 min 1 sec) 
Heartbeat CPU 7 instructions: 100000000 cycles: 98191068 heartbeat IPC: 0.552168 cumulative IPC: 0.697306 (Simulation time: 0 hr 44 min 18 sec) 
Heartbeat CPU 3 instructions: 140000000 cycles: 98488506 heartbeat IPC: 1.14611 cumulative IPC: 1.13683 (Simulation time: 0 hr 44 min 23 sec) 
Heartbeat CPU 5 instructions: 30000003 cycles: 100203791 heartbeat IPC: 0.126437 cumulative IPC: 0.126437 (Simulation time: 0 hr 44 min 52 sec) 
Heartbeat CPU 6 instructions: 70000000 cycles: 106151082 heartbeat IPC: 0.438189 cumulative IPC: 0.434462 (Simulation time: 0 hr 46 min 42 sec) 
Heartbeat CPU 3 instructions: 150000001 cycles: 107214913 heartbeat IPC: 1.14595 cumulative IPC: 1.13776 (Simulation time: 0 hr 47 min 3 sec) 
Heartbeat CPU 2 instructions: 90000000 cycles: 108256396 heartbeat IPC: 0.57693 cumulative IPC: 0.578251 (Simulation time: 0 hr 47 min 22 sec) 
Heartbeat CPU 0 instructions: 110000000 cycles: 108949239 heartbeat IPC: 0.455772 cumulative IPC: 0.685684 (Simulation time: 0 hr 47 min 35 sec) 
Finished CPU 3 instructions: 100000000 cycles: 87904005 cumulative IPC: 1.1376 (Simulation time: 0 hr 47 min 37 sec) 
Heartbeat CPU 7 instructions: 110000000 cycles: 116040411 heartbeat IPC: 0.560245 cumulative IPC: 0.671534 (Simulation time: 0 hr 49 min 55 sec) 
Heartbeat CPU 3 instructions: 160000000 cycles: 116195613 heartbeat IPC: 1.1135 cumulative IPC: 1.13546 (Simulation time: 0 hr 49 min 58 sec) 
Heartbeat CPU 4 instructions: 90000002 cycles: 117523298 heartbeat IPC: 0.490042 cumulative IPC: 0.514832 (Simulation time: 0 hr 50 min 24 sec) 
Heartbeat CPU 0 instructions: 120000000 cycles: 120164675 heartbeat IPC: 0.891628 cumulative IPC: 0.709003 (Simulation time: 0 hr 51 min 15 sec) 
Heartbeat CPU 3 instructions: 170000001 cycles: 125193797 heartbeat IPC: 1.11134 cumulative IPC: 1.13338 (Simulation time: 0 hr 52 min 54 sec) 
Heartbeat CPU 2 instructions: 100000000 cycles: 125695910 heartbeat IPC: 0.57341 cumulative IPC: 0.577443 (Simulation time: 0 hr 53 min 4 sec) 
Heartbeat CPU 1 instructions: 90000002 cycles: 127249015 heartbeat IPC: 0.333095 cumulative IPC: 0.504721 (Simulation time: 0 hr 53 min 37 sec) 
Heartbeat CPU 6 instructions: 80000000 cycles: 129067171 heartbeat IPC: 0.436375 cumulative IPC: 0.434868 (Simulation time: 0 hr 54 min 25 sec) 
Heartbeat CPU 0 instructions: 130000000 cycles: 130234973 heartbeat IPC: 0.993019 cumulative IPC: 0.735213 (Simulation time: 0 hr 54 min 51 sec) 
Heartbeat CPU 7 instructions: 120000000 cycles: 133409282 heartbeat IPC: 0.575743 cumulative IPC: 0.656718 (Simulation time: 0 hr 56 min 0 sec) 
Heartbeat CPU 3 instructions: 180000000 cycles: 134234363 heartbeat IPC: 1.10613 cumulative IPC: 1.1312 (Simulation time: 0 hr 56 min 18 sec) 
Heartbeat CPU 4 instructions: 100000000 cycles: 135646990 heartbeat IPC: 0.551764 cumulative IPC: 0.520676 (Simulation time: 0 hr 56 min 48 sec) 
Heartbeat CPU 0 instructions: 140000000 cycles: 140172634 heartbeat IPC: 1.00627 cumulative IPC: 0.757838 (Simulation time: 0 hr 58 min 28 sec) 
Heartbeat CPU 1 instructions: 100000000 cycles: 141548974 heartbeat IPC: 0.699303 cumulative IPC: 0.527825 (Simulation time: 0 hr 59 min 0 sec) 
Heartbeat CPU 2 instructions: 110000001 cycles: 142773239 heartbeat IPC: 0.585572 cumulative IPC: 0.578584 (Simulation time: 0 hr 59 min 26 sec) 
Heartbeat CPU 3 instructions: 190000001 cycles: 143265728 heartbeat IPC: 1.10725 cumulative IPC: 1.12943 (Simulation time: 0 hr 59 min 36 sec) 
Heartbeat CPU 7 instructions: 130000000 cycles: 149172950 heartbeat IPC: 0.63437 cumulative IPC: 0.653967 (Simulation time: 1 hr 1 min 40 sec) 
Finished CPU 0 instructions: 100000001 cycles: 130573321 cumulative IPC: 0.765853 (Simulation time: 1 hr 2 min 31 sec) 
Heartbeat CPU 0 instructions: 150000000 cycles: 152017295 heartbeat IPC: 0.844262 cumulative IPC: 0.765658 (Simulation time: 1 hr 2 min 37 sec) 
Heartbeat CPU 6 instructions: 90000000 cycles: 152102544 heartbeat IPC: 0.434115 cumulative IPC: 0.434735 (Simulation time: 1 hr 2 min 39 sec) 
Heartbeat CPU 3 instructions: 200000000 cycles: 152554155 heartbeat IPC: 1.07661 cumulative IPC: 1.1257 (Simulation time: 1 hr 2 min 48 sec) 
Heartbeat CPU 4 instructions: 110000002 cycles: 153373579 heartbeat IPC: 0.564124 cumulative IPC: 0.526499 (Simulation time: 1 hr 3 min 5 sec) 
Heartbeat CPU 1 instructions: 110000000 cycles: 155710684 heartbeat IPC: 0.706129 cumulative IPC: 0.546585 (Simulation time: 1 hr 3 min 51 sec) 
Heartbeat CPU 2 instructions: 120000000 cycles: 159726163 heartbeat IPC: 0.589869 cumulative IPC: 0.579965 (Simulation time: 1 hr 5 min 10 sec) 
Heartbeat CPU 3 instructions: 210000001 cycles: 161775123 heartbeat IPC: 1.08448 cumulative IPC: 1.123 (Simulation time: 1 hr 5 min 50 sec) 
Heartbeat CPU 0 instructions: 160000000 cycles: 164717496 heartbeat IPC: 0.787389 cumulative IPC: 0.76758 (Simulation time: 1 hr 6 min 52 sec) 
Heartbeat CPU 7 instructions: 140000000 cycles: 164934843 heartbeat IPC: 0.634442 cumulative IPC: 0.651827 (Simulation time: 1 hr 6 min 56 sec) 
Heartbeat CPU 3 instructions: 220000000 cycles: 171027318 heartbeat IPC: 1.08082 cumulative IPC: 1.12039 (Simulation time: 1 hr 9 min 1 sec) 
Heartbeat CPU 1 instructions: 120000000 cycles: 171041318 heartbeat IPC: 0.652289 cumulative IPC: 0.557394 (Simulation time: 1 hr 9 min 1 sec) 
Heartbeat CPU 4 instructions: 120000000 cycles: 171142567 heartbeat IPC: 0.562778 cumulative IPC: 0.530796 (Simulation time: 1 hr 9 min 4 sec) 
Finished CPU 7 instructions: 100000001 cycles: 153665388 cumulative IPC: 0.650765 (Simulation time: 1 hr 10 min 21 sec) 
Heartbeat CPU 5 instructions: 40000000 cycles: 174967401 heartbeat IPC: 0.133755 cumulative IPC: 0.129993 (Simulation time: 1 hr 10 min 25 sec) 
Heartbeat CPU 6 instructions: 100000000 cycles: 175451042 heartbeat IPC: 0.428293 cumulative IPC: 0.433761 (Simulation time: 1 hr 10 min 36 sec) 
Heartbeat CPU 2 instructions: 130000000 cycles: 176865787 heartbeat IPC: 0.583443 cumulative IPC: 0.580347 (Simulation time: 1 hr 11 min 11 sec) 
Heartbeat CPU 0 instructions: 170000000 cycles: 177345777 heartbeat IPC: 0.791873 cumulative IPC: 0.769544 (Simulation time: 1 hr 11 min 21 sec) 
Heartbeat CPU 3 instructions: 230000001 cycles: 180127866 heartbeat IPC: 1.09883 cumulative IPC: 1.11916 (Simulation time: 1 hr 12 min 27 sec) 
Heartbeat CPU 7 instructions: 150000001 cycles: 182848476 heartbeat IPC: 0.558234 cumulative IPC: 0.641461 (Simulation time: 1 hr 13 min 23 sec) 
Heartbeat CPU 1 instructions: 130000000 cycles: 186350333 heartbeat IPC: 0.65321 cumulative IPC: 0.566271 (Simulation time: 1 hr 14 min 31 sec) 
Heartbeat CPU 0 instructions: 180000000 cycles: 189148521 heartbeat IPC: 0.847261 cumulative IPC: 0.775002 (Simulation time: 1 hr 15 min 26 sec) 
Heartbeat CPU 3 instructions: 240000000 cycles: 189242925 heartbeat IPC: 1.09709 cumulative IPC: 1.11796 (Simulation time: 1 hr 15 min 28 sec) 
Heartbeat CPU 4 instructions: 130000001 cycles: 190074507 heartbeat IPC: 0.528208 cumulative IPC: 0.530506 (Simulation time: 1 hr 15 min 42 sec) 
Finished CPU 2 instructions: 100000001 cycles: 172387014 cumulative IPC: 0.58009 (Simulation time: 1 hr 16 min 44 sec) 
Heartbeat CPU 2 instructions: 140000000 cycles: 194173111 heartbeat IPC: 0.57779 cumulative IPC: 0.580092 (Simulation time: 1 hr 16 min 56 sec) 
Heartbeat CPU 3 instructions: 250000003 cycles: 198437721 heartbeat IPC: 1.08757 cumulative IPC: 1.11639 (Simulation time: 1 hr 18 min 12 sec) 
Heartbeat CPU 6 instructions: 110000002 cycles: 198871319 heartbeat IPC: 0.426981 cumulative IPC: 0.432867 (Simulation time: 1 hr 18 min 21 sec) 
Heartbeat CPU 7 instructions: 160000000 cycles: 200444112 heartbeat IPC: 0.568323 cumulative IPC: 0.634285 (Simulation time: 1 hr 18 min 51 sec) 
Heartbeat CPU 0 instructions: 190000003 cycles: 203036612 heartbeat IPC: 0.720042 cumulative IPC: 0.770807 (Simulation time: 1 hr 19 min 41 sec) 
Finished CPU 1 instructions: 100000001 cycles: 184834331 cumulative IPC: 0.541025 (Simulation time: 1 hr 20 min 31 sec) 
Heartbeat CPU 3 instructions: 260000000 cycles: 207357837 heartbeat IPC: 1.12106 cumulative IPC: 1.11661 (Simulation time: 1 hr 20 min 57 sec) 
Heartbeat CPU 4 instructions: 140000000 cycles: 209470234 heartbeat IPC: 0.515577 cumulative IPC: 0.528969 (Simulation time: 1 hr 21 min 31 sec) 
Finished CPU 4 instructions: 100000000 cycles: 189156991 cumulative IPC: 0.528661 (Simulation time: 1 hr 21 min 43 sec) 
Heartbeat CPU 2 instructions: 150000002 cycles: 211305727 heartbeat IPC: 0.583682 cumulative IPC: 0.580415 (Simulation time: 1 hr 22 min 1 sec) 
Heartbeat CPU 3 instructions: 270000001 cycles: 216283867 heartbeat IPC: 1.12032 cumulative IPC: 1.11678 (Simulation time: 1 hr 23 min 34 sec) 
Heartbeat CPU 1 instructions: 140000000 cycles: 216836108 heartbeat IPC: 0.328022 cumulative IPC: 0.529161 (Simulation time: 1 hr 23 min 45 sec) 
Heartbeat CPU 0 instructions: 200000000 cycles: 217380555 heartbeat IPC: 0.697158 cumulative IPC: 0.765424 (Simulation time: 1 hr 23 min 56 sec) 
Heartbeat CPU 7 instructions: 170000002 cycles: 217627898 heartbeat IPC: 0.581944 cumulative IPC: 0.629708 (Simulation time: 1 hr 24 min 1 sec) 
Heartbeat CPU 6 instructions: 120000000 cycles: 222206615 heartbeat IPC: 0.428535 cumulative IPC: 0.432365 (Simulation time: 1 hr 25 min 28 sec) 
Heartbeat CPU 3 instructions: 280000000 cycles: 225353085 heartbeat IPC: 1.10263 cumulative IPC: 1.11615 (Simulation time: 1 hr 26 min 23 sec) 
Heartbeat CPU 2 instructions: 160000000 cycles: 228587893 heartbeat IPC: 0.578631 cumulative IPC: 0.580266 (Simulation time: 1 hr 27 min 16 sec) 
Heartbeat CPU 4 instructions: 150000002 cycles: 230680063 heartbeat IPC: 0.47148 cumulative IPC: 0.52315 (Simulation time: 1 hr 27 min 50 sec) 
Heartbeat CPU 3 instructions: 290000002 cycles: 234339499 heartbeat IPC: 1.11279 cumulative IPC: 1.11601 (Simulation time: 1 hr 28 min 51 sec) 
Heartbeat CPU 7 instructions: 180000000 cycles: 236897991 heartbeat IPC: 0.518939 cumulative IPC: 0.619816 (Simulation time: 1 hr 29 min 33 sec) 
Heartbeat CPU 0 instructions: 210000003 cycles: 240124907 heartbeat IPC: 0.43967 cumulative IPC: 0.731595 (Simulation time: 1 hr 30 min 35 sec) 
Heartbeat CPU 3 instructions: 300000000 cycles: 243395658 heartbeat IPC: 1.10422 cumulative IPC: 1.11553 (Simulation time: 1 hr 31 min 39 sec) 
Heartbeat CPU 6 instructions: 130000000 cycles: 245401091 heartbeat IPC: 0.431137 cumulative IPC: 0.432238 (Simulation time: 1 hr 32 min 18 sec) 
Heartbeat CPU 1 instructions: 150000001 cycles: 245561284 heartbeat IPC: 0.348127 cumulative IPC: 0.505992 (Simulation time: 1 hr 32 min 21 sec) 
Heartbeat CPU 2 instructions: 170000000 cycles: 246213513 heartbeat IPC: 0.567356 cumulative IPC: 0.579256 (Simulation time: 1 hr 32 min 33 sec) 
Heartbeat CPU 7 instructions: 190000001 cycles: 250823229 heartbeat IPC: 0.718121 cumulative IPC: 0.625775 (Simulation time: 1 hr 34 min 7 sec) 
Heartbeat CPU 4 instructions: 160000000 cycles: 251216133 heartbeat IPC: 0.486948 cumulative IPC: 0.519919 (Simulation time: 1 hr 34 min 15 sec) 
Heartbeat CPU 0 instructions: 220000000 cycles: 251848885 heartbeat IPC: 0.852953 cumulative IPC: 0.737761 (Simulation time: 1 hr 34 min 28 sec) 
Finished CPU 6 instructions: 100000002 cycles: 231305050 cumulative IPC: 0.43233 (Simulation time: 1 hr 34 min 39 sec) 
Heartbeat CPU 3 instructions: 310000000 cycles: 252478103 heartbeat IPC: 1.10103 cumulative IPC: 1.11496 (Simulation time: 1 hr 34 min 40 sec) 
Heartbeat CPU 5 instructions: 50000001 cycles: 255701134 heartbeat IPC: 0.123864 cumulative IPC: 0.127884 (Simulation time: 1 hr 35 min 43 sec) 
Heartbeat CPU 3 instructions: 320000000 cycles: 261586406 heartbeat IPC: 1.0979 cumulative IPC: 1.11431 (Simulation time: 1 hr 37 min 39 sec) 
Heartbeat CPU 0 instructions: 230000000 cycles: 262165810 heartbeat IPC: 0.969281 cumulative IPC: 0.74767 (Simulation time: 1 hr 37 min 51 sec) 
Heartbeat CPU 2 instructions: 180000000 cycles: 263709425 heartbeat IPC: 0.571562 cumulative IPC: 0.578701 (Simulation time: 1 hr 38 min 22 sec) 
Heartbeat CPU 7 instructions: 200000000 cycles: 263871480 heartbeat IPC: 0.766386 cumulative IPC: 0.633333 (Simulation time: 1 hr 38 min 25 sec) 
Heartbeat CPU 1 instructions: 160000000 cycles: 268042154 heartbeat IPC: 0.444823 cumulative IPC: 0.500423 (Simulation time: 1 hr 39 min 52 sec) 
Heartbeat CPU 6 instructions: 140000000 cycles: 268317998 heartbeat IPC: 0.436359 cumulative IPC: 0.43262 (Simulation time: 1 hr 39 min 58 sec) 
Heartbeat CPU 4 instructions: 170000000 cycles: 269214160 heartbeat IPC: 0.555616 cumulative IPC: 0.522509 (Simulation time: 1 hr 40 min 17 sec) 
Heartbeat CPU 3 instructions: 330000001 cycles: 270530461 heartbeat IPC: 1.11806 cumulative IPC: 1.11445 (Simulation time: 1 hr 40 min 45 sec) 
Heartbeat CPU 0 instructions: 240000000 cycles: 272061108 heartbeat IPC: 1.01058 cumulative IPC: 0.758037 (Simulation time: 1 hr 41 min 18 sec) 
Heartbeat CPU 7 instructions: 210000003 cycles: 275494634 heartbeat IPC: 0.860352 cumulative IPC: 0.643706 (Simulation time: 1 hr 42 min 28 sec) 
Heartbeat CPU 3 instructions: 340000000 cycles: 279473559 heartbeat IPC: 1.11818 cumulative IPC: 1.11458 (Simulation time: 1 hr 43 min 46 sec) 
Heartbeat CPU 2 instructions: 190000000 cycles: 281194449 heartbeat IPC: 0.571918 cumulative IPC: 0.578245 (Simulation time: 1 hr 44 min 19 sec) 
Heartbeat CPU 0 instructions: 250000003 cycles: 283174093 heartbeat IPC: 0.899849 cumulative IPC: 0.764051 (Simulation time: 1 hr 44 min 58 sec) 
Heartbeat CPU 1 instructions: 170000003 cycles: 284367813 heartbeat IPC: 0.612533 cumulative IPC: 0.507376 (Simulation time: 1 hr 45 min 21 sec) 
Heartbeat CPU 4 instructions: 180000000 cycles: 287188024 heartbeat IPC: 0.556363 cumulative IPC: 0.524796 (Simulation time: 1 hr 46 min 16 sec) 
Heartbeat CPU 7 instructions: 220000000 cycles: 288335973 heartbeat IPC: 0.778735 cumulative IPC: 0.650195 (Simulation time: 1 hr 46 min 38 sec) 
Heartbeat CPU 3 instructions: 350000000 cycles: 288512361 heartbeat IPC: 1.10634 cumulative IPC: 1.1143 (Simulation time: 1 hr 46 min 42 sec) 
Heartbeat CPU 6 instructions: 150000000 cycles: 290994969 heartbeat IPC: 0.440976 cumulative IPC: 0.433322 (Simulation time: 1 hr 47 min 31 sec) 
Heartbeat CPU 0 instructions: 260000000 cycles: 295710383 heartbeat IPC: 0.797684 cumulative IPC: 0.765586 (Simulation time: 1 hr 49 min 4 sec) 
Heartbeat CPU 3 instructions: 360000000 cycles: 297432429 heartbeat IPC: 1.12107 cumulative IPC: 1.11452 (Simulation time: 1 hr 49 min 33 sec) 
Heartbeat CPU 2 instructions: 200000000 cycles: 298917941 heartbeat IPC: 0.564223 cumulative IPC: 0.57735 (Simulation time: 1 hr 49 min 57 sec) 
Heartbeat CPU 7 instructions: 230000002 cycles: 304582580 heartbeat IPC: 0.615513 cumulative IPC: 0.648207 (Simulation time: 1 hr 51 min 37 sec) 
Heartbeat CPU 4 instructions: 190000003 cycles: 305216307 heartbeat IPC: 0.554684 cumulative IPC: 0.526693 (Simulation time: 1 hr 51 min 49 sec) 
Heartbeat CPU 1 instructions: 180000000 cycles: 305369126 heartbeat IPC: 0.476161 cumulative IPC: 0.505069 (Simulation time: 1 hr 51 min 52 sec) 
Heartbeat CPU 3 instructions: 370000003 cycles: 306488409 heartbeat IPC: 1.10424 cumulative IPC: 1.11419 (Simulation time: 1 hr 52 min 11 sec) 
Heartbeat CPU 0 instructions: 270000001 cycles: 308242896 heartbeat IPC: 0.797925 cumulative IPC: 0.766998 (Simulation time: 1 hr 52 min 43 sec) 
Heartbeat CPU 6 instructions: 160000000 cycles: 313745912 heartbeat IPC: 0.439542 cumulative IPC: 0.433806 (Simulation time: 1 hr 54 min 21 sec) 
Heartbeat CPU 3 instructions: 380000000 cycles: 315571373 heartbeat IPC: 1.10096 cumulative IPC: 1.11378 (Simulation time: 1 hr 54 min 54 sec) 
Heartbeat CPU 2 instructions: 210000001 cycles: 316163754 heartbeat IPC: 0.579851 cumulative IPC: 0.577496 (Simulation time: 1 hr 55 min 5 sec) 
Heartbeat CPU 0 instructions: 280000000 cycles: 319953889 heartbeat IPC: 0.853898 cumulative IPC: 0.770403 (Simulation time: 1 hr 56 min 11 sec) 
Heartbeat CPU 4 instructions: 200000000 cycles: 323444972 heartbeat IPC: 0.548586 cumulative IPC: 0.528013 (Simulation time: 1 hr 57 min 11 sec) 
Heartbeat CPU 3 instructions: 390000002 cycles: 325019829 heartbeat IPC: 1.05837 cumulative IPC: 1.11206 (Simulation time: 1 hr 57 min 39 sec) 
Heartbeat CPU 7 instructions: 240000000 cycles: 328817802 heartbeat IPC: 0.412623 cumulative IPC: 0.629652 (Simulation time: 1 hr 58 min 42 sec) 
Heartbeat CPU 5 instructions: 60000000 cycles: 329221927 heartbeat IPC: 0.136016 cumulative IPC: 0.129824 (Simulation time: 1 hr 58 min 49 sec) 
Heartbeat CPU 0 instructions: 290000002 cycles: 333287907 heartbeat IPC: 0.749962 cumulative IPC: 0.76953 (Simulation time: 1 hr 59 min 57 sec) 
Heartbeat CPU 2 instructions: 220000000 cycles: 333629857 heartbeat IPC: 0.572537 cumulative IPC: 0.577219 (Simulation time: 2 hr 0 min 4 sec) 
Heartbeat CPU 3 instructions: 400000000 cycles: 334249335 heartbeat IPC: 1.08348 cumulative IPC: 1.11122 (Simulation time: 2 hr 0 min 15 sec) 
Heartbeat CPU 1 instructions: 190000003 cycles: 334897612 heartbeat IPC: 0.338656 cumulative IPC: 0.489409 (Simulation time: 2 hr 0 min 27 sec) 
Heartbeat CPU 6 instructions: 170000003 cycles: 336568531 heartbeat IPC: 0.438162 cumulative IPC: 0.434121 (Simulation time: 2 hr 0 min 57 sec) 
Heartbeat CPU 4 instructions: 210000003 cycles: 341287124 heartbeat IPC: 0.560471 cumulative IPC: 0.529821 (Simulation time: 2 hr 2 min 24 sec) 
Heartbeat CPU 3 instructions: 410000001 cycles: 343548378 heartbeat IPC: 1.07538 cumulative IPC: 1.11019 (Simulation time: 2 hr 3 min 4 sec) 
Heartbeat CPU 0 instructions: 300000000 cycles: 346816013 heartbeat IPC: 0.739202 cumulative IPC: 0.76827 (Simulation time: 2 hr 4 min 2 sec) 
Heartbeat CPU 7 instructions: 250000001 cycles: 350113958 heartbeat IPC: 0.469568 cumulative IPC: 0.61929 (Simulation time: 2 hr 4 min 56 sec) 
Heartbeat CPU 2 instructions: 230000003 cycles: 351177374 heartbeat IPC: 0.569881 cumulative IPC: 0.576829 (Simulation time: 2 hr 5 min 14 sec) 
Heartbeat CPU 3 instructions: 420000000 cycles: 352927157 heartbeat IPC: 1.06624 cumulative IPC: 1.10894 (Simulation time: 2 hr 5 min 45 sec) 
Heartbeat CPU 6 instructions: 180000000 cycles: 359317593 heartbeat IPC: 0.439578 cumulative IPC: 0.434488 (Simulation time: 2 hr 7 min 29 sec) 
Heartbeat CPU 4 instructions: 220000000 cycles: 361338614 heartbeat IPC: 0.498716 cumulative IPC: 0.527988 (Simulation time: 2 hr 8 min 0 sec) 
Heartbeat CPU 3 instructions: 430000000 cycles: 362238051 heartbeat IPC: 1.07401 cumulative IPC: 1.10799 (Simulation time: 2 hr 8 min 13 sec) 
Heartbeat CPU 1 instructions: 200000000 cycles: 363845158 heartbeat IPC: 0.345452 cumulative IPC: 0.477251 (Simulation time: 2 hr 8 min 37 sec) 
Heartbeat CPU 2 instructions: 240000000 cycles: 368571704 heartbeat IPC: 0.5749 cumulative IPC: 0.576732 (Simulation time: 2 hr 9 min 48 sec) 
Heartbeat CPU 3 instructions: 440000000 cycles: 371342411 heartbeat IPC: 1.09837 cumulative IPC: 1.10774 (Simulation time: 2 hr 10 min 30 sec) 
Heartbeat CPU 0 instructions: 310000001 cycles: 372003041 heartbeat IPC: 0.39703 cumulative IPC: 0.741622 (Simulation time: 2 hr 10 min 41 sec) 
Heartbeat CPU 3 instructions: 450000002 cycles: 380407327 heartbeat IPC: 1.10315 cumulative IPC: 1.10762 (Simulation time: 2 hr 13 min 9 sec) 
Heartbeat CPU 7 instructions: 260000000 cycles: 380454236 heartbeat IPC: 0.329595 cumulative IPC: 0.59483 (Simulation time: 2 hr 13 min 9 sec) 
Heartbeat CPU 6 instructions: 190000002 cycles: 382100783 heartbeat IPC: 0.43892 cumulative IPC: 0.434768 (Simulation time: 2 hr 13 min 41 sec) 
Heartbeat CPU 4 instructions: 230000003 cycles: 383253212 heartbeat IPC: 0.456317 cumulative IPC: 0.523651 (Simulation time: 2 hr 14 min 4 sec) 
Heartbeat CPU 0 instructions: 320000000 cycles: 383349097 heartbeat IPC: 0.881363 cumulative IPC: 0.745999 (Simulation time: 2 hr 14 min 6 sec) 
Heartbeat CPU 2 instructions: 250000002 cycles: 385874663 heartbeat IPC: 0.577936 cumulative IPC: 0.57679 (Simulation time: 2 hr 14 min 52 sec) 
Heartbeat CPU 1 instructions: 210000002 cycles: 386088760 heartbeat IPC: 0.449568 cumulative IPC: 0.475563 (Simulation time: 2 hr 14 min 57 sec) 
Heartbeat CPU 3 instructions: 460000000 cycles: 389275457 heartbeat IPC: 1.12763 cumulative IPC: 1.10811 (Simulation time: 2 hr 15 min 57 sec) 
Heartbeat CPU 0 instructions: 330000002 cycles: 393857553 heartbeat IPC: 0.951615 cumulative IPC: 0.751796 (Simulation time: 2 hr 17 min 22 sec) 
Heartbeat CPU 3 instructions: 470000001 cycles: 398269414 heartbeat IPC: 1.11186 cumulative IPC: 1.1082 (Simulation time: 2 hr 18 min 47 sec) 
Heartbeat CPU 4 instructions: 240000000 cycles: 400943381 heartbeat IPC: 0.565286 cumulative IPC: 0.52559 (Simulation time: 2 hr 19 min 38 sec) 
Heartbeat CPU 1 instructions: 220000000 cycles: 400983835 heartbeat IPC: 0.671363 cumulative IPC: 0.483241 (Simulation time: 2 hr 19 min 39 sec) 
Heartbeat CPU 2 instructions: 260000000 cycles: 402970490 heartbeat IPC: 0.584938 cumulative IPC: 0.577154 (Simulation time: 2 hr 20 min 17 sec) 
Heartbeat CPU 0 instructions: 340000000 cycles: 403716481 heartbeat IPC: 1.01431 cumulative IPC: 0.758561 (Simulation time: 2 hr 20 min 31 sec) 
Heartbeat CPU 7 instructions: 270000000 cycles: 404703386 heartbeat IPC: 0.412386 cumulative IPC: 0.583297 (Simulation time: 2 hr 20 min 49 sec) 
Heartbeat CPU 3 instructions: 480000000 cycles: 407209208 heartbeat IPC: 1.11859 cumulative IPC: 1.10844 (Simulation time: 2 hr 21 min 35 sec) 
Heartbeat CPU 6 instructions: 200000000 cycles: 407402166 heartbeat IPC: 0.395235 cumulative IPC: 0.432178 (Simulation time: 2 hr 21 min 39 sec) 
Heartbeat CPU 5 instructions: 70000000 cycles: 407516798 heartbeat IPC: 0.127722 cumulative IPC: 0.129398 (Simulation time: 2 hr 21 min 41 sec) 
Heartbeat CPU 0 instructions: 350000002 cycles: 414047425 heartbeat IPC: 0.967966 cumulative IPC: 0.764066 (Simulation time: 2 hr 23 min 42 sec) 
Heartbeat CPU 1 instructions: 230000002 cycles: 414533861 heartbeat IPC: 0.738006 cumulative IPC: 0.492015 (Simulation time: 2 hr 23 min 51 sec) 
Heartbeat CPU 3 instructions: 490000000 cycles: 416270697 heartbeat IPC: 1.10357 cumulative IPC: 1.10832 (Simulation time: 2 hr 24 min 23 sec) 
Heartbeat CPU 4 instructions: 250000000 cycles: 420070727 heartbeat IPC: 0.522812 cumulative IPC: 0.525457 (Simulation time: 2 hr 25 min 30 sec) 
Heartbeat CPU 2 instructions: 270000000 cycles: 420119640 heartbeat IPC: 0.583119 cumulative IPC: 0.577411 (Simulation time: 2 hr 25 min 31 sec) 
Heartbeat CPU 3 instructions: 500000000 cycles: 425204197 heartbeat IPC: 1.11938 cumulative IPC: 1.10857 (Simulation time: 2 hr 27 min 1 sec) 
Heartbeat CPU 0 instructions: 360000000 cycles: 425824365 heartbeat IPC: 0.849117 cumulative IPC: 0.766541 (Simulation time: 2 hr 27 min 13 sec) 
Heartbeat CPU 1 instructions: 240000000 cycles: 429028434 heartbeat IPC: 0.689913 cumulative IPC: 0.499047 (Simulation time: 2 hr 28 min 10 sec) 
Heartbeat CPU 6 instructions: 210000000 cycles: 432944708 heartbeat IPC: 0.391504 cumulative IPC: 0.429656 (Simulation time: 2 hr 29 min 24 sec) 
Heartbeat CPU 7 instructions: 280000000 cycles: 434028215 heartbeat IPC: 0.341008 cumulative IPC: 0.56609 (Simulation time: 2 hr 29 min 46 sec) 
Heartbeat CPU 3 instructions: 510000002 cycles: 434219088 heartbeat IPC: 1.10928 cumulative IPC: 1.10858 (Simulation time: 2 hr 29 min 50 sec) 
Heartbeat CPU 2 instructions: 280000000 cycles: 437456990 heartbeat IPC: 0.576789 cumulative IPC: 0.577385 (Simulation time: 2 hr 30 min 49 sec) 
Heartbeat CPU 0 instructions: 370000000 cycles: 438570237 heartbeat IPC: 0.784568 cumulative IPC: 0.767092 (Simulation time: 2 hr 31 min 9 sec) 
Heartbeat CPU 4 instructions: 260000000 cycles: 439454150 heartbeat IPC: 0.515905 cumulative IPC: 0.525014 (Simulation time: 2 hr 31 min 24 sec) 
Heartbeat CPU 3 instructions: 520000000 cycles: 443215155 heartbeat IPC: 1.1116 cumulative IPC: 1.10865 (Simulation time: 2 hr 32 min 31 sec) 
Heartbeat CPU 1 instructions: 250000002 cycles: 444561731 heartbeat IPC: 0.643778 cumulative IPC: 0.504356 (Simulation time: 2 hr 32 min 55 sec) 
Heartbeat CPU 0 instructions: 380000000 cycles: 450679727 heartbeat IPC: 0.825799 cumulative IPC: 0.768746 (Simulation time: 2 hr 34 min 48 sec) 
Heartbeat CPU 3 instructions: 530000000 cycles: 452282800 heartbeat IPC: 1.10282 cumulative IPC: 1.10853 (Simulation time: 2 hr 35 min 18 sec) 
Heartbeat CPU 2 instructions: 290000001 cycles: 454879194 heartbeat IPC: 0.57398 cumulative IPC: 0.577248 (Simulation time: 2 hr 36 min 8 sec) 
Heartbeat CPU 6 instructions: 220000000 cycles: 455964720 heartbeat IPC: 0.434405 cumulative IPC: 0.429907 (Simulation time: 2 hr 36 min 27 sec) 
Heartbeat CPU 7 instructions: 290000002 cycles: 457567576 heartbeat IPC: 0.42482 cumulative IPC: 0.558471 (Simulation time: 2 hr 36 min 55 sec) 
Heartbeat CPU 4 instructions: 270000002 cycles: 457996139 heartbeat IPC: 0.539317 cumulative IPC: 0.525621 (Simulation time: 2 hr 37 min 3 sec) 
Heartbeat CPU 1 instructions: 260000000 cycles: 459680018 heartbeat IPC: 0.66145 cumulative IPC: 0.509772 (Simulation time: 2 hr 37 min 33 sec) 
Heartbeat CPU 3 instructions: 540000000 cycles: 461285679 heartbeat IPC: 1.11076 cumulative IPC: 1.10857 (Simulation time: 2 hr 38 min 3 sec) 
Heartbeat CPU 0 instructions: 390000000 cycles: 463076843 heartbeat IPC: 0.806639 cumulative IPC: 0.769809 (Simulation time: 2 hr 38 min 36 sec) 
Heartbeat CPU 3 instructions: 550000001 cycles: 470209037 heartbeat IPC: 1.12065 cumulative IPC: 1.10881 (Simulation time: 2 hr 40 min 43 sec) 
Heartbeat CPU 2 instructions: 300000000 cycles: 471880771 heartbeat IPC: 0.588181 cumulative IPC: 0.57766 (Simulation time: 2 hr 41 min 13 sec) 
Heartbeat CPU 1 instructions: 270000001 cycles: 475029125 heartbeat IPC: 0.651504 cumulative IPC: 0.514564 (Simulation time: 2 hr 42 min 7 sec) 
Heartbeat CPU 4 instructions: 280000000 cycles: 475987706 heartbeat IPC: 0.555816 cumulative IPC: 0.526816 (Simulation time: 2 hr 42 min 26 sec) 
Heartbeat CPU 0 instructions: 400000000 cycles: 476075052 heartbeat IPC: 0.769337 cumulative IPC: 0.769796 (Simulation time: 2 hr 42 min 28 sec) 
Heartbeat CPU 3 instructions: 560000000 cycles: 479275977 heartbeat IPC: 1.10291 cumulative IPC: 1.10869 (Simulation time: 2 hr 43 min 26 sec) 
Heartbeat CPU 6 instructions: 230000001 cycles: 479293474 heartbeat IPC: 0.428656 cumulative IPC: 0.429843 (Simulation time: 2 hr 43 min 26 sec) 
Heartbeat CPU 7 instructions: 300000000 cycles: 480431673 heartbeat IPC: 0.437367 cumulative IPC: 0.552442 (Simulation time: 2 hr 43 min 45 sec) 
Heartbeat CPU 5 instructions: 80000000 cycles: 483328354 heartbeat IPC: 0.131906 cumulative IPC: 0.12981 (Simulation time: 2 hr 44 min 35 sec) 
Heartbeat CPU 3 instructions: 570000002 cycles: 488255022 heartbeat IPC: 1.1137 cumulative IPC: 1.10879 (Simulation time: 2 hr 46 min 1 sec) 
Heartbeat CPU 2 instructions: 310000000 cycles: 489114830 heartbeat IPC: 0.580246 cumulative IPC: 0.577756 (Simulation time: 2 hr 46 min 16 sec) 
Heartbeat CPU 1 instructions: 280000000 cycles: 490399111 heartbeat IPC: 0.650619 cumulative IPC: 0.51902 (Simulation time: 2 hr 46 min 38 sec) 
Heartbeat CPU 0 instructions: 410000000 cycles: 492686497 heartbeat IPC: 0.601995 cumulative IPC: 0.763885 (Simulation time: 2 hr 47 min 16 sec) 
Heartbeat CPU 4 instructions: 290000002 cycles: 495913390 heartbeat IPC: 0.501865 cumulative IPC: 0.525768 (Simulation time: 2 hr 48 min 10 sec) 
Heartbeat CPU 3 instructions: 580000000 cycles: 497295769 heartbeat IPC: 1.1061 cumulative IPC: 1.10874 (Simulation time: 2 hr 48 min 32 sec) 
Heartbeat CPU 6 instructions: 240000000 cycles: 502821260 heartbeat IPC: 0.425029 cumulative IPC: 0.429608 (Simulation time: 2 hr 49 min 54 sec) 
Heartbeat CPU 3 instructions: 590000002 cycles: 506345240 heartbeat IPC: 1.10504 cumulative IPC: 1.10867 (Simulation time: 2 hr 50 min 47 sec) 
Heartbeat CPU 2 instructions: 320000000 cycles: 506955585 heartbeat IPC: 0.560514 cumulative IPC: 0.577123 (Simulation time: 2 hr 50 min 56 sec) 
Heartbeat CPU 1 instructions: 290000001 cycles: 511282554 heartbeat IPC: 0.478848 cumulative IPC: 0.517309 (Simulation time: 2 hr 52 min 8 sec) 
Heartbeat CPU 0 instructions: 420000000 cycles: 514767703 heartbeat IPC: 0.452874 cumulative IPC: 0.749973 (Simulation time: 2 hr 53 min 7 sec) 
Heartbeat CPU 3 instructions: 600000000 cycles: 515414883 heartbeat IPC: 1.10258 cumulative IPC: 1.10856 (Simulation time: 2 hr 53 min 17 sec) 
Heartbeat CPU 7 instructions: 310000003 cycles: 515724732 heartbeat IPC: 0.283342 cumulative IPC: 0.533241 (Simulation time: 2 hr 53 min 22 sec) 
Heartbeat CPU 4 instructions: 300000000 cycles: 518300198 heartbeat IPC: 0.446692 cumulative IPC: 0.522208 (Simulation time: 2 hr 54 min 6 sec) 
Heartbeat CPU 2 instructions: 330000002 cycles: 524604568 heartbeat IPC: 0.566605 cumulative IPC: 0.576754 (Simulation time: 2 hr 55 min 54 sec) 
Heartbeat CPU 3 instructions: 610000003 cycles: 524815870 heartbeat IPC: 1.06372 cumulative IPC: 1.10772 (Simulation time: 2 hr 55 min 57 sec) 
Heartbeat CPU 0 instructions: 430000002 cycles: 525778884 heartbeat IPC: 0.908168 cumulative IPC: 0.753425 (Simulation time: 2 hr 56 min 14 sec) 
Heartbeat CPU 6 instructions: 250000000 cycles: 526149207 heartbeat IPC: 0.42867 cumulative IPC: 0.429565 (Simulation time: 2 hr 56 min 21 sec) 
Heartbeat CPU 3 instructions: 620000000 cycles: 533959197 heartbeat IPC: 1.09369 cumulative IPC: 1.10747 (Simulation time: 2 hr 58 min 38 sec) 
Heartbeat CPU 0 instructions: 440000000 cycles: 535882636 heartbeat IPC: 0.989731 cumulative IPC: 0.758063 (Simulation time: 2 hr 59 min 12 sec) 
Heartbeat CPU 4 instructions: 310000003 cycles: 536793665 heartbeat IPC: 0.540732 cumulative IPC: 0.522872 (Simulation time: 2 hr 59 min 28 sec) 
Heartbeat CPU 7 instructions: 320000000 cycles: 539076229 heartbeat IPC: 0.428238 cumulative IPC: 0.528507 (Simulation time: 3 hr 0 min 9 sec) 
Heartbeat CPU 1 instructions: 300000000 cycles: 539993544 heartbeat IPC: 0.348299 cumulative IPC: 0.507957 (Simulation time: 3 hr 0 min 27 sec) 
Heartbeat CPU 2 instructions: 340000000 cycles: 541869666 heartbeat IPC: 0.579203 cumulative IPC: 0.576835 (Simulation time: 3 hr 1 min 0 sec) 
Heartbeat CPU 3 instructions: 630000001 cycles: 543244986 heartbeat IPC: 1.07691 cumulative IPC: 1.10693 (Simulation time: 3 hr 1 min 24 sec) 
Heartbeat CPU 0 instructions: 450000003 cycles: 545981415 heartbeat IPC: 0.990219 cumulative IPC: 0.76253 (Simulation time: 3 hr 2 min 13 sec) 
Heartbeat CPU 6 instructions: 260000000 cycles: 548864015 heartbeat IPC: 0.440241 cumulative IPC: 0.430024 (Simulation time: 3 hr 3 min 4 sec) 
Heartbeat CPU 3 instructions: 640000000 cycles: 552337361 heartbeat IPC: 1.09982 cumulative IPC: 1.10681 (Simulation time: 3 hr 4 min 2 sec) 
Heartbeat CPU 4 instructions: 320000000 cycles: 554940669 heartbeat IPC: 0.551055 cumulative IPC: 0.52383 (Simulation time: 3 hr 4 min 45 sec) 
Heartbeat CPU 0 instructions: 460000000 cycles: 557695515 heartbeat IPC: 0.853672 cumulative IPC: 0.76452 (Simulation time: 3 hr 5 min 31 sec) 
Heartbeat CPU 2 instructions: 350000003 cycles: 559187480 heartbeat IPC: 0.57744 cumulative IPC: 0.576855 (Simulation time: 3 hr 5 min 54 sec) 
Heartbeat CPU 3 instructions: 650000000 cycles: 561355073 heartbeat IPC: 1.10893 cumulative IPC: 1.10684 (Simulation time: 3 hr 6 min 30 sec) 
Heartbeat CPU 5 instructions: 90000003 cycles: 562430361 heartbeat IPC: 0.126419 cumulative IPC: 0.129314 (Simulation time: 3 hr 6 min 48 sec) 
Heartbeat CPU 7 instructions: 330000001 cycles: 563883617 heartbeat IPC: 0.403106 cumulative IPC: 0.522775 (Simulation time: 3 hr 7 min 11 sec) 
Heartbeat CPU 1 instructions: 310000001 cycles: 567628636 heartbeat IPC: 0.361859 cumulative IPC: 0.50057 (Simulation time: 3 hr 8 min 11 sec) 
Heartbeat CPU 3 instructions: 660000000 cycles: 570161238 heartbeat IPC: 1.13557 cumulative IPC: 1.1073 (Simulation time: 3 hr 8 min 51 sec) 
Heartbeat CPU 0 instructions: 470000001 cycles: 570247202 heartbeat IPC: 0.796706 cumulative IPC: 0.765255 (Simulation time: 3 hr 8 min 53 sec) 
Heartbeat CPU 6 instructions: 270000000 cycles: 571866290 heartbeat IPC: 0.43474 cumulative IPC: 0.430221 (Simulation time: 3 hr 9 min 18 sec) 
Heartbeat CPU 4 instructions: 330000000 cycles: 573329661 heartbeat IPC: 0.543804 cumulative IPC: 0.524495 (Simulation time: 3 hr 9 min 42 sec) 
Heartbeat CPU 2 instructions: 360000000 cycles: 576460612 heartbeat IPC: 0.578934 cumulative IPC: 0.576919 (Simulation time: 3 hr 10 min 33 sec) 
Heartbeat CPU 3 instructions: 670000002 cycles: 578917822 heartbeat IPC: 1.142 cumulative IPC: 1.10785 (Simulation time: 3 hr 11 min 12 sec) 
Heartbeat CPU 0 instructions: 480000000 cycles: 582618224 heartbeat IPC: 0.808341 cumulative IPC: 0.766205 (Simulation time: 3 hr 12 min 12 sec) 
Heartbeat CPU 3 instructions: 680000000 cycles: 587729985 heartbeat IPC: 1.13479 cumulative IPC: 1.10827 (Simulation time: 3 hr 13 min 45 sec) 
Heartbeat CPU 1 instructions: 320000000 cycles: 590045172 heartbeat IPC: 0.446099 cumulative IPC: 0.498423 (Simulation time: 3 hr 14 min 23 sec) 
Heartbeat CPU 4 instructions: 340000000 cycles: 592081743 heartbeat IPC: 0.533274 cumulative IPC: 0.524784 (Simulation time: 3 hr 14 min 57 sec) 
Heartbeat CPU 2 instructions: 370000001 cycles: 593925662 heartbeat IPC: 0.572572 cumulative IPC: 0.576787 (Simulation time: 3 hr 15 min 30 sec) 
Heartbeat CPU 0 instructions: 490000002 cycles: 594622746 heartbeat IPC: 0.83302 cumulative IPC: 0.767603 (Simulation time: 3 hr 15 min 41 sec) 
Heartbeat CPU 6 instructions: 280000000 cycles: 594771854 heartbeat IPC: 0.436575 cumulative IPC: 0.430475 (Simulation time: 3 hr 15 min 44 sec) 
Heartbeat CPU 3 instructions: 690000002 cycles: 596554167 heartbeat IPC: 1.13325 cumulative IPC: 1.10865 (Simulation time: 3 hr 16 min 16 sec) 
Heartbeat CPU 7 instructions: 340000000 cycles: 596950049 heartbeat IPC: 0.302421 cumulative IPC: 0.510122 (Simulation time: 3 hr 16 min 23 sec) 
Heartbeat CPU 1 instructions: 330000002 cycles: 604062439 heartbeat IPC: 0.713406 cumulative IPC: 0.503593 (Simulation time: 3 hr 18 min 37 sec) 
Heartbeat CPU 3 instructions: 700000000 cycles: 605358358 heartbeat IPC: 1.13582 cumulative IPC: 1.10906 (Simulation time: 3 hr 19 min 1 sec) 
Heartbeat CPU 0 instructions: 500000000 cycles: 607907371 heartbeat IPC: 0.75275 cumulative IPC: 0.767267 (Simulation time: 3 hr 19 min 49 sec) 
Heartbeat CPU 7 instructions: 350000002 cycles: 608449548 heartbeat IPC: 0.869603 cumulative IPC: 0.51716 (Simulation time: 3 hr 20 min 0 sec) 
Heartbeat CPU 4 instructions: 350000000 cycles: 610230605 heartbeat IPC: 0.550999 cumulative IPC: 0.525591 (Simulation time: 3 hr 20 min 35 sec) 
Heartbeat CPU 2 instructions: 380000000 cycles: 611158996 heartbeat IPC: 0.580271 cumulative IPC: 0.576888 (Simulation time: 3 hr 20 min 51 sec) 
Heartbeat CPU 3 instructions: 710000002 cycles: 614137549 heartbeat IPC: 1.13906 cumulative IPC: 1.1095 (Simulation time: 3 hr 21 min 46 sec) 
Heartbeat CPU 6 instructions: 290000001 cycles: 617502563 heartbeat IPC: 0.439934 cumulative IPC: 0.430836 (Simulation time: 3 hr 22 min 42 sec) 
Heartbeat CPU 1 instructions: 340000000 cycles: 619226110 heartbeat IPC: 0.659471 cumulative IPC: 0.507545 (Simulation time: 3 hr 23 min 11 sec) 
Heartbeat CPU 0 instructions: 510000000 cycles: 622577774 heartbeat IPC: 0.681645 cumulative IPC: 0.765179 (Simulation time: 3 hr 24 min 14 sec) 
Heartbeat CPU 3 instructions: 720000000 cycles: 622950872 heartbeat IPC: 1.13465 cumulative IPC: 1.10987 (Simulation time: 3 hr 24 min 21 sec) 
Heartbeat CPU 7 instructions: 360000000 cycles: 623574247 heartbeat IPC: 0.66117 cumulative IPC: 0.520775 (Simulation time: 3 hr 24 min 31 sec) 
Heartbeat CPU 2 instructions: 390000001 cycles: 628617959 heartbeat IPC: 0.572772 cumulative IPC: 0.57677 (Simulation time: 3 hr 25 min 55 sec) 
Heartbeat CPU 4 instructions: 360000000 cycles: 630783555 heartbeat IPC: 0.486548 cumulative IPC: 0.524275 (Simulation time: 3 hr 26 min 29 sec) 
Heartbeat CPU 3 instructions: 730000000 cycles: 631807148 heartbeat IPC: 1.12914 cumulative IPC: 1.11015 (Simulation time: 3 hr 26 min 46 sec) 
Heartbeat CPU 1 instructions: 350000001 cycles: 634786393 heartbeat IPC: 0.642662 cumulative IPC: 0.510971 (Simulation time: 3 hr 27 min 35 sec) 
Heartbeat CPU 6 instructions: 300000000 cycles: 640111757 heartbeat IPC: 0.442298 cumulative IPC: 0.431254 (Simulation time: 3 hr 29 min 4 sec) 
Heartbeat CPU 3 instructions: 740000000 cycles: 640629849 heartbeat IPC: 1.13344 cumulative IPC: 1.11048 (Simulation time: 3 hr 29 min 12 sec) 
Heartbeat CPU 5 instructions: 100000000 cycles: 641790928 heartbeat IPC: 0.126007 cumulative IPC: 0.128891 (Simulation time: 3 hr 29 min 33 sec) 
Heartbeat CPU 7 instructions: 370000003 cycles: 643242076 heartbeat IPC: 0.508445 cumulative IPC: 0.520386 (Simulation time: 3 hr 29 min 58 sec) 
Heartbeat CPU 0 instructions: 520000000 cycles: 644995056 heartbeat IPC: 0.446084 cumulative IPC: 0.753713 (Simulation time: 3 hr 30 min 29 sec) 
Heartbeat CPU 2 instructions: 400000000 cycles: 646321002 heartbeat IPC: 0.564875 cumulative IPC: 0.576433 (Simulation time: 3 hr 30 min 53 sec) 
Heartbeat CPU 3 instructions: 750000002 cycles: 649443724 heartbeat IPC: 1.13458 cumulative IPC: 1.11082 (Simulation time: 3 hr 31 min 46 sec) 
Heartbeat CPU 1 instructions: 360000000 cycles: 650422561 heartbeat IPC: 0.639543 cumulative IPC: 0.514165 (Simulation time: 3 hr 32 min 4 sec) 
Heartbeat CPU 4 instructions: 370000000 cycles: 652154109 heartbeat IPC: 0.467934 cumulative IPC: 0.522367 (Simulation time: 3 hr 32 min 34 sec) 
Heartbeat CPU 0 instructions: 530000002 cycles: 655984136 heartbeat IPC: 0.909994 cumulative IPC: 0.756418 (Simulation time: 3 hr 33 min 44 sec) 
Heartbeat CPU 3 instructions: 760000000 cycles: 658256942 heartbeat IPC: 1.13466 cumulative IPC: 1.11115 (Simulation time: 3 hr 34 min 25 sec) 
Heartbeat CPU 7 instructions: 380000000 cycles: 658943843 heartbeat IPC: 0.636871 cumulative IPC: 0.523253 (Simulation time: 3 hr 34 min 39 sec) 
Heartbeat CPU 6 instructions: 310000000 cycles: 662930753 heartbeat IPC: 0.438231 cumulative IPC: 0.431502 (Simulation time: 3 hr 35 min 51 sec) 
Heartbeat CPU 2 instructions: 410000001 cycles: 663934967 heartbeat IPC: 0.567731 cumulative IPC: 0.576195 (Simulation time: 3 hr 36 min 10 sec) 
Heartbeat CPU 0 instructions: 540000000 cycles: 666257429 heartbeat IPC: 0.973398 cumulative IPC: 0.759873 (Simulation time: 3 hr 36 min 51 sec) 
Heartbeat CPU 3 instructions: 770000002 cycles: 666917106 heartbeat IPC: 1.15471 cumulative IPC: 1.11173 (Simulation time: 3 hr 37 min 3 sec) 
Heartbeat CPU 4 instructions: 380000000 cycles: 670221001 heartbeat IPC: 0.553499 cumulative IPC: 0.523234 (Simulation time: 3 hr 38 min 0 sec) 
Heartbeat CPU 7 instructions: 390000001 cycles: 673317603 heartbeat IPC: 0.695712 cumulative IPC: 0.527054 (Simulation time: 3 hr 38 min 53 sec) 
Heartbeat CPU 3 instructions: 780000000 cycles: 676021401 heartbeat IPC: 1.09838 cumulative IPC: 1.11155 (Simulation time: 3 hr 39 min 43 sec) 
Heartbeat CPU 0 instructions: 550000000 cycles: 676198421 heartbeat IPC: 1.00594 cumulative IPC: 0.763607 (Simulation time: 3 hr 39 min 46 sec) 
Heartbeat CPU 1 instructions: 370000001 cycles: 679376560 heartbeat IPC: 0.345375 cumulative IPC: 0.506741 (Simulation time: 3 hr 40 min 44 sec) 
Heartbeat CPU 2 instructions: 420000000 cycles: 681238457 heartbeat IPC: 0.577918 cumulative IPC: 0.57624 (Simulation time: 3 hr 41 min 18 sec) 
Heartbeat CPU 7 instructions: 400000000 cycles: 684589368 heartbeat IPC: 0.887172 cumulative IPC: 0.533172 (Simulation time: 3 hr 42 min 16 sec) 
Heartbeat CPU 3 instructions: 790000002 cycles: 685812081 heartbeat IPC: 1.02138 cumulative IPC: 1.11022 (Simulation time: 3 hr 42 min 36 sec) 
Heartbeat CPU 6 instructions: 320000000 cycles: 685834631 heartbeat IPC: 0.436607 cumulative IPC: 0.431678 (Simulation time: 3 hr 42 min 37 sec) 
Heartbeat CPU 0 instructions: 560000000 cycles: 687451748 heartbeat IPC: 0.888626 cumulative IPC: 0.765719 (Simulation time: 3 hr 43 min 4 sec) 
Heartbeat CPU 4 instructions: 390000001 cycles: 688615619 heartbeat IPC: 0.543637 cumulative IPC: 0.523796 (Simulation time: 3 hr 43 min 25 sec) 
Heartbeat CPU 3 instructions: 800000000 cycles: 694676761 heartbeat IPC: 1.12807 cumulative IPC: 1.11046 (Simulation time: 3 hr 45 min 6 sec) 
Heartbeat CPU 2 instructions: 430000002 cycles: 698597787 heartbeat IPC: 0.576059 cumulative IPC: 0.576235 (Simulation time: 3 hr 46 min 13 sec) 
Heartbeat CPU 7 instructions: 410000000 cycles: 699423143 heartbeat IPC: 0.674137 cumulative IPC: 0.536255 (Simulation time: 3 hr 46 min 27 sec) 
Heartbeat CPU 0 instructions: 570000002 cycles: 699759556 heartbeat IPC: 0.812493 cumulative IPC: 0.766567 (Simulation time: 3 hr 46 min 32 sec) 
Heartbeat CPU 3 instructions: 810000002 cycles: 703464770 heartbeat IPC: 1.13791 cumulative IPC: 1.11081 (Simulation time: 3 hr 47 min 35 sec) 
Heartbeat CPU 4 instructions: 400000000 cycles: 706648131 heartbeat IPC: 0.554554 cumulative IPC: 0.524605 (Simulation time: 3 hr 48 min 31 sec) 
Heartbeat CPU 1 instructions: 380000000 cycles: 707134469 heartbeat IPC: 0.360258 cumulative IPC: 0.500814 (Simulation time: 3 hr 48 min 39 sec) 
Heartbeat CPU 6 instructions: 330000000 cycles: 709049003 heartbeat IPC: 0.430768 cumulative IPC: 0.431647 (Simulation time: 3 hr 49 min 12 sec) 
Heartbeat CPU 7 instructions: 420000000 cycles: 710661634 heartbeat IPC: 0.889799 cumulative IPC: 0.542017 (Simulation time: 3 hr 49 min 38 sec) 
Heartbeat CPU 0 instructions: 580000000 cycles: 712114272 heartbeat IPC: 0.809407 cumulative IPC: 0.767333 (Simulation time: 3 hr 50 min 3 sec) 
Heartbeat CPU 3 instructions: 820000000 cycles: 712281537 heartbeat IPC: 1.1342 cumulative IPC: 1.11111 (Simulation time: 3 hr 50 min 6 sec) 
Heartbeat CPU 2 instructions: 440000000 cycles: 715879529 heartbeat IPC: 0.578645 cumulative IPC: 0.576295 (Simulation time: 3 hr 51 min 7 sec) 
Heartbeat CPU 5 instructions: 110000003 cycles: 717105654 heartbeat IPC: 0.132776 cumulative IPC: 0.129312 (Simulation time: 3 hr 51 min 26 sec) 
Heartbeat CPU 3 instructions: 830000000 cycles: 721016221 heartbeat IPC: 1.14486 cumulative IPC: 1.11153 (Simulation time: 3 hr 52 min 29 sec) 
Heartbeat CPU 0 instructions: 590000000 cycles: 723764725 heartbeat IPC: 0.858336 cumulative IPC: 0.768842 (Simulation time: 3 hr 53 min 19 sec) 
Heartbeat CPU 4 instructions: 410000002 cycles: 724824054 heartbeat IPC: 0.550178 cumulative IPC: 0.525265 (Simulation time: 3 hr 53 min 37 sec) 
Heartbeat CPU 7 instructions: 430000001 cycles: 728902600 heartbeat IPC: 0.548217 cumulative IPC: 0.542177 (Simulation time: 3 hr 54 min 49 sec) 
Heartbeat CPU 3 instructions: 840000000 cycles: 729734585 heartbeat IPC: 1.147 cumulative IPC: 1.11197 (Simulation time: 3 hr 55 min 4 sec) 
Heartbeat CPU 1 instructions: 390000003 cycles: 730121472 heartbeat IPC: 0.435029 cumulative IPC: 0.498681 (Simulation time: 3 hr 55 min 11 sec) 
Heartbeat CPU 6 instructions: 340000000 cycles: 731841436 heartbeat IPC: 0.438742 cumulative IPC: 0.431875 (Simulation time: 3 hr 55 min 42 sec) 
Heartbeat CPU 2 instructions: 450000000 cycles: 733472086 heartbeat IPC: 0.568422 cumulative IPC: 0.576101 (Simulation time: 3 hr 56 min 11 sec) 
Heartbeat CPU 0 instructions: 600000000 cycles: 737534470 heartbeat IPC: 0.72623 cumulative IPC: 0.768023 (Simulation time: 3 hr 57 min 23 sec) 
Heartbeat CPU 3 instructions: 850000000 cycles: 738528039 heartbeat IPC: 1.13721 cumulative IPC: 1.11228 (Simulation time: 3 hr 57 min 43 sec) 
Heartbeat CPU 4 instructions: 420000000 cycles: 742255995 heartbeat IPC: 0.573659 cumulative IPC: 0.526435 (Simulation time: 3 hr 58 min 51 sec) 
Heartbeat CPU 1 instructions: 400000000 cycles: 742848385 heartbeat IPC: 0.785736 cumulative IPC: 0.503743 (Simulation time: 3 hr 59 min 2 sec) 
Heartbeat CPU 7 instructions: 440000000 cycles: 744687419 heartbeat IPC: 0.63352 cumulative IPC: 0.544169 (Simulation time: 3 hr 59 min 34 sec) 
Heartbeat CPU 3 instructions: 860000000 cycles: 747371601 heartbeat IPC: 1.13077 cumulative IPC: 1.1125 (Simulation time: 4 hr 0 min 21 sec) 
Heartbeat CPU 2 instructions: 460000000 cycles: 750954638 heartbeat IPC: 0.571999 cumulative IPC: 0.576003 (Simulation time: 4 hr 1 min 25 sec) 
Heartbeat CPU 0 instructions: 610000001 cycles: 751293142 heartbeat IPC: 0.726814 cumulative IPC: 0.767246 (Simulation time: 4 hr 1 min 31 sec) 
Heartbeat CPU 6 instructions: 350000000 cycles: 754337735 heartbeat IPC: 0.444518 cumulative IPC: 0.432263 (Simulation time: 4 hr 2 min 22 sec) 
Heartbeat CPU 3 instructions: 870000000 cycles: 756185793 heartbeat IPC: 1.13453 cumulative IPC: 1.11276 (Simulation time: 4 hr 2 min 53 sec) 
Heartbeat CPU 1 instructions: 410000002 cycles: 757934706 heartbeat IPC: 0.662852 cumulative IPC: 0.507001 (Simulation time: 4 hr 3 min 22 sec) 
Heartbeat CPU 7 instructions: 450000000 cycles: 760712526 heartbeat IPC: 0.624021 cumulative IPC: 0.5459 (Simulation time: 4 hr 4 min 11 sec) 
Heartbeat CPU 4 instructions: 430000003 cycles: 763071345 heartbeat IPC: 0.480415 cumulative IPC: 0.525144 (Simulation time: 4 hr 4 min 50 sec) 
Heartbeat CPU 3 instructions: 880000000 cycles: 765223747 heartbeat IPC: 1.10645 cumulative IPC: 1.11269 (Simulation time: 4 hr 5 min 26 sec) 
Heartbeat CPU 2 instructions: 470000001 cycles: 768782901 heartbeat IPC: 0.560907 cumulative IPC: 0.575643 (Simulation time: 4 hr 6 min 30 sec) 
Heartbeat CPU 1 instructions: 420000000 cycles: 771682367 heartbeat IPC: 0.727396 cumulative IPC: 0.511038 (Simulation time: 4 hr 7 min 23 sec) 
Heartbeat CPU 0 instructions: 620000000 cycles: 773071784 heartbeat IPC: 0.459165 cumulative IPC: 0.758323 (Simulation time: 4 hr 7 min 49 sec) 
Heartbeat CPU 3 instructions: 890000001 cycles: 774225692 heartbeat IPC: 1.11087 cumulative IPC: 1.11267 (Simulation time: 4 hr 8 min 10 sec) 
Heartbeat CPU 6 instructions: 360000000 cycles: 777110551 heartbeat IPC: 0.43912 cumulative IPC: 0.432469 (Simulation time: 4 hr 9 min 1 sec) 
Heartbeat CPU 7 instructions: 460000000 cycles: 779468854 heartbeat IPC: 0.533153 cumulative IPC: 0.545584 (Simulation time: 4 hr 9 min 45 sec) 
Heartbeat CPU 1 instructions: 430000001 cycles: 783319465 heartbeat IPC: 0.859321 cumulative IPC: 0.516355 (Simulation time: 4 hr 11 min 1 sec) 
Heartbeat CPU 3 instructions: 900000000 cycles: 783476653 heartbeat IPC: 1.08097 cumulative IPC: 1.11228 (Simulation time: 4 hr 11 min 5 sec) 
Heartbeat CPU 4 instructions: 440000000 cycles: 783493418 heartbeat IPC: 0.489666 cumulative IPC: 0.524194 (Simulation time: 4 hr 11 min 5 sec) 
Heartbeat CPU 0 instructions: 630000002 cycles: 784292771 heartbeat IPC: 0.891187 cumulative IPC: 0.760277 (Simulation time: 4 hr 11 min 20 sec) 
Heartbeat CPU 2 instructions: 480000000 cycles: 786218820 heartbeat IPC: 0.573529 cumulative IPC: 0.575595 (Simulation time: 4 hr 11 min 54 sec) 
Heartbeat CPU 3 instructions: 910000001 cycles: 792575196 heartbeat IPC: 1.09908 cumulative IPC: 1.11213 (Simulation time: 4 hr 13 min 47 sec) 
Heartbeat CPU 0 instructions: 640000000 cycles: 794508258 heartbeat IPC: 0.978906 cumulative IPC: 0.763165 (Simulation time: 4 hr 14 min 25 sec) 
Heartbeat CPU 5 instructions: 120000000 cycles: 796165146 heartbeat IPC: 0.126487 cumulative IPC: 0.129024 (Simulation time: 4 hr 14 min 59 sec) 
Finished CPU 5 instructions: 100000000 cycles: 775052388 cumulative IPC: 0.129024 (Simulation time: 4 hr 14 min 59 sec) 

CPU 0 Branch Prediction Accuracy: 97.5139% MPKI: 2.90018

CPU 1 Branch Prediction Accuracy: 96.8365% MPKI: 4.33869

CPU 2 Branch Prediction Accuracy: 91.925% MPKI: 8.29482

CPU 3 Branch Prediction Accuracy: 91.8723% MPKI: 11.1479

CPU 4 Branch Prediction Accuracy: 96.7447% MPKI: 0.261636

CPU 5 Branch Prediction Accuracy: 92.4261% MPKI: 6.09924

CPU 6 Branch Prediction Accuracy: 86.3273% MPKI: 15.307

CPU 7 Branch Prediction Accuracy: 99.3358% MPKI: 0.342707

ChampSim completed all CPUs

Total Simulation Statistics (not including warmup)

CPU 0 cumulative IPC: 0.763891 instructions: 592055648 cycles: 775052388
L1D TOTAL     ACCESS:  120967979  HIT:  115095258  MISS:    5872721
L1D LOAD      ACCESS:   70984674  HIT:   68900732  MISS:    2083942
L1D RFO       ACCESS:   49983305  HIT:   46194526  MISS:    3788779
L1D PREFETCH  ACCESS:          0  HIT:          0  MISS:          0
L1D WRITEBACK ACCESS:          0  HIT:          0  MISS:          0
L1I TOTAL     ACCESS:  155181788  HIT:  154934367  MISS:     247421
L1I LOAD      ACCESS:  155181788  HIT:  154934367  MISS:     247421
L1I RFO       ACCESS:          0  HIT:          0  MISS:          0
L1I PREFETCH  ACCESS:          0  HIT:          0  MISS:          0
L1I WRITEBACK ACCESS:          0  HIT:          0  MISS:          0
L2C TOTAL     ACCESS:   10167171  HIT:    6425872  MISS:    3741299
L2C LOAD      ACCESS:    2331250  HIT:    1640858  MISS:     690392
L2C RFO       ACCESS:    3788756  HIT:     740147  MISS:    3048609
L2C PREFETCH  ACCESS:          0  HIT:          0  MISS:          0
L2C WRITEBACK ACCESS:    4047165  HIT:    4044867  MISS:       2298
LLC TOTAL     ACCESS:    6892954  HIT:    3727654  MISS:    3165300
LLC LOAD      ACCESS:     690391  HIT:     332061  MISS:     358330
LLC RFO       ACCESS:    3048607  HIT:     265980  MISS:    2782627
LLC PREFETCH  ACCESS:          0  HIT:          0  MISS:          0
LLC WRITEBACK ACCESS:    3153956  HIT:    3129613  MISS:      24343

CPU 1 cumulative IPC: 0.519897 instructions: 402947551 cycles: 775052388
L1D TOTAL     ACCESS:  151193744  HIT:  149979450  MISS:    1214294
L1D LOAD      ACCESS:   70809576  HIT:   69702345  MISS:    1107231
L1D RFO       ACCESS:   80384168  HIT:   80277105  MISS:     107063
L1D PREFETCH  ACCESS:          0  HIT:          0  MISS:          0
L1D WRITEBACK ACCESS:          0  HIT:          0  MISS:          0
L1I TOTAL     ACCESS:  110070116  HIT:  108593210  MISS:    1476906
L1I LOAD      ACCESS:  110070116  HIT:  108593210  MISS:    1476906
L1I RFO       ACCESS:          0  HIT:          0  MISS:          0
L1I PREFETCH  ACCESS:          0  HIT:          0  MISS:          0
L1I WRITEBACK ACCESS:          0  HIT:          0  MISS:          0
L2C TOTAL     ACCESS:    3030965  HIT:    2298545  MISS:     732420
L2C LOAD      ACCESS:    2584118  HIT:    1898376  MISS:     685742
L2C RFO       ACCESS:     107062  HIT:      65885  MISS:      41177
L2C PREFETCH  ACCESS:          0  HIT:          0  MISS:          0
L2C WRITEBACK ACCESS:     339785  HIT:     334284  MISS:       5501
LLC TOTAL     ACCESS:     866501  HIT:     400416  MISS:     466085
LLC LOAD      ACCESS:     685742  HIT:     258681  MISS:     427061
LLC RFO       ACCESS:      41177  HIT:      17442  MISS:      23735
LLC PREFETCH  ACCESS:          0  HIT:          0  MISS:          0
LLC WRITEBACK ACCESS:     139582  HIT:     124293  MISS:      15289

CPU 2 cumulative IPC: 0.575627 instructions: 446141154 cycles: 775052388
L1D TOTAL     ACCESS:  135652572  HIT:  135049870  MISS:     602702
L1D LOAD      ACCESS:   83288257  HIT:   82869210  MISS:     419047
L1D RFO       ACCESS:   52364315  HIT:   52180660  MISS:     183655
L1D PREFETCH  ACCESS:          0  HIT:          0  MISS:          0
L1D WRITEBACK ACCESS:          0  HIT:          0  MISS:          0
L1I TOTAL     ACCESS:  108699095  HIT:  108280335  MISS:     418760
L1I LOAD      ACCESS:  108699095  HIT:  108280335  MISS:     418760
L1I RFO       ACCESS:          0  HIT:          0  MISS:          0
L1I PREFETCH  ACCESS:          0  HIT:          0  MISS:          0
L1I WRITEBACK ACCESS:          0  HIT:          0  MISS:          0
L2C TOTAL     ACCESS:    1320514  HIT:    1181699  MISS:     138815
L2C LOAD      ACCESS:     837801  HIT:     705891  MISS:     131910
L2C RFO       ACCESS:     183650  HIT:     177062  MISS:       6588
L2C PREFETCH  ACCESS:          0  HIT:          0  MISS:          0
L2C WRITEBACK ACCESS:     299063  HIT:     298746  MISS:        317
LLC TOTAL     ACCESS:     231765  HIT:      20024  MISS:     211741
LLC LOAD      ACCESS:     131910  HIT:       1503  MISS:     130407
LLC RFO       ACCESS:       6588  HIT:       2180  MISS:       4408
LLC PREFETCH  ACCESS:          0  HIT:          0  MISS:          0
LLC WRITEBACK ACCESS:      93267  HIT:      16341  MISS:      76926

CPU 3 cumulative IPC: 1.11221 instructions: 862024090 cycles: 775052388
L1D TOTAL     ACCESS:  150617345  HIT:  150503745  MISS:     113600
L1D LOAD      ACCESS:  118772564  HIT:  118758640  MISS:      13924
L1D RFO       ACCESS:   31844781  HIT:   31745105  MISS:      99676
L1D PREFETCH  ACCESS:          0  HIT:          0  MISS:          0
L1D WRITEBACK ACCESS:          0  HIT:          0  MISS:          0
L1I TOTAL     ACCESS:  209226495  HIT:  209226495  MISS:          0
L1I LOAD      ACCESS:  209226495  HIT:  209226495  MISS:          0
L1I RFO       ACCESS:          0  HIT:          0  MISS:          0
L1I PREFETCH  ACCESS:          0  HIT:          0  MISS:          0
L1I WRITEBACK ACCESS:          0  HIT:          0  MISS:          0
L2C TOTAL     ACCESS:     213318  HIT:     109171  MISS:     104147
L2C LOAD      ACCESS:      13918  HIT:       4365  MISS:       9553
L2C RFO       ACCESS:      99676  HIT:       5284  MISS:      94392
L2C PREFETCH  ACCESS:          0  HIT:          0  MISS:          0
L2C WRITEBACK ACCESS:      99724  HIT:      99522  MISS:        202
LLC TOTAL     ACCESS:     198562  HIT:      23795  MISS:     174767
LLC LOAD      ACCESS:       9553  HIT:          1  MISS:       9552
LLC RFO       ACCESS:      94392  HIT:         86  MISS:      94306
LLC PREFETCH  ACCESS:          0  HIT:          0  MISS:          0
LLC WRITEBACK ACCESS:      94617  HIT:      23708  MISS:      70909

CPU 4 cumulative IPC: 0.524415 instructions: 406448922 cycles: 775052388
L1D TOTAL     ACCESS:  143941351  HIT:  124573056  MISS:   19368295
L1D LOAD      ACCESS:   73760607  HIT:   63579231  MISS:   10181376
L1D RFO       ACCESS:   70180744  HIT:   60993825  MISS:    9186919
L1D PREFETCH  ACCESS:          0  HIT:          0  MISS:          0
L1D WRITEBACK ACCESS:          0  HIT:          0  MISS:          0
L1I TOTAL     ACCESS:  103244627  HIT:  103244627  MISS:          0
L1I LOAD      ACCESS:  103244627  HIT:  103244627  MISS:          0
L1I RFO       ACCESS:          0  HIT:          0  MISS:          0
L1I PREFETCH  ACCESS:          0  HIT:          0  MISS:          0
L1I WRITEBACK ACCESS:          0  HIT:          0  MISS:          0
L2C TOTAL     ACCESS:   27616184  HIT:   21384245  MISS:    6231939
L2C LOAD      ACCESS:   10175275  HIT:    6364845  MISS:    3810430
L2C RFO       ACCESS:    8198017  HIT:    5778063  MISS:    2419954
L2C PREFETCH  ACCESS:          0  HIT:          0  MISS:          0
L2C WRITEBACK ACCESS:    9242892  HIT:    9241337  MISS:       1555
LLC TOTAL     ACCESS:    8652788  HIT:    3113137  MISS:    5539651
LLC LOAD      ACCESS:    3810430  HIT:     690936  MISS:    3119494
LLC RFO       ACCESS:    2419951  HIT:         16  MISS:    2419935
LLC PREFETCH  ACCESS:          0  HIT:          0  MISS:          0
LLC WRITEBACK ACCESS:    2422407  HIT:    2422185  MISS:        222

CPU 5 cumulative IPC: 0.129024 instructions: 100000000 cycles: 775052388
L1D TOTAL     ACCESS:   52975029  HIT:   43952121  MISS:    9022908
L1D LOAD      ACCESS:   33178409  HIT:   28528934  MISS:    4649475
L1D RFO       ACCESS:   19796620  HIT:   15423187  MISS:    4373433
L1D PREFETCH  ACCESS:          0  HIT:          0  MISS:          0
L1D WRITEBACK ACCESS:          0  HIT:          0  MISS:          0
L1I TOTAL     ACCESS:   24255853  HIT:   24255853  MISS:          0
L1I LOAD      ACCESS:   24255853  HIT:   24255853  MISS:          0
L1I RFO       ACCESS:          0  HIT:          0  MISS:          0
L1I PREFETCH  ACCESS:          0  HIT:          0  MISS:          0
L1I WRITEBACK ACCESS:          0  HIT:          0  MISS:          0
L2C TOTAL     ACCESS:   18045760  HIT:    9293656  MISS:    8752104
L2C LOAD      ACCESS:    4649419  HIT:     275310  MISS:    4374109
L2C RFO       ACCESS:    4373433  HIT:         14  MISS:    4373419
L2C PREFETCH  ACCESS:          0  HIT:          0  MISS:          0
L2C WRITEBACK ACCESS:    9022908  HIT:    9018332  MISS:       4576
LLC TOTAL     ACCESS:   17496247  HIT:   10641454  MISS:    6854793
LLC LOAD      ACCESS:    4374058  HIT:    1797963  MISS:    2576095
LLC RFO       ACCESS:    4373419  HIT:      94721  MISS:    4278698
LLC PREFETCH  ACCESS:          0  HIT:          0  MISS:          0
LLC WRITEBACK ACCESS:    8748770  HIT:    8748770  MISS:          0

CPU 6 cumulative IPC: 0.432695 instructions: 335361644 cycles: 775052389
L1D TOTAL     ACCESS:  109939754  HIT:  108473687  MISS:    1466067
L1D LOAD      ACCESS:   69387685  HIT:   68341298  MISS:    1046387
L1D RFO       ACCESS:   40552069  HIT:   40132389  MISS:     419680
L1D PREFETCH  ACCESS:          0  HIT:          0  MISS:          0
L1D WRITEBACK ACCESS:          0  HIT:          0  MISS:          0
L1I TOTAL     ACCESS:   79876725  HIT:   79753532  MISS:     123193
L1I LOAD      ACCESS:   79876725  HIT:   79753532  MISS:     123193
L1I RFO       ACCESS:          0  HIT:          0  MISS:          0
L1I PREFETCH  ACCESS:          0  HIT:          0  MISS:          0
L1I WRITEBACK ACCESS:          0  HIT:          0  MISS:          0
L2C TOTAL     ACCESS:    2218875  HIT:    2163388  MISS:      55487
L2C LOAD      ACCESS:    1169572  HIT:    1137347  MISS:      32225
L2C RFO       ACCESS:     419660  HIT:     396540  MISS:      23120
L2C PREFETCH  ACCESS:          0  HIT:          0  MISS:          0
L2C WRITEBACK ACCESS:     629643  HIT:     629501  MISS:        142
LLC TOTAL     ACCESS:      81988  HIT:      34233  MISS:      47755
LLC LOAD      ACCESS:      32225  HIT:      12935  MISS:      19290
LLC RFO       ACCESS:      23120  HIT:        536  MISS:      22584
LLC PREFETCH  ACCESS:          0  HIT:          0  MISS:          0
LLC WRITEBACK ACCESS:      26643  HIT:      20762  MISS:       5881

CPU 7 cumulative IPC: 0.54656 instructions: 423612262 cycles: 775052389
L1D TOTAL     ACCESS:   99462612  HIT:   92294725  MISS:    7167887
L1D LOAD      ACCESS:   82842106  HIT:   76925164  MISS:    5916942
L1D RFO       ACCESS:   16620506  HIT:   15369561  MISS:    1250945
L1D PREFETCH  ACCESS:          0  HIT:          0  MISS:          0
L1D WRITEBACK ACCESS:          0  HIT:          0  MISS:          0
L1I TOTAL     ACCESS:  118540132  HIT:  118528332  MISS:      11800
L1I LOAD      ACCESS:  118540132  HIT:  118528332  MISS:      11800
L1I RFO       ACCESS:          0  HIT:          0  MISS:          0
L1I PREFETCH  ACCESS:          0  HIT:          0  MISS:          0
L1I WRITEBACK ACCESS:          0  HIT:          0  MISS:          0
L2C TOTAL     ACCESS:    9691788  HIT:    4503897  MISS:    5187891
L2C LOAD      ACCESS:    5928595  HIT:    1743099  MISS:    4185496
L2C RFO       ACCESS:    1250931  HIT:     254090  MISS:     996841
L2C PREFETCH  ACCESS:          0  HIT:          0  MISS:          0
L2C WRITEBACK ACCESS:    2512262  HIT:    2506708  MISS:       5554
LLC TOTAL     ACCESS:    7276632  HIT:    3749295  MISS:    3527337
LLC LOAD      ACCESS:    4185494  HIT:    1464258  MISS:    2721236
LLC RFO       ACCESS:     996841  HIT:     193945  MISS:     802896
LLC PREFETCH  ACCESS:          0  HIT:          0  MISS:          0
LLC WRITEBACK ACCESS:    2094297  HIT:    2091092  MISS:       3205

Region of Interest Statistics

CPU 0 cumulative IPC: 0.765853 instructions: 100000001 cycles: 130573321
L1D TOTAL     ACCESS:   20528389  HIT:   19544030  MISS:     984359
L1D LOAD      ACCESS:   12044291  HIT:   11692441  MISS:     351850
L1D RFO       ACCESS:    8484098  HIT:    7851589  MISS:     632509
L1D PREFETCH  ACCESS:          0  HIT:          0  MISS:          0
L1D WRITEBACK ACCESS:          0  HIT:          0  MISS:          0
L1D PREFETCH  REQUESTED:          0  ISSUED:          0  USEFUL:          0  USELESS:          0
L1I TOTAL     ACCESS:   26227202  HIT:   26187003  MISS:      40199
L1I LOAD      ACCESS:   26227202  HIT:   26187003  MISS:      40199
L1I RFO       ACCESS:          0  HIT:          0  MISS:          0
L1I PREFETCH  ACCESS:          0  HIT:          0  MISS:          0
L1I WRITEBACK ACCESS:          0  HIT:          0  MISS:          0
L1I PREFETCH  REQUESTED:          0  ISSUED:          0  USEFUL:          0  USELESS:          0
L2C TOTAL     ACCESS:    1699991  HIT:    1078262  MISS:     621729
L2C LOAD      ACCESS:     392035  HIT:     278892  MISS:     113143
L2C RFO       ACCESS:     632506  HIT:     124304  MISS:     508202
L2C PREFETCH  ACCESS:          0  HIT:          0  MISS:          0
L2C WRITEBACK ACCESS:     675450  HIT:     675066  MISS:        384
L2C PREFETCH  REQUESTED:          0  ISSUED:          0  USEFUL:          0  USELESS:          0
LLC TOTAL     ACCESS:    1146604  HIT:     624316  MISS:     522288
LLC LOAD      ACCESS:     113143  HIT:      55609  MISS:      57534
LLC RFO       ACCESS:     508202  HIT:      47781  MISS:     460421
LLC PREFETCH  ACCESS:          0  HIT:          0  MISS:          0
LLC WRITEBACK ACCESS:     525259  HIT:     520926  MISS:       4333
LLC PREFETCH  REQUESTED:          0  ISSUED:          0  USEFUL:          0  USELESS:          0
Major fault: 0 Minor fault: 6988

CPU 1 cumulative IPC: 0.541025 instructions: 100000001 cycles: 184834331
L1D TOTAL     ACCESS:   37344000  HIT:   37058202  MISS:     285798
L1D LOAD      ACCESS:   17192746  HIT:   16935596  MISS:     257150
L1D RFO       ACCESS:   20151254  HIT:   20122606  MISS:      28648
L1D PREFETCH  ACCESS:          0  HIT:          0  MISS:          0
L1D WRITEBACK ACCESS:          0  HIT:          0  MISS:          0
L1D PREFETCH  REQUESTED:          0  ISSUED:          0  USEFUL:          0  USELESS:          0
L1I TOTAL     ACCESS:   27429186  HIT:   27081804  MISS:     347382
L1I LOAD      ACCESS:   27429186  HIT:   27081804  MISS:     347382
L1I RFO       ACCESS:          0  HIT:          0  MISS:          0
L1I PREFETCH  ACCESS:          0  HIT:          0  MISS:          0
L1I WRITEBACK ACCESS:          0  HIT:          0  MISS:          0
L1I PREFETCH  REQUESTED:          0  ISSUED:          0  USEFUL:          0  USELESS:          0
L2C TOTAL     ACCESS:     713528  HIT:     551622  MISS:     161906
L2C LOAD      ACCESS:     604531  HIT:     453506  MISS:     151025
L2C RFO       ACCESS:      28648  HIT:      19042  MISS:       9606
L2C PREFETCH  ACCESS:          0  HIT:          0  MISS:          0
L2C WRITEBACK ACCESS:      80349  HIT:      79074  MISS:       1275
L2C PREFETCH  REQUESTED:          0  ISSUED:          0  USEFUL:          0  USELESS:          0
LLC TOTAL     ACCESS:     192051  HIT:      76578  MISS:     115473
LLC LOAD      ACCESS:     151025  HIT:      44787  MISS:     106238
LLC RFO       ACCESS:       9606  HIT:       3803  MISS:       5803
LLC PREFETCH  ACCESS:          0  HIT:          0  MISS:          0
LLC WRITEBACK ACCESS:      31420  HIT:      27988  MISS:       3432
LLC PREFETCH  REQUESTED:          0  ISSUED:          0  USEFUL:          0  USELESS:          0
Major fault: 0 Minor fault: 5899

CPU 2 cumulative IPC: 0.58009 instructions: 100000001 cycles: 172387014
L1D TOTAL     ACCESS:   30057094  HIT:   29920601  MISS:     136493
L1D LOAD      ACCESS:   18557828  HIT:   18462086  MISS:      95742
L1D RFO       ACCESS:   11499266  HIT:   11458515  MISS:      40751
L1D PREFETCH  ACCESS:          0  HIT:          0  MISS:          0
L1D WRITEBACK ACCESS:          0  HIT:          0  MISS:          0
L1D PREFETCH  REQUESTED:          0  ISSUED:          0  USEFUL:          0  USELESS:          0
L1I TOTAL     ACCESS:   24415792  HIT:   24325892  MISS:      89900
L1I LOAD      ACCESS:   24415792  HIT:   24325892  MISS:      89900
L1I RFO       ACCESS:          0  HIT:          0  MISS:          0
L1I PREFETCH  ACCESS:          0  HIT:          0  MISS:          0
L1I WRITEBACK ACCESS:          0  HIT:          0  MISS:          0
L1I PREFETCH  REQUESTED:          0  ISSUED:          0  USEFUL:          0  USELESS:          0
L2C TOTAL     ACCESS:     292214  HIT:     261901  MISS:      30313
L2C LOAD      ACCESS:     185640  HIT:     156762  MISS:      28878
L2C RFO       ACCESS:      40749  HIT:      39389  MISS:       1360
L2C PREFETCH  ACCESS:          0  HIT:          0  MISS:          0
L2C WRITEBACK ACCESS:      65825  HIT:      65750  MISS:         75
L2C PREFETCH  REQUESTED:          0  ISSUED:          0  USEFUL:          0  USELESS:          0
LLC TOTAL     ACCESS:      50196  HIT:       5105  MISS:      45091
LLC LOAD      ACCESS:      28878  HIT:        317  MISS:      28561
LLC RFO       ACCESS:       1360  HIT:        519  MISS:        841
LLC PREFETCH  ACCESS:          0  HIT:          0  MISS:          0
LLC WRITEBACK ACCESS:      19958  HIT:       4269  MISS:      15689
LLC PREFETCH  REQUESTED:          0  ISSUED:          0  USEFUL:          0  USELESS:          0
Major fault: 0 Minor fault: 74705

CPU 3 cumulative IPC: 1.1376 instructions: 100000000 cycles: 87904005
L1D TOTAL     ACCESS:   17134478  HIT:   17131813  MISS:       2665
L1D LOAD      ACCESS:   13825713  HIT:   13825379  MISS:        334
L1D RFO       ACCESS:    3308765  HIT:    3306434  MISS:       2331
L1D PREFETCH  ACCESS:          0  HIT:          0  MISS:          0
L1D WRITEBACK ACCESS:          0  HIT:          0  MISS:          0
L1D PREFETCH  REQUESTED:          0  ISSUED:          0  USEFUL:          0  USELESS:          0
L1I TOTAL     ACCESS:   24281638  HIT:   24281638  MISS:          0
L1I LOAD      ACCESS:   24281638  HIT:   24281638  MISS:          0
L1I RFO       ACCESS:          0  HIT:          0  MISS:          0
L1I PREFETCH  ACCESS:          0  HIT:          0  MISS:          0
L1I WRITEBACK ACCESS:          0  HIT:          0  MISS:          0
L1I PREFETCH  REQUESTED:          0  ISSUED:          0  USEFUL:          0  USELESS:          0
L2C TOTAL     ACCESS:       5002  HIT:       2663  MISS:       2339
L2C LOAD      ACCESS:        334  HIT:        121  MISS:        213
L2C RFO       ACCESS:       2331  HIT:        205  MISS:       2126
L2C PREFETCH  ACCESS:          0  HIT:          0  MISS:          0
L2C WRITEBACK ACCESS:       2337  HIT:       2337  MISS:          0
L2C PREFETCH  REQUESTED:          0  ISSUED:          0  USEFUL:          0  USELESS:          0
LLC TOTAL     ACCESS:       4421  HIT:          0  MISS:       4421
LLC LOAD      ACCESS:        213  HIT:          0  MISS:        213
LLC RFO       ACCESS:       2126  HIT:          0  MISS:       2126
LLC PREFETCH  ACCESS:          0  HIT:          0  MISS:          0
LLC WRITEBACK ACCESS:       2082  HIT:          0  MISS:       2082
LLC PREFETCH  REQUESTED:          0  ISSUED:          0  USEFUL:          0  USELESS:          0
Major fault: 0 Minor fault: 2129

CPU 4 cumulative IPC: 0.528661 instructions: 100000000 cycles: 189156991
L1D TOTAL     ACCESS:   35444280  HIT:   30646679  MISS:    4797601
L1D LOAD      ACCESS:   18154162  HIT:   15633752  MISS:    2520410
L1D RFO       ACCESS:   17290118  HIT:   15012927  MISS:    2277191
L1D PREFETCH  ACCESS:          0  HIT:          0  MISS:          0
L1D WRITEBACK ACCESS:          0  HIT:          0  MISS:          0
L1D PREFETCH  REQUESTED:          0  ISSUED:          0  USEFUL:          0  USELESS:          0
L1I TOTAL     ACCESS:   25414253  HIT:   25414253  MISS:          0
L1I LOAD      ACCESS:   25414253  HIT:   25414253  MISS:          0
L1I RFO       ACCESS:          0  HIT:          0  MISS:          0
L1I PREFETCH  ACCESS:          0  HIT:          0  MISS:          0
L1I WRITEBACK ACCESS:          0  HIT:          0  MISS:          0
L1I PREFETCH  REQUESTED:          0  ISSUED:          0  USEFUL:          0  USELESS:          0
L2C TOTAL     ACCESS:    6840219  HIT:    5306394  MISS:    1533825
L2C LOAD      ACCESS:    2518878  HIT:    1580822  MISS:     938056
L2C RFO       ACCESS:    2030321  HIT:    1434932  MISS:     595389
L2C PREFETCH  ACCESS:          0  HIT:          0  MISS:          0
L2C WRITEBACK ACCESS:    2291020  HIT:    2290640  MISS:        380
L2C PREFETCH  REQUESTED:          0  ISSUED:          0  USEFUL:          0  USELESS:          0
LLC TOTAL     ACCESS:    2129479  HIT:     766508  MISS:    1362971
LLC LOAD      ACCESS:     938056  HIT:     170524  MISS:     767532
LLC RFO       ACCESS:     595389  HIT:          4  MISS:     595385
LLC PREFETCH  ACCESS:          0  HIT:          0  MISS:          0
LLC WRITEBACK ACCESS:     596034  HIT:     595980  MISS:         54
LLC PREFETCH  REQUESTED:          0  ISSUED:          0  USEFUL:          0  USELESS:          0
Major fault: 0 Minor fault: 85262

CPU 5 cumulative IPC: 0.129024 instructions: 100000000 cycles: 775052388
L1D TOTAL     ACCESS:   52975029  HIT:   43952121  MISS:    9022908
L1D LOAD      ACCESS:   33178409  HIT:   28528934  MISS:    4649475
L1D RFO       ACCESS:   19796620  HIT:   15423187  MISS:    4373433
L1D PREFETCH  ACCESS:          0  HIT:          0  MISS:          0
L1D WRITEBACK ACCESS:          0  HIT:          0  MISS:          0
L1D PREFETCH  REQUESTED:          0  ISSUED:          0  USEFUL:          0  USELESS:          0
L1I TOTAL     ACCESS:   24255853  HIT:   24255853  MISS:          0
L1I LOAD      ACCESS:   24255853  HIT:   24255853  MISS:          0
L1I RFO       ACCESS:          0  HIT:          0  MISS:          0
L1I PREFETCH  ACCESS:          0  HIT:          0  MISS:          0
L1I WRITEBACK ACCESS:          0  HIT:          0  MISS:          0
L1I PREFETCH  REQUESTED:          0  ISSUED:          0  USEFUL:          0  USELESS:          0
L2C TOTAL     ACCESS:   18045760  HIT:    9293656  MISS:    8752104
L2C LOAD      ACCESS:    4649419  HIT:     275310  MISS:    4374109
L2C RFO       ACCESS:    4373433  HIT:         14  MISS:    4373419
L2C PREFETCH  ACCESS:          0  HIT:          0  MISS:          0
L2C WRITEBACK ACCESS:    9022908  HIT:    9018332  MISS:       4576
L2C PREFETCH  REQUESTED:          0  ISSUED:          0  USEFUL:          0  USELESS:          0
LLC TOTAL     ACCESS:   17496247  HIT:   10641454  MISS:    6854793
LLC LOAD      ACCESS:    4374058  HIT:    1797963  MISS:    2576095
LLC RFO       ACCESS:    4373419  HIT:      94721  MISS:    4278698
LLC PREFETCH  ACCESS:          0  HIT:          0  MISS:          0
LLC WRITEBACK ACCESS:    8748770  HIT:    8748770  MISS:          0
LLC PREFETCH  REQUESTED:          0  ISSUED:          0  USEFUL:          0  USELESS:          0
Major fault: 0 Minor fault: 257383

CPU 6 cumulative IPC: 0.43233 instructions: 100000002 cycles: 231305050
L1D TOTAL     ACCESS:   32949480  HIT:   32551274  MISS:     398206
L1D LOAD      ACCESS:   20806356  HIT:   20520233  MISS:     286123
L1D RFO       ACCESS:   12143124  HIT:   12031041  MISS:     112083
L1D PREFETCH  ACCESS:          0  HIT:          0  MISS:          0
L1D WRITEBACK ACCESS:          0  HIT:          0  MISS:          0
L1D PREFETCH  REQUESTED:          0  ISSUED:          0  USEFUL:          0  USELESS:          0
L1I TOTAL     ACCESS:   23625779  HIT:   23590773  MISS:      35006
L1I LOAD      ACCESS:   23625779  HIT:   23590773  MISS:      35006
L1I RFO       ACCESS:          0  HIT:          0  MISS:          0
L1I PREFETCH  ACCESS:          0  HIT:          0  MISS:          0
L1I WRITEBACK ACCESS:          0  HIT:          0  MISS:          0
L1I PREFETCH  REQUESTED:          0  ISSUED:          0  USEFUL:          0  USELESS:          0
L2C TOTAL     ACCESS:     601759  HIT:     599196  MISS:       2563
L2C LOAD      ACCESS:     321128  HIT:     319222  MISS:       1906
L2C RFO       ACCESS:     112075  HIT:     111426  MISS:        649
L2C PREFETCH  ACCESS:          0  HIT:          0  MISS:          0
L2C WRITEBACK ACCESS:     168556  HIT:     168548  MISS:          8
L2C PREFETCH  REQUESTED:          0  ISSUED:          0  USEFUL:          0  USELESS:          0
LLC TOTAL     ACCESS:       3215  HIT:        155  MISS:       3060
LLC LOAD      ACCESS:       1906  HIT:        120  MISS:       1786
LLC RFO       ACCESS:        649  HIT:          2  MISS:        647
LLC PREFETCH  ACCESS:          0  HIT:          0  MISS:          0
LLC WRITEBACK ACCESS:        660  HIT:         33  MISS:        627
LLC PREFETCH  REQUESTED:          0  ISSUED:          0  USEFUL:          0  USELESS:          0
Major fault: 0 Minor fault: 1557

CPU 7 cumulative IPC: 0.650765 instructions: 100000001 cycles: 153665388
L1D TOTAL     ACCESS:   21382854  HIT:   20292713  MISS:    1090141
L1D LOAD      ACCESS:   18107528  HIT:   17236371  MISS:     871157
L1D RFO       ACCESS:    3275326  HIT:    3056342  MISS:     218984
L1D PREFETCH  ACCESS:          0  HIT:          0  MISS:          0
L1D WRITEBACK ACCESS:          0  HIT:          0  MISS:          0
L1D PREFETCH  REQUESTED:          0  ISSUED:          0  USEFUL:          0  USELESS:          0
L1I TOTAL     ACCESS:   31226062  HIT:   31224338  MISS:       1724
L1I LOAD      ACCESS:   31226062  HIT:   31224338  MISS:       1724
L1I RFO       ACCESS:          0  HIT:          0  MISS:          0
L1I PREFETCH  ACCESS:          0  HIT:          0  MISS:          0
L1I WRITEBACK ACCESS:          0  HIT:          0  MISS:          0
L1I PREFETCH  REQUESTED:          0  ISSUED:          0  USEFUL:          0  USELESS:          0
L2C TOTAL     ACCESS:    1493783  HIT:     715813  MISS:     777970
L2C LOAD      ACCESS:     872868  HIT:     295385  MISS:     577483
L2C RFO       ACCESS:     218984  HIT:      19634  MISS:     199350
L2C PREFETCH  ACCESS:          0  HIT:          0  MISS:          0
L2C WRITEBACK ACCESS:     401931  HIT:     400794  MISS:       1137
L2C PREFETCH  REQUESTED:          0  ISSUED:          0  USEFUL:          0  USELESS:          0
LLC TOTAL     ACCESS:    1152928  HIT:     720593  MISS:     432335
LLC LOAD      ACCESS:     577483  HIT:     283679  MISS:     293804
LLC RFO       ACCESS:     199350  HIT:      61253  MISS:     138097
LLC PREFETCH  ACCESS:          0  HIT:          0  MISS:          0
LLC WRITEBACK ACCESS:     376095  HIT:     375661  MISS:        434
LLC PREFETCH  REQUESTED:          0  ISSUED:          0  USEFUL:          0  USELESS:          0
Major fault: 0 Minor fault: 10908

DRAM Statistics
 CHANNEL 0
 RQ ROW_BUFFER_HIT:    2790114  ROW_BUFFER_MISS:    7102247
 DBUS_CONGESTED:   20543459
 WQ ROW_BUFFER_HIT:     742306  ROW_BUFFER_MISS:    6219009  FULL:          0

 CHANNEL 1
 RQ ROW_BUFFER_HIT:    2783396  ROW_BUFFER_MISS:    7114626
 DBUS_CONGESTED:   20543459
 WQ ROW_BUFFER_HIT:     745099  ROW_BUFFER_MISS:    6220049  FULL:          0

 AVG_CONGESTED_CYCLE: 13
