
*** ChampSim Multicore Out-of-Order Simulator ***

Warmup Instructions: 20000000
Simulation Instructions: 100000000
Number of CPUs: 8
LLC sets: 16384
LLC ways: 16
Off-chip DRAM Size: 8192 MB Channels: 2 Width: 64-bit Data Rate: 1600 MT/s

CPU 0 runs /scratch/user/djimenez/champsim-traces/speccpu2017/xz/605.mcf_s/605.mcf_s-472B.champsimtrace.xz
CPU 1 runs /scratch/user/djimenez/champsim-traces/speccpu2017/xz/649.fotonik3d_s/649.fotonik3d_s-8225B.champsimtrace.xz
CPU 2 runs /scratch/user/djimenez/champsim-traces/speccpu2017/xz/648.exchange2_s/648.exchange2_s-1712B.champsimtrace.xz
CPU 3 runs /scratch/user/djimenez/champsim-traces/speccpu2017/xz/649.fotonik3d_s/649.fotonik3d_s-7084B.champsimtrace.xz
CPU 4 runs /scratch/user/djimenez/champsim-traces/speccpu2017/xz/603.bwaves_s/603.bwaves_s-1080B.champsimtrace.xz
CPU 5 runs /scratch/user/djimenez/champsim-traces/speccpu2017/xz/627.cam4_s/627.cam4_s-573B.champsimtrace.xz
CPU 6 runs /scratch/user/djimenez/champsim-traces/speccpu2017/xz/603.bwaves_s/603.bwaves_s-1740B.champsimtrace.xz
CPU 7 runs /scratch/user/djimenez/champsim-traces/speccpu2017/xz/605.mcf_s/605.mcf_s-484B.champsimtrace.xz
Heartbeat CPU 3 instructions: 10000000 cycles: 4204550 heartbeat IPC: 2.37838 cumulative IPC: 2.37838 (Simulation time: 0 hr 3 min 40 sec) 
Heartbeat CPU 4 instructions: 10000003 cycles: 4334884 heartbeat IPC: 2.30687 cumulative IPC: 2.30687 (Simulation time: 0 hr 3 min 47 sec) 
Heartbeat CPU 2 instructions: 10000000 cycles: 4419333 heartbeat IPC: 2.26278 cumulative IPC: 2.26278 (Simulation time: 0 hr 3 min 52 sec) 
Heartbeat CPU 5 instructions: 10000003 cycles: 4432863 heartbeat IPC: 2.25588 cumulative IPC: 2.25588 (Simulation time: 0 hr 3 min 52 sec) 
Heartbeat CPU 1 instructions: 10000001 cycles: 4455282 heartbeat IPC: 2.24453 cumulative IPC: 2.24453 (Simulation time: 0 hr 3 min 54 sec) 
Heartbeat CPU 6 instructions: 10000002 cycles: 5286738 heartbeat IPC: 1.89153 cumulative IPC: 1.89153 (Simulation time: 0 hr 4 min 40 sec) 
Heartbeat CPU 0 instructions: 10000000 cycles: 6748517 heartbeat IPC: 1.48181 cumulative IPC: 1.48181 (Simulation time: 0 hr 6 min 2 sec) 
Heartbeat CPU 7 instructions: 10000000 cycles: 6902374 heartbeat IPC: 1.44878 cumulative IPC: 1.44878 (Simulation time: 0 hr 6 min 10 sec) 
Heartbeat CPU 3 instructions: 20000000 cycles: 8408702 heartbeat IPC: 2.3786 cumulative IPC: 2.37849 (Simulation time: 0 hr 7 min 29 sec) 
Heartbeat CPU 5 instructions: 20000000 cycles: 8603345 heartbeat IPC: 2.3978 cumulative IPC: 2.32468 (Simulation time: 0 hr 7 min 40 sec) 
Heartbeat CPU 2 instructions: 20000000 cycles: 8771719 heartbeat IPC: 2.29759 cumulative IPC: 2.28005 (Simulation time: 0 hr 7 min 48 sec) 
Heartbeat CPU 4 instructions: 20000000 cycles: 8838581 heartbeat IPC: 2.2204 cumulative IPC: 2.26281 (Simulation time: 0 hr 7 min 52 sec) 
Heartbeat CPU 1 instructions: 20000000 cycles: 8910478 heartbeat IPC: 2.24457 cumulative IPC: 2.24455 (Simulation time: 0 hr 7 min 56 sec) 
Heartbeat CPU 6 instructions: 20000000 cycles: 10575604 heartbeat IPC: 1.89076 cumulative IPC: 1.89114 (Simulation time: 0 hr 9 min 24 sec) 
Heartbeat CPU 3 instructions: 30000000 cycles: 12603160 heartbeat IPC: 2.3841 cumulative IPC: 0.793452 (Simulation time: 0 hr 11 min 6 sec) 
Heartbeat CPU 5 instructions: 30000001 cycles: 12771393 heartbeat IPC: 2.3992 cumulative IPC: 0.783 (Simulation time: 0 hr 11 min 14 sec) 
Heartbeat CPU 4 instructions: 30000000 cycles: 12796421 heartbeat IPC: 2.52663 cumulative IPC: 0.781469 (Simulation time: 0 hr 11 min 15 sec) 
Heartbeat CPU 0 instructions: 20000000 cycles: 13134447 heartbeat IPC: 1.56594 cumulative IPC: 1.52271 (Simulation time: 0 hr 11 min 32 sec) 
Heartbeat CPU 2 instructions: 30000003 cycles: 13154763 heartbeat IPC: 2.28152 cumulative IPC: 0.760181 (Simulation time: 0 hr 11 min 33 sec) 
Heartbeat CPU 1 instructions: 30000003 cycles: 13367582 heartbeat IPC: 2.24361 cumulative IPC: 0.748079 (Simulation time: 0 hr 11 min 44 sec) 
Heartbeat CPU 7 instructions: 20000000 cycles: 13716439 heartbeat IPC: 1.46755 cumulative IPC: 1.4581 (Simulation time: 0 hr 12 min 2 sec) 

Warmup complete CPU 0 instructions: 20839139 cycles: 13716440 (Simulation time: 0 hr 12 min 2 sec) 
Warmup complete CPU 1 instructions: 30783234 cycles: 13716440 (Simulation time: 0 hr 12 min 2 sec) 
Warmup complete CPU 2 instructions: 31277837 cycles: 13716440 (Simulation time: 0 hr 12 min 2 sec) 
Warmup complete CPU 3 instructions: 32656007 cycles: 13716440 (Simulation time: 0 hr 12 min 2 sec) 
Warmup complete CPU 4 instructions: 32329197 cycles: 13716440 (Simulation time: 0 hr 12 min 2 sec) 
Warmup complete CPU 5 instructions: 32305661 cycles: 13716440 (Simulation time: 0 hr 12 min 2 sec) 
Warmup complete CPU 6 instructions: 25940737 cycles: 13716440 (Simulation time: 0 hr 12 min 2 sec) 
Warmup complete CPU 7 instructions: 20000001 cycles: 13716440 (Simulation time: 0 hr 12 min 2 sec) 

Heartbeat CPU 2 instructions: 40000000 cycles: 19029802 heartbeat IPC: 1.70212 cumulative IPC: 1.64155 (Simulation time: 0 hr 14 min 10 sec) 
Heartbeat CPU 4 instructions: 40000000 cycles: 20275576 heartbeat IPC: 1.33705 cumulative IPC: 1.16948 (Simulation time: 0 hr 14 min 37 sec) 
Heartbeat CPU 5 instructions: 40000000 cycles: 21177053 heartbeat IPC: 1.18967 cumulative IPC: 1.03133 (Simulation time: 0 hr 14 min 55 sec) 
Heartbeat CPU 6 instructions: 30000003 cycles: 21337148 heartbeat IPC: 0.929235 cumulative IPC: 0.532663 (Simulation time: 0 hr 14 min 58 sec) 
Heartbeat CPU 2 instructions: 50000000 cycles: 25195198 heartbeat IPC: 1.62196 cumulative IPC: 1.63103 (Simulation time: 0 hr 16 min 21 sec) 
Heartbeat CPU 4 instructions: 50000000 cycles: 28907893 heartbeat IPC: 1.15844 cumulative IPC: 1.16321 (Simulation time: 0 hr 17 min 42 sec) 
Heartbeat CPU 2 instructions: 60000000 cycles: 31374859 heartbeat IPC: 1.61821 cumulative IPC: 1.62654 (Simulation time: 0 hr 18 min 35 sec) 
Heartbeat CPU 3 instructions: 40000000 cycles: 31700559 heartbeat IPC: 0.523632 cumulative IPC: 0.40836 (Simulation time: 0 hr 18 min 42 sec) 
Heartbeat CPU 5 instructions: 50000001 cycles: 33482392 heartbeat IPC: 0.812655 cumulative IPC: 0.895193 (Simulation time: 0 hr 19 min 21 sec) 
Heartbeat CPU 2 instructions: 70000002 cycles: 37532640 heartbeat IPC: 1.62396 cumulative IPC: 1.62587 (Simulation time: 0 hr 20 min 54 sec) 
Heartbeat CPU 1 instructions: 40000000 cycles: 37737455 heartbeat IPC: 0.410343 cumulative IPC: 0.383696 (Simulation time: 0 hr 20 min 59 sec) 
Heartbeat CPU 4 instructions: 60000000 cycles: 37744575 heartbeat IPC: 1.13165 cumulative IPC: 1.1516 (Simulation time: 0 hr 20 min 59 sec) 
Heartbeat CPU 6 instructions: 40000000 cycles: 39324570 heartbeat IPC: 0.555944 cumulative IPC: 0.549016 (Simulation time: 0 hr 21 min 35 sec) 
Heartbeat CPU 2 instructions: 80000000 cycles: 43725312 heartbeat IPC: 1.61481 cumulative IPC: 1.62359 (Simulation time: 0 hr 23 min 14 sec) 
Heartbeat CPU 5 instructions: 60000000 cycles: 46175278 heartbeat IPC: 0.787843 cumulative IPC: 0.853214 (Simulation time: 0 hr 24 min 7 sec) 
Heartbeat CPU 4 instructions: 70000000 cycles: 46555137 heartbeat IPC: 1.135 cumulative IPC: 1.14715 (Simulation time: 0 hr 24 min 15 sec) 
Heartbeat CPU 0 instructions: 30000002 cycles: 46861830 heartbeat IPC: 0.296495 cumulative IPC: 0.276384 (Simulation time: 0 hr 24 min 22 sec) 
Heartbeat CPU 2 instructions: 90000001 cycles: 49929916 heartbeat IPC: 1.61171 cumulative IPC: 1.62156 (Simulation time: 0 hr 25 min 25 sec) 
Heartbeat CPU 7 instructions: 30000000 cycles: 53148363 heartbeat IPC: 0.253602 cumulative IPC: 0.253602 (Simulation time: 0 hr 26 min 35 sec) 
Heartbeat CPU 3 instructions: 50000000 cycles: 54374465 heartbeat IPC: 0.441036 cumulative IPC: 0.426582 (Simulation time: 0 hr 27 min 2 sec) 
Heartbeat CPU 4 instructions: 80000000 cycles: 55384160 heartbeat IPC: 1.13263 cumulative IPC: 1.14407 (Simulation time: 0 hr 27 min 25 sec) 
Heartbeat CPU 2 instructions: 100000000 cycles: 56199197 heartbeat IPC: 1.59508 cumulative IPC: 1.61765 (Simulation time: 0 hr 27 min 43 sec) 
Heartbeat CPU 6 instructions: 50000003 cycles: 57052102 heartbeat IPC: 0.564094 cumulative IPC: 0.555184 (Simulation time: 0 hr 28 min 1 sec) 
Heartbeat CPU 5 instructions: 70000000 cycles: 58176331 heartbeat IPC: 0.83326 cumulative IPC: 0.847828 (Simulation time: 0 hr 28 min 24 sec) 
Heartbeat CPU 2 instructions: 110000000 cycles: 62477988 heartbeat IPC: 1.59266 cumulative IPC: 1.61443 (Simulation time: 0 hr 29 min 55 sec) 
Heartbeat CPU 1 instructions: 50000000 cycles: 63166179 heartbeat IPC: 0.393256 cumulative IPC: 0.388612 (Simulation time: 0 hr 30 min 10 sec) 
Heartbeat CPU 4 instructions: 90000000 cycles: 64241055 heartbeat IPC: 1.12906 cumulative IPC: 1.14144 (Simulation time: 0 hr 30 min 32 sec) 
Heartbeat CPU 2 instructions: 120000000 cycles: 68715853 heartbeat IPC: 1.60311 cumulative IPC: 1.61315 (Simulation time: 0 hr 32 min 6 sec) 
Heartbeat CPU 5 instructions: 80000000 cycles: 70379017 heartbeat IPC: 0.819492 cumulative IPC: 0.841726 (Simulation time: 0 hr 32 min 40 sec) 
Heartbeat CPU 4 instructions: 100000000 cycles: 73106466 heartbeat IPC: 1.12798 cumulative IPC: 1.13943 (Simulation time: 0 hr 33 min 34 sec) 
Heartbeat CPU 2 instructions: 130000003 cycles: 74820470 heartbeat IPC: 1.6381 cumulative IPC: 1.61564 (Simulation time: 0 hr 34 min 9 sec) 
Heartbeat CPU 6 instructions: 60000000 cycles: 74997794 heartbeat IPC: 0.557237 cumulative IPC: 0.555785 (Simulation time: 0 hr 34 min 13 sec) 
Finished CPU 2 instructions: 100000000 cycles: 61879670 cumulative IPC: 1.61604 (Simulation time: 0 hr 34 min 25 sec) 
Heartbeat CPU 3 instructions: 60000000 cycles: 77402014 heartbeat IPC: 0.434262 cumulative IPC: 0.429359 (Simulation time: 0 hr 35 min 2 sec) 
Heartbeat CPU 2 instructions: 140000000 cycles: 80917569 heartbeat IPC: 1.64012 cumulative IPC: 1.61786 (Simulation time: 0 hr 36 min 11 sec) 
Heartbeat CPU 4 instructions: 110000001 cycles: 81922720 heartbeat IPC: 1.13427 cumulative IPC: 1.13876 (Simulation time: 0 hr 36 min 30 sec) 
Heartbeat CPU 5 instructions: 90000002 cycles: 83557144 heartbeat IPC: 0.758833 cumulative IPC: 0.826085 (Simulation time: 0 hr 37 min 4 sec) 
Heartbeat CPU 2 instructions: 150000000 cycles: 87012984 heartbeat IPC: 1.64058 cumulative IPC: 1.61975 (Simulation time: 0 hr 38 min 21 sec) 
Heartbeat CPU 0 instructions: 40000000 cycles: 88978380 heartbeat IPC: 0.237436 cumulative IPC: 0.254589 (Simulation time: 0 hr 39 min 1 sec) 
Heartbeat CPU 1 instructions: 60000000 cycles: 89151285 heartbeat IPC: 0.384836 cumulative IPC: 0.387311 (Simulation time: 0 hr 39 min 5 sec) 
Heartbeat CPU 7 instructions: 40000000 cycles: 90130639 heartbeat IPC: 0.2704 cumulative IPC: 0.261731 (Simulation time: 0 hr 39 min 24 sec) 
Heartbeat CPU 4 instructions: 120000000 cycles: 90698700 heartbeat IPC: 1.13947 cumulative IPC: 1.13884 (Simulation time: 0 hr 39 min 36 sec) 
Heartbeat CPU 6 instructions: 70000001 cycles: 92858474 heartbeat IPC: 0.559889 cumulative IPC: 0.556711 (Simulation time: 0 hr 40 min 21 sec) 
Heartbeat CPU 2 instructions: 160000000 cycles: 93180763 heartbeat IPC: 1.62133 cumulative IPC: 1.61987 (Simulation time: 0 hr 40 min 28 sec) 
Heartbeat CPU 5 instructions: 100000000 cycles: 97769581 heartbeat IPC: 0.703609 cumulative IPC: 0.805375 (Simulation time: 0 hr 41 min 59 sec) 
Heartbeat CPU 2 instructions: 170000001 cycles: 99383799 heartbeat IPC: 1.61211 cumulative IPC: 1.61931 (Simulation time: 0 hr 42 min 30 sec) 
Heartbeat CPU 4 instructions: 130000000 cycles: 99461913 heartbeat IPC: 1.14113 cumulative IPC: 1.13908 (Simulation time: 0 hr 42 min 31 sec) 
Finished CPU 4 instructions: 100000002 cycles: 87787382 cumulative IPC: 1.13912 (Simulation time: 0 hr 43 min 11 sec) 
Heartbeat CPU 3 instructions: 70000001 cycles: 101675189 heartbeat IPC: 0.411977 cumulative IPC: 0.424563 (Simulation time: 0 hr 43 min 14 sec) 
Heartbeat CPU 2 instructions: 180000000 cycles: 105617959 heartbeat IPC: 1.60407 cumulative IPC: 1.61828 (Simulation time: 0 hr 44 min 20 sec) 
Heartbeat CPU 4 instructions: 140000000 cycles: 108225403 heartbeat IPC: 1.1411 cumulative IPC: 1.13927 (Simulation time: 0 hr 45 min 4 sec) 
Heartbeat CPU 2 instructions: 190000000 cycles: 111846804 heartbeat IPC: 1.60543 cumulative IPC: 1.61746 (Simulation time: 0 hr 46 min 8 sec) 
Heartbeat CPU 6 instructions: 80000000 cycles: 115985295 heartbeat IPC: 0.432398 cumulative IPC: 0.5286 (Simulation time: 0 hr 47 min 33 sec) 
Heartbeat CPU 4 instructions: 150000002 cycles: 117071309 heartbeat IPC: 1.13047 cumulative IPC: 1.13851 (Simulation time: 0 hr 47 min 55 sec) 
Heartbeat CPU 2 instructions: 200000000 cycles: 117979376 heartbeat IPC: 1.63064 cumulative IPC: 1.61824 (Simulation time: 0 hr 48 min 13 sec) 
Heartbeat CPU 5 instructions: 110000000 cycles: 118853916 heartbeat IPC: 0.474286 cumulative IPC: 0.738979 (Simulation time: 0 hr 48 min 31 sec) 
Heartbeat CPU 1 instructions: 70000002 cycles: 122625984 heartbeat IPC: 0.298733 cumulative IPC: 0.360086 (Simulation time: 0 hr 49 min 48 sec) 
Heartbeat CPU 2 instructions: 210000003 cycles: 124089155 heartbeat IPC: 1.63672 cumulative IPC: 1.61926 (Simulation time: 0 hr 50 min 21 sec) 
Heartbeat CPU 4 instructions: 160000000 cycles: 125910875 heartbeat IPC: 1.13128 cumulative IPC: 1.13794 (Simulation time: 0 hr 51 min 3 sec) 
Heartbeat CPU 5 instructions: 120000000 cycles: 130049498 heartbeat IPC: 0.893209 cumulative IPC: 0.753821 (Simulation time: 0 hr 52 min 39 sec) 
Heartbeat CPU 2 instructions: 220000000 cycles: 130176742 heartbeat IPC: 1.64269 cumulative IPC: 1.62048 (Simulation time: 0 hr 52 min 42 sec) 
Heartbeat CPU 3 instructions: 80000000 cycles: 130257987 heartbeat IPC: 0.349861 cumulative IPC: 0.406241 (Simulation time: 0 hr 52 min 44 sec) 
Heartbeat CPU 6 instructions: 90000000 cycles: 134663858 heartbeat IPC: 0.535373 cumulative IPC: 0.529646 (Simulation time: 0 hr 54 min 16 sec) 
Heartbeat CPU 4 instructions: 170000002 cycles: 134806337 heartbeat IPC: 1.12417 cumulative IPC: 1.13693 (Simulation time: 0 hr 54 min 19 sec) 
Heartbeat CPU 2 instructions: 230000001 cycles: 136286469 heartbeat IPC: 1.63673 cumulative IPC: 1.62129 (Simulation time: 0 hr 54 min 53 sec) 
Heartbeat CPU 7 instructions: 50000003 cycles: 137424376 heartbeat IPC: 0.211445 cumulative IPC: 0.242507 (Simulation time: 0 hr 55 min 19 sec) 
Heartbeat CPU 0 instructions: 50000000 cycles: 138197454 heartbeat IPC: 0.203173 cumulative IPC: 0.23426 (Simulation time: 0 hr 55 min 37 sec) 
Heartbeat CPU 5 instructions: 130000000 cycles: 140096122 heartbeat IPC: 0.995359 cumulative IPC: 0.773023 (Simulation time: 0 hr 56 min 23 sec) 
Heartbeat CPU 2 instructions: 240000000 cycles: 142297613 heartbeat IPC: 1.66358 cumulative IPC: 1.62327 (Simulation time: 0 hr 57 min 14 sec) 
Finished CPU 5 instructions: 100000000 cycles: 128828635 cumulative IPC: 0.776225 (Simulation time: 0 hr 57 min 20 sec) 
Heartbeat CPU 4 instructions: 180000000 cycles: 143632000 heartbeat IPC: 1.13306 cumulative IPC: 1.13667 (Simulation time: 0 hr 57 min 44 sec) 
Heartbeat CPU 2 instructions: 250000003 cycles: 148365460 heartbeat IPC: 1.64803 cumulative IPC: 1.62439 (Simulation time: 0 hr 59 min 28 sec) 
Heartbeat CPU 1 instructions: 80000000 cycles: 148413986 heartbeat IPC: 0.387777 cumulative IPC: 0.365387 (Simulation time: 0 hr 59 min 29 sec) 
Heartbeat CPU 5 instructions: 140000000 cycles: 150005832 heartbeat IPC: 1.00911 cumulative IPC: 0.790189 (Simulation time: 1 hr 0 min 6 sec) 
Heartbeat CPU 4 instructions: 190000001 cycles: 152510676 heartbeat IPC: 1.12629 cumulative IPC: 1.136 (Simulation time: 1 hr 1 min 4 sec) 
Heartbeat CPU 6 instructions: 100000000 cycles: 152706831 heartbeat IPC: 0.554232 cumulative IPC: 0.532837 (Simulation time: 1 hr 1 min 8 sec) 
Heartbeat CPU 3 instructions: 90000003 cycles: 153463424 heartbeat IPC: 0.430934 cumulative IPC: 0.410342 (Simulation time: 1 hr 1 min 23 sec) 
Heartbeat CPU 2 instructions: 260000000 cycles: 155951929 heartbeat IPC: 1.31814 cumulative IPC: 1.60805 (Simulation time: 1 hr 2 min 21 sec) 
Heartbeat CPU 4 instructions: 200000000 cycles: 161406175 heartbeat IPC: 1.12416 cumulative IPC: 1.13529 (Simulation time: 1 hr 4 min 39 sec) 
Heartbeat CPU 5 instructions: 150000000 cycles: 161799880 heartbeat IPC: 0.847885 cumulative IPC: 0.794784 (Simulation time: 1 hr 4 min 50 sec) 
Heartbeat CPU 2 instructions: 270000001 cycles: 162508522 heartbeat IPC: 1.52518 cumulative IPC: 1.6044 (Simulation time: 1 hr 5 min 9 sec) 
Heartbeat CPU 2 instructions: 280000000 cycles: 168623397 heartbeat IPC: 1.63536 cumulative IPC: 1.60562 (Simulation time: 1 hr 7 min 25 sec) 
Heartbeat CPU 4 instructions: 210000003 cycles: 170248803 heartbeat IPC: 1.13089 cumulative IPC: 1.13504 (Simulation time: 1 hr 7 min 59 sec) 
Heartbeat CPU 6 instructions: 110000000 cycles: 170558146 heartbeat IPC: 0.560183 cumulative IPC: 0.53595 (Simulation time: 1 hr 8 min 6 sec) 
Heartbeat CPU 0 instructions: 60000000 cycles: 170757778 heartbeat IPC: 0.307122 cumulative IPC: 0.249367 (Simulation time: 1 hr 8 min 10 sec) 
Heartbeat CPU 1 instructions: 90000000 cycles: 173928650 heartbeat IPC: 0.391931 cumulative IPC: 0.369615 (Simulation time: 1 hr 9 min 15 sec) 
Heartbeat CPU 5 instructions: 160000000 cycles: 174484416 heartbeat IPC: 0.788361 cumulative IPC: 0.794277 (Simulation time: 1 hr 9 min 26 sec) 
Heartbeat CPU 2 instructions: 290000000 cycles: 174697489 heartbeat IPC: 1.64634 cumulative IPC: 1.60716 (Simulation time: 1 hr 9 min 30 sec) 
Heartbeat CPU 7 instructions: 60000000 cycles: 176020378 heartbeat IPC: 0.259094 cumulative IPC: 0.246451 (Simulation time: 1 hr 9 min 56 sec) 
Heartbeat CPU 3 instructions: 100000000 cycles: 176469865 heartbeat IPC: 0.434661 cumulative IPC: 0.413779 (Simulation time: 1 hr 10 min 5 sec) 
Heartbeat CPU 4 instructions: 220000000 cycles: 179132528 heartbeat IPC: 1.12565 cumulative IPC: 1.13454 (Simulation time: 1 hr 10 min 57 sec) 
Heartbeat CPU 2 instructions: 300000000 cycles: 180712449 heartbeat IPC: 1.66252 cumulative IPC: 1.60915 (Simulation time: 1 hr 11 min 29 sec) 
Heartbeat CPU 2 instructions: 310000003 cycles: 186735530 heartbeat IPC: 1.66028 cumulative IPC: 1.61093 (Simulation time: 1 hr 13 min 31 sec) 
Heartbeat CPU 5 instructions: 170000000 cycles: 187080250 heartbeat IPC: 0.793913 cumulative IPC: 0.794251 (Simulation time: 1 hr 13 min 38 sec) 
Heartbeat CPU 4 instructions: 230000001 cycles: 187985899 heartbeat IPC: 1.12951 cumulative IPC: 1.13428 (Simulation time: 1 hr 13 min 58 sec) 
Heartbeat CPU 6 instructions: 120000000 cycles: 188749820 heartbeat IPC: 0.549702 cumulative IPC: 0.537379 (Simulation time: 1 hr 14 min 15 sec) 
Heartbeat CPU 2 instructions: 320000000 cycles: 192809071 heartbeat IPC: 1.64649 cumulative IPC: 1.61214 (Simulation time: 1 hr 15 min 47 sec) 
Heartbeat CPU 4 instructions: 240000000 cycles: 196875716 heartbeat IPC: 1.12488 cumulative IPC: 1.13383 (Simulation time: 1 hr 17 min 15 sec) 
Heartbeat CPU 5 instructions: 180000000 cycles: 198591617 heartbeat IPC: 0.868707 cumulative IPC: 0.798887 (Simulation time: 1 hr 17 min 54 sec) 
Heartbeat CPU 2 instructions: 330000000 cycles: 198907824 heartbeat IPC: 1.63968 cumulative IPC: 1.61305 (Simulation time: 1 hr 18 min 1 sec) 
Heartbeat CPU 3 instructions: 110000002 cycles: 198945959 heartbeat IPC: 0.444917 cumulative IPC: 0.417558 (Simulation time: 1 hr 18 min 2 sec) 
Finished CPU 6 instructions: 100000000 cycles: 185404877 cumulative IPC: 0.53936 (Simulation time: 1 hr 18 min 6 sec) 
Heartbeat CPU 1 instructions: 100000000 cycles: 199432872 heartbeat IPC: 0.392092 cumulative IPC: 0.372701 (Simulation time: 1 hr 18 min 12 sec) 
Heartbeat CPU 2 instructions: 340000000 cycles: 205093344 heartbeat IPC: 1.61668 cumulative IPC: 1.61316 (Simulation time: 1 hr 20 min 10 sec) 
Heartbeat CPU 4 instructions: 250000003 cycles: 205751508 heartbeat IPC: 1.12666 cumulative IPC: 1.1335 (Simulation time: 1 hr 20 min 24 sec) 
Heartbeat CPU 6 instructions: 130000003 cycles: 206382379 heartbeat IPC: 0.567133 cumulative IPC: 0.540102 (Simulation time: 1 hr 20 min 39 sec) 
Heartbeat CPU 0 instructions: 70000002 cycles: 210823287 heartbeat IPC: 0.249591 cumulative IPC: 0.249412 (Simulation time: 1 hr 22 min 29 sec) 
Heartbeat CPU 2 instructions: 350000000 cycles: 211244610 heartbeat IPC: 1.62568 cumulative IPC: 1.61355 (Simulation time: 1 hr 22 min 38 sec) 
Heartbeat CPU 5 instructions: 190000003 cycles: 212375682 heartbeat IPC: 0.725476 cumulative IPC: 0.793793 (Simulation time: 1 hr 23 min 1 sec) 
Heartbeat CPU 4 instructions: 260000000 cycles: 214608055 heartbeat IPC: 1.12911 cumulative IPC: 1.1333 (Simulation time: 1 hr 23 min 46 sec) 
Heartbeat CPU 2 instructions: 360000000 cycles: 219176604 heartbeat IPC: 1.26072 cumulative IPC: 1.59993 (Simulation time: 1 hr 25 min 10 sec) 
Heartbeat CPU 3 instructions: 120000000 cycles: 222029531 heartbeat IPC: 0.433208 cumulative IPC: 0.419292 (Simulation time: 1 hr 26 min 10 sec) 
Heartbeat CPU 4 instructions: 270000001 cycles: 223486812 heartbeat IPC: 1.12628 cumulative IPC: 1.133 (Simulation time: 1 hr 26 min 37 sec) 
Heartbeat CPU 6 instructions: 140000000 cycles: 224801548 heartbeat IPC: 0.542912 cumulative IPC: 0.540347 (Simulation time: 1 hr 27 min 5 sec) 
Heartbeat CPU 7 instructions: 70000002 cycles: 225176550 heartbeat IPC: 0.203433 cumulative IPC: 0.236451 (Simulation time: 1 hr 27 min 12 sec) 
Heartbeat CPU 5 instructions: 200000000 cycles: 226049827 heartbeat IPC: 0.731307 cumulative IPC: 0.789769 (Simulation time: 1 hr 27 min 30 sec) 
Heartbeat CPU 1 instructions: 110000002 cycles: 226060969 heartbeat IPC: 0.375543 cumulative IPC: 0.373058 (Simulation time: 1 hr 27 min 31 sec) 
Heartbeat CPU 2 instructions: 370000003 cycles: 226564200 heartbeat IPC: 1.35362 cumulative IPC: 1.59138 (Simulation time: 1 hr 27 min 41 sec) 
Heartbeat CPU 4 instructions: 280000000 cycles: 232374267 heartbeat IPC: 1.12518 cumulative IPC: 1.13269 (Simulation time: 1 hr 29 min 41 sec) 
Heartbeat CPU 2 instructions: 380000000 cycles: 232660468 heartbeat IPC: 1.64035 cumulative IPC: 1.59275 (Simulation time: 1 hr 29 min 46 sec) 
Heartbeat CPU 2 instructions: 390000000 cycles: 238766031 heartbeat IPC: 1.63785 cumulative IPC: 1.59397 (Simulation time: 1 hr 31 min 40 sec) 
Heartbeat CPU 4 instructions: 290000001 cycles: 241257528 heartbeat IPC: 1.12571 cumulative IPC: 1.13241 (Simulation time: 1 hr 32 min 25 sec) 
Heartbeat CPU 2 instructions: 400000000 cycles: 244866981 heartbeat IPC: 1.63909 cumulative IPC: 1.59516 (Simulation time: 1 hr 33 min 32 sec) 
Heartbeat CPU 5 instructions: 210000003 cycles: 247378928 heartbeat IPC: 0.468843 cumulative IPC: 0.760474 (Simulation time: 1 hr 34 min 24 sec) 
Heartbeat CPU 6 instructions: 150000001 cycles: 247537765 heartbeat IPC: 0.439827 cumulative IPC: 0.530573 (Simulation time: 1 hr 34 min 31 sec) 
Heartbeat CPU 4 instructions: 300000000 cycles: 250164722 heartbeat IPC: 1.12269 cumulative IPC: 1.13205 (Simulation time: 1 hr 36 min 23 sec) 
Heartbeat CPU 2 instructions: 410000003 cycles: 250956685 heartbeat IPC: 1.64212 cumulative IPC: 1.59637 (Simulation time: 1 hr 36 min 58 sec) 
Heartbeat CPU 3 instructions: 130000001 cycles: 251633650 heartbeat IPC: 0.337791 cumulative IPC: 0.409151 (Simulation time: 1 hr 37 min 29 sec) 
Heartbeat CPU 2 instructions: 420000000 cycles: 257024767 heartbeat IPC: 1.64797 cumulative IPC: 1.59765 (Simulation time: 1 hr 40 min 28 sec) 
Finished CPU 3 instructions: 100000003 cycles: 244341001 cumulative IPC: 0.409264 (Simulation time: 1 hr 40 min 51 sec) 
Heartbeat CPU 4 instructions: 310000001 cycles: 259014808 heartbeat IPC: 1.12993 cumulative IPC: 1.13197 (Simulation time: 1 hr 41 min 12 sec) 
Heartbeat CPU 5 instructions: 220000000 cycles: 259067028 heartbeat IPC: 0.855571 cumulative IPC: 0.765005 (Simulation time: 1 hr 41 min 13 sec) 
Heartbeat CPU 1 instructions: 120000000 cycles: 259302591 heartbeat IPC: 0.300828 cumulative IPC: 0.363281 (Simulation time: 1 hr 41 min 18 sec) 
Heartbeat CPU 0 instructions: 80000000 cycles: 261833061 heartbeat IPC: 0.196041 cumulative IPC: 0.23844 (Simulation time: 1 hr 42 min 15 sec) 
Heartbeat CPU 2 instructions: 430000003 cycles: 263141133 heartbeat IPC: 1.63496 cumulative IPC: 1.59857 (Simulation time: 1 hr 42 min 45 sec) 
Heartbeat CPU 6 instructions: 160000000 cycles: 266671824 heartbeat IPC: 0.522628 cumulative IPC: 0.529972 (Simulation time: 1 hr 44 min 10 sec) 
Heartbeat CPU 4 instructions: 320000000 cycles: 267900855 heartbeat IPC: 1.12536 cumulative IPC: 1.13174 (Simulation time: 1 hr 44 min 37 sec) 
Heartbeat CPU 2 instructions: 440000000 cycles: 269249184 heartbeat IPC: 1.63718 cumulative IPC: 1.59949 (Simulation time: 1 hr 45 min 6 sec) 
Heartbeat CPU 5 instructions: 230000000 cycles: 269388800 heartbeat IPC: 0.968826 cumulative IPC: 0.773233 (Simulation time: 1 hr 45 min 9 sec) 
Heartbeat CPU 3 instructions: 140000000 cycles: 275027791 heartbeat IPC: 0.427457 cumulative IPC: 0.41079 (Simulation time: 1 hr 47 min 19 sec) 
Heartbeat CPU 2 instructions: 450000001 cycles: 275366755 heartbeat IPC: 1.63464 cumulative IPC: 1.60031 (Simulation time: 1 hr 47 min 27 sec) 
Heartbeat CPU 4 instructions: 330000003 cycles: 276748671 heartbeat IPC: 1.13022 cumulative IPC: 1.13169 (Simulation time: 1 hr 48 min 0 sec) 
Heartbeat CPU 7 instructions: 80000000 cycles: 277292281 heartbeat IPC: 0.191881 cumulative IPC: 0.227638 (Simulation time: 1 hr 48 min 13 sec) 
Heartbeat CPU 5 instructions: 240000000 cycles: 279266668 heartbeat IPC: 1.01236 cumulative IPC: 0.782128 (Simulation time: 1 hr 49 min 0 sec) 
Heartbeat CPU 2 instructions: 460000000 cycles: 281459462 heartbeat IPC: 1.64131 cumulative IPC: 1.60124 (Simulation time: 1 hr 49 min 51 sec) 
Heartbeat CPU 6 instructions: 170000000 cycles: 284379957 heartbeat IPC: 0.564712 cumulative IPC: 0.532245 (Simulation time: 1 hr 50 min 58 sec) 
Heartbeat CPU 1 instructions: 130000000 cycles: 284713246 heartbeat IPC: 0.393536 cumulative IPC: 0.366118 (Simulation time: 1 hr 51 min 5 sec) 
Heartbeat CPU 4 instructions: 340000000 cycles: 285570321 heartbeat IPC: 1.13357 cumulative IPC: 1.13175 (Simulation time: 1 hr 51 min 25 sec) 
Finished CPU 1 instructions: 100000002 cycles: 273021171 cumulative IPC: 0.366272 (Simulation time: 1 hr 51 min 51 sec) 
Heartbeat CPU 2 instructions: 470000000 cycles: 287548240 heartbeat IPC: 1.64237 cumulative IPC: 1.60216 (Simulation time: 1 hr 52 min 8 sec) 
Heartbeat CPU 5 instructions: 250000003 cycles: 290368290 heartbeat IPC: 0.90077 cumulative IPC: 0.786889 (Simulation time: 1 hr 53 min 9 sec) 
Heartbeat CPU 0 instructions: 90000000 cycles: 291891164 heartbeat IPC: 0.332689 cumulative IPC: 0.248624 (Simulation time: 1 hr 53 min 41 sec) 
Heartbeat CPU 2 instructions: 480000000 cycles: 293666346 heartbeat IPC: 1.63449 cumulative IPC: 1.60287 (Simulation time: 1 hr 54 min 18 sec) 
Heartbeat CPU 4 instructions: 350000003 cycles: 294338940 heartbeat IPC: 1.14043 cumulative IPC: 1.13202 (Simulation time: 1 hr 54 min 32 sec) 
Heartbeat CPU 3 instructions: 150000002 cycles: 297868469 heartbeat IPC: 0.437815 cumulative IPC: 0.412962 (Simulation time: 1 hr 55 min 46 sec) 
Heartbeat CPU 2 instructions: 490000003 cycles: 299790557 heartbeat IPC: 1.63286 cumulative IPC: 1.60351 (Simulation time: 1 hr 56 min 28 sec) 
Heartbeat CPU 6 instructions: 180000000 cycles: 302430461 heartbeat IPC: 0.554001 cumulative IPC: 0.533605 (Simulation time: 1 hr 57 min 20 sec) 
Heartbeat CPU 5 instructions: 260000000 cycles: 302867398 heartbeat IPC: 0.800057 cumulative IPC: 0.787458 (Simulation time: 1 hr 57 min 29 sec) 
Heartbeat CPU 4 instructions: 360000000 cycles: 303087582 heartbeat IPC: 1.14303 cumulative IPC: 1.13235 (Simulation time: 1 hr 57 min 34 sec) 
Heartbeat CPU 2 instructions: 500000000 cycles: 306711633 heartbeat IPC: 1.44486 cumulative IPC: 1.59976 (Simulation time: 1 hr 58 min 49 sec) 
Heartbeat CPU 1 instructions: 140000000 cycles: 310181463 heartbeat IPC: 0.392646 cumulative IPC: 0.368397 (Simulation time: 2 hr 0 min 7 sec) 
Heartbeat CPU 4 instructions: 370000001 cycles: 311851642 heartbeat IPC: 1.14102 cumulative IPC: 1.13261 (Simulation time: 2 hr 0 min 45 sec) 
Heartbeat CPU 2 instructions: 510000002 cycles: 312794099 heartbeat IPC: 1.64407 cumulative IPC: 1.60066 (Simulation time: 2 hr 1 min 6 sec) 
Heartbeat CPU 5 instructions: 270000001 cycles: 315333656 heartbeat IPC: 0.802165 cumulative IPC: 0.788066 (Simulation time: 2 hr 2 min 1 sec) 
Heartbeat CPU 2 instructions: 520000000 cycles: 318837237 heartbeat IPC: 1.65477 cumulative IPC: 1.60173 (Simulation time: 2 hr 3 min 19 sec) 
Heartbeat CPU 7 instructions: 90000000 cycles: 319526117 heartbeat IPC: 0.236777 cumulative IPC: 0.228901 (Simulation time: 2 hr 3 min 34 sec) 
Heartbeat CPU 6 instructions: 190000002 cycles: 320132362 heartbeat IPC: 0.564911 cumulative IPC: 0.535414 (Simulation time: 2 hr 3 min 47 sec) 
Heartbeat CPU 4 instructions: 380000000 cycles: 320672159 heartbeat IPC: 1.13372 cumulative IPC: 1.13264 (Simulation time: 2 hr 3 min 59 sec) 
Heartbeat CPU 3 instructions: 160000000 cycles: 320849014 heartbeat IPC: 0.435151 cumulative IPC: 0.414622 (Simulation time: 2 hr 4 min 2 sec) 
Heartbeat CPU 2 instructions: 530000001 cycles: 325407744 heartbeat IPC: 1.52195 cumulative IPC: 1.60005 (Simulation time: 2 hr 5 min 41 sec) 
Heartbeat CPU 5 instructions: 280000000 cycles: 326923610 heartbeat IPC: 0.862816 cumulative IPC: 0.790832 (Simulation time: 2 hr 6 min 10 sec) 
Heartbeat CPU 4 instructions: 390000000 cycles: 329577013 heartbeat IPC: 1.12298 cumulative IPC: 1.13237 (Simulation time: 2 hr 6 min 59 sec) 
Heartbeat CPU 0 instructions: 100000000 cycles: 329987700 heartbeat IPC: 0.262491 cumulative IPC: 0.250294 (Simulation time: 2 hr 7 min 7 sec) 
Heartbeat CPU 2 instructions: 540000000 cycles: 331312177 heartbeat IPC: 1.69364 cumulative IPC: 1.60179 (Simulation time: 2 hr 7 min 32 sec) 
Heartbeat CPU 1 instructions: 150000003 cycles: 336128223 heartbeat IPC: 0.385405 cumulative IPC: 0.369766 (Simulation time: 2 hr 9 min 6 sec) 
Heartbeat CPU 2 instructions: 550000001 cycles: 337225739 heartbeat IPC: 1.69103 cumulative IPC: 1.60342 (Simulation time: 2 hr 9 min 28 sec) 
Heartbeat CPU 6 instructions: 200000000 cycles: 338225847 heartbeat IPC: 0.552685 cumulative IPC: 0.536377 (Simulation time: 2 hr 9 min 46 sec) 
Heartbeat CPU 4 instructions: 400000000 cycles: 338387923 heartbeat IPC: 1.13496 cumulative IPC: 1.13244 (Simulation time: 2 hr 9 min 49 sec) 
Heartbeat CPU 5 instructions: 290000002 cycles: 340218917 heartbeat IPC: 0.752145 cumulative IPC: 0.789257 (Simulation time: 2 hr 10 min 23 sec) 
Heartbeat CPU 2 instructions: 560000000 cycles: 343866269 heartbeat IPC: 1.5059 cumulative IPC: 1.60146 (Simulation time: 2 hr 11 min 34 sec) 
Heartbeat CPU 3 instructions: 170000001 cycles: 344675937 heartbeat IPC: 0.419693 cumulative IPC: 0.414987 (Simulation time: 2 hr 11 min 50 sec) 
Heartbeat CPU 4 instructions: 410000000 cycles: 347217127 heartbeat IPC: 1.1326 cumulative IPC: 1.13244 (Simulation time: 2 hr 12 min 42 sec) 
Heartbeat CPU 2 instructions: 570000001 cycles: 350572246 heartbeat IPC: 1.49121 cumulative IPC: 1.59927 (Simulation time: 2 hr 13 min 48 sec) 
Heartbeat CPU 5 instructions: 300000000 cycles: 353619566 heartbeat IPC: 0.746232 cumulative IPC: 0.787561 (Simulation time: 2 hr 14 min 48 sec) 
Heartbeat CPU 4 instructions: 420000000 cycles: 356034839 heartbeat IPC: 1.13408 cumulative IPC: 1.13249 (Simulation time: 2 hr 15 min 36 sec) 
Heartbeat CPU 6 instructions: 210000002 cycles: 356124114 heartbeat IPC: 0.558713 cumulative IPC: 0.537544 (Simulation time: 2 hr 15 min 38 sec) 
Heartbeat CPU 2 instructions: 580000000 cycles: 357258358 heartbeat IPC: 1.49564 cumulative IPC: 1.59725 (Simulation time: 2 hr 16 min 1 sec) 
Heartbeat CPU 7 instructions: 100000000 cycles: 357295934 heartbeat IPC: 0.264762 cumulative IPC: 0.232843 (Simulation time: 2 hr 16 min 1 sec) 
Heartbeat CPU 1 instructions: 160000000 cycles: 362602066 heartbeat IPC: 0.377731 cumulative IPC: 0.37037 (Simulation time: 2 hr 17 min 41 sec) 
Heartbeat CPU 2 instructions: 590000000 cycles: 363339926 heartbeat IPC: 1.64431 cumulative IPC: 1.59807 (Simulation time: 2 hr 17 min 54 sec) 
Heartbeat CPU 4 instructions: 430000002 cycles: 364917056 heartbeat IPC: 1.12585 cumulative IPC: 1.13232 (Simulation time: 2 hr 18 min 21 sec) 
Heartbeat CPU 2 instructions: 600000000 cycles: 370323577 heartbeat IPC: 1.43192 cumulative IPC: 1.59481 (Simulation time: 2 hr 19 min 46 sec) 
Heartbeat CPU 3 instructions: 180000000 cycles: 372648606 heartbeat IPC: 0.357492 cumulative IPC: 0.410507 (Simulation time: 2 hr 20 min 23 sec) 
Heartbeat CPU 4 instructions: 440000000 cycles: 373476807 heartbeat IPC: 1.16826 cumulative IPC: 1.13317 (Simulation time: 2 hr 20 min 37 sec) 
Heartbeat CPU 5 instructions: 310000001 cycles: 377020982 heartbeat IPC: 0.427325 cumulative IPC: 0.764357 (Simulation time: 2 hr 21 min 40 sec) 
Heartbeat CPU 2 instructions: 610000003 cycles: 377323810 heartbeat IPC: 1.42852 cumulative IPC: 1.59161 (Simulation time: 2 hr 21 min 46 sec) 
Heartbeat CPU 0 instructions: 110000002 cycles: 379027014 heartbeat IPC: 0.203918 cumulative IPC: 0.244069 (Simulation time: 2 hr 22 min 20 sec) 
Heartbeat CPU 6 instructions: 220000000 cycles: 379032606 heartbeat IPC: 0.436519 cumulative IPC: 0.531209 (Simulation time: 2 hr 22 min 20 sec) 
Heartbeat CPU 4 instructions: 450000001 cycles: 382009684 heartbeat IPC: 1.17194 cumulative IPC: 1.13407 (Simulation time: 2 hr 23 min 19 sec) 
Heartbeat CPU 2 instructions: 620000000 cycles: 383340951 heartbeat IPC: 1.66192 cumulative IPC: 1.59276 (Simulation time: 2 hr 23 min 44 sec) 
Heartbeat CPU 5 instructions: 320000000 cycles: 388276907 heartbeat IPC: 0.888421 cumulative IPC: 0.768085 (Simulation time: 2 hr 25 min 23 sec) 
Heartbeat CPU 2 instructions: 630000001 cycles: 389384216 heartbeat IPC: 1.65473 cumulative IPC: 1.59375 (Simulation time: 2 hr 25 min 48 sec) 
Heartbeat CPU 4 instructions: 460000000 cycles: 390550766 heartbeat IPC: 1.17081 cumulative IPC: 1.1349 (Simulation time: 2 hr 26 min 14 sec) 
Heartbeat CPU 2 instructions: 640000000 cycles: 395460855 heartbeat IPC: 1.64565 cumulative IPC: 1.59458 (Simulation time: 2 hr 28 min 0 sec) 
Heartbeat CPU 1 instructions: 170000001 cycles: 395609288 heartbeat IPC: 0.302964 cumulative IPC: 0.364544 (Simulation time: 2 hr 28 min 3 sec) 
Heartbeat CPU 6 instructions: 230000002 cycles: 398113477 heartbeat IPC: 0.524085 cumulative IPC: 0.530855 (Simulation time: 2 hr 28 min 55 sec) 
Heartbeat CPU 5 instructions: 330000002 cycles: 398797698 heartbeat IPC: 0.950499 cumulative IPC: 0.773069 (Simulation time: 2 hr 29 min 9 sec) 
Heartbeat CPU 3 instructions: 190000001 cycles: 399045853 heartbeat IPC: 0.378827 cumulative IPC: 0.408336 (Simulation time: 2 hr 29 min 14 sec) 
Heartbeat CPU 2 instructions: 650000003 cycles: 402157034 heartbeat IPC: 1.49339 cumulative IPC: 1.59284 (Simulation time: 2 hr 30 min 17 sec) 
Heartbeat CPU 4 instructions: 470000000 cycles: 402313940 heartbeat IPC: 0.850111 cumulative IPC: 1.12628 (Simulation time: 2 hr 30 min 20 sec) 
Heartbeat CPU 7 instructions: 110000002 cycles: 405268819 heartbeat IPC: 0.208451 cumulative IPC: 0.229854 (Simulation time: 2 hr 31 min 21 sec) 
Heartbeat CPU 2 instructions: 660000000 cycles: 408280429 heartbeat IPC: 1.63308 cumulative IPC: 1.59346 (Simulation time: 2 hr 32 min 26 sec) 
Heartbeat CPU 5 instructions: 340000000 cycles: 408649829 heartbeat IPC: 1.01501 cumulative IPC: 0.779104 (Simulation time: 2 hr 32 min 34 sec) 
Heartbeat CPU 4 instructions: 480000000 cycles: 412002206 heartbeat IPC: 1.03218 cumulative IPC: 1.12399 (Simulation time: 2 hr 33 min 42 sec) 
Heartbeat CPU 2 instructions: 670000001 cycles: 414356327 heartbeat IPC: 1.64585 cumulative IPC: 1.59426 (Simulation time: 2 hr 34 min 30 sec) 
Heartbeat CPU 6 instructions: 240000000 cycles: 416564714 heartbeat IPC: 0.541969 cumulative IPC: 0.531365 (Simulation time: 2 hr 35 min 17 sec) 
Heartbeat CPU 5 instructions: 350000002 cycles: 418925386 heartbeat IPC: 0.973183 cumulative IPC: 0.784026 (Simulation time: 2 hr 36 min 5 sec) 
Heartbeat CPU 2 instructions: 680000000 cycles: 420422882 heartbeat IPC: 1.64838 cumulative IPC: 1.59506 (Simulation time: 2 hr 36 min 37 sec) 
Heartbeat CPU 4 instructions: 490000000 cycles: 420861064 heartbeat IPC: 1.12881 cumulative IPC: 1.1241 (Simulation time: 2 hr 36 min 46 sec) 
Heartbeat CPU 0 instructions: 120000000 cycles: 421452348 heartbeat IPC: 0.235708 cumulative IPC: 0.243199 (Simulation time: 2 hr 36 min 59 sec) 
Heartbeat CPU 1 instructions: 180000000 cycles: 422161743 heartbeat IPC: 0.376613 cumulative IPC: 0.365329 (Simulation time: 2 hr 37 min 13 sec) 
Heartbeat CPU 3 instructions: 200000000 cycles: 422581624 heartbeat IPC: 0.424885 cumulative IPC: 0.409289 (Simulation time: 2 hr 37 min 22 sec) 
Finished CPU 0 instructions: 100000000 cycles: 410442435 cumulative IPC: 0.24364 (Simulation time: 2 hr 37 min 53 sec) 
Heartbeat CPU 2 instructions: 690000002 cycles: 426546122 heartbeat IPC: 1.63312 cumulative IPC: 1.59563 (Simulation time: 2 hr 38 min 38 sec) 
Heartbeat CPU 4 instructions: 500000000 cycles: 429772622 heartbeat IPC: 1.12214 cumulative IPC: 1.12406 (Simulation time: 2 hr 39 min 42 sec) 
Heartbeat CPU 5 instructions: 360000000 cycles: 430586752 heartbeat IPC: 0.857532 cumulative IPC: 0.786082 (Simulation time: 2 hr 39 min 59 sec) 
Heartbeat CPU 2 instructions: 700000000 cycles: 432611661 heartbeat IPC: 1.64866 cumulative IPC: 1.59639 (Simulation time: 2 hr 40 min 42 sec) 
Heartbeat CPU 6 instructions: 250000003 cycles: 434499738 heartbeat IPC: 0.557568 cumulative IPC: 0.532481 (Simulation time: 2 hr 41 min 23 sec) 
Heartbeat CPU 7 instructions: 120000000 cycles: 438508648 heartbeat IPC: 0.300844 cumulative IPC: 0.235409 (Simulation time: 2 hr 42 min 44 sec) 
Finished CPU 7 instructions: 100000000 cycles: 424792223 cumulative IPC: 0.235409 (Simulation time: 2 hr 42 min 44 sec) 

CPU 0 Branch Prediction Accuracy: 98.5307% MPKI: 1.67004

CPU 1 Branch Prediction Accuracy: 99.975% MPKI: 0.00409783

CPU 2 Branch Prediction Accuracy: 97.4583% MPKI: 3.40405

CPU 3 Branch Prediction Accuracy: 99.1858% MPKI: 0.0524106

CPU 4 Branch Prediction Accuracy: 91.8102% MPKI: 11.3051

CPU 5 Branch Prediction Accuracy: 97.4209% MPKI: 2.99774

CPU 6 Branch Prediction Accuracy: 99.9706% MPKI: 0.00715422

CPU 7 Branch Prediction Accuracy: 98.5852% MPKI: 1.39981

ChampSim completed all CPUs

Total Simulation Statistics (not including warmup)

CPU 0 cumulative IPC: 0.244298 instructions: 103775998 cycles: 424792223
L1D TOTAL     ACCESS:   49680250  HIT:   44425771  MISS:    5254479
L1D LOAD      ACCESS:   24975124  HIT:   19969736  MISS:    5005388
L1D RFO       ACCESS:   24705126  HIT:   24456035  MISS:     249091
L1D PREFETCH  ACCESS:          0  HIT:          0  MISS:          0
L1D WRITEBACK ACCESS:          0  HIT:          0  MISS:          0
L1I TOTAL     ACCESS:   34159339  HIT:   34159339  MISS:          0
L1I LOAD      ACCESS:   34159339  HIT:   34159339  MISS:          0
L1I RFO       ACCESS:          0  HIT:          0  MISS:          0
L1I PREFETCH  ACCESS:          0  HIT:          0  MISS:          0
L1I WRITEBACK ACCESS:          0  HIT:          0  MISS:          0
L2C TOTAL     ACCESS:    5839246  HIT:     722275  MISS:    5116971
L2C LOAD      ACCESS:    5005364  HIT:     132164  MISS:    4873200
L2C RFO       ACCESS:     249072  HIT:       8855  MISS:     240217
L2C PREFETCH  ACCESS:          0  HIT:          0  MISS:          0
L2C WRITEBACK ACCESS:     584810  HIT:     581256  MISS:       3554
LLC TOTAL     ACCESS:    5596669  HIT:    2904975  MISS:    2691694
LLC LOAD      ACCESS:    4873202  HIT:    2422082  MISS:    2451120
LLC RFO       ACCESS:     240217  HIT:        540  MISS:     239677
LLC PREFETCH  ACCESS:          0  HIT:          0  MISS:          0
LLC WRITEBACK ACCESS:     483250  HIT:     482353  MISS:        897

CPU 1 cumulative IPC: 0.366406 instructions: 155646344 cycles: 424792223
L1D TOTAL     ACCESS:   32067709  HIT:   30007920  MISS:    2059789
L1D LOAD      ACCESS:   21145373  HIT:   19087636  MISS:    2057737
L1D RFO       ACCESS:   10922336  HIT:   10920284  MISS:       2052
L1D PREFETCH  ACCESS:          0  HIT:          0  MISS:          0
L1D WRITEBACK ACCESS:          0  HIT:          0  MISS:          0
L1I TOTAL     ACCESS:   31073640  HIT:   31073640  MISS:          0
L1I LOAD      ACCESS:   31073640  HIT:   31073640  MISS:          0
L1I RFO       ACCESS:          0  HIT:          0  MISS:          0
L1I PREFETCH  ACCESS:          0  HIT:          0  MISS:          0
L1I WRITEBACK ACCESS:          0  HIT:          0  MISS:          0
L2C TOTAL     ACCESS:    3427491  HIT:    1415513  MISS:    2011978
L2C LOAD      ACCESS:    2057737  HIT:      47324  MISS:    2010413
L2C RFO       ACCESS:       2052  HIT:        487  MISS:       1565
L2C PREFETCH  ACCESS:          0  HIT:          0  MISS:          0
L2C WRITEBACK ACCESS:    1367702  HIT:    1367702  MISS:          0
LLC TOTAL     ACCESS:    3378508  HIT:    2012155  MISS:    1366353
LLC LOAD      ACCESS:    2010413  HIT:     644142  MISS:    1366271
LLC RFO       ACCESS:       1565  HIT:       1562  MISS:          3
LLC PREFETCH  ACCESS:          0  HIT:          0  MISS:          0
LLC WRITEBACK ACCESS:    1366530  HIT:    1366451  MISS:         79

CPU 2 cumulative IPC: 1.59681 instructions: 678314543 cycles: 424792223
L1D TOTAL     ACCESS:  199291139  HIT:  199291027  MISS:        112
L1D LOAD      ACCESS:   87213811  HIT:   87213761  MISS:         50
L1D RFO       ACCESS:  112077328  HIT:  112077266  MISS:         62
L1D PREFETCH  ACCESS:          0  HIT:          0  MISS:          0
L1D WRITEBACK ACCESS:          0  HIT:          0  MISS:          0
L1I TOTAL     ACCESS:  148514353  HIT:  148497990  MISS:      16363
L1I LOAD      ACCESS:  148514353  HIT:  148497990  MISS:      16363
L1I RFO       ACCESS:          0  HIT:          0  MISS:          0
L1I PREFETCH  ACCESS:          0  HIT:          0  MISS:          0
L1I WRITEBACK ACCESS:          0  HIT:          0  MISS:          0
L2C TOTAL     ACCESS:      16475  HIT:      15333  MISS:       1142
L2C LOAD      ACCESS:      16413  HIT:      15333  MISS:       1080
L2C RFO       ACCESS:         62  HIT:          0  MISS:         62
L2C PREFETCH  ACCESS:          0  HIT:          0  MISS:          0
L2C WRITEBACK ACCESS:          0  HIT:          0  MISS:          0
LLC TOTAL     ACCESS:       1142  HIT:          0  MISS:       1142
LLC LOAD      ACCESS:       1080  HIT:          0  MISS:       1080
LLC RFO       ACCESS:         62  HIT:          0  MISS:         62
LLC PREFETCH  ACCESS:          0  HIT:          0  MISS:          0
LLC WRITEBACK ACCESS:          0  HIT:          0  MISS:          0

CPU 3 cumulative IPC: 0.410432 instructions: 174348222 cycles: 424792223
L1D TOTAL     ACCESS:   49300319  HIT:   46364515  MISS:    2935804
L1D LOAD      ACCESS:   40727212  HIT:   37791408  MISS:    2935804
L1D RFO       ACCESS:    8573107  HIT:    8573107  MISS:          0
L1D PREFETCH  ACCESS:          0  HIT:          0  MISS:          0
L1D WRITEBACK ACCESS:          0  HIT:          0  MISS:          0
L1I TOTAL     ACCESS:   38526712  HIT:   38526712  MISS:          0
L1I LOAD      ACCESS:   38526712  HIT:   38526712  MISS:          0
L1I RFO       ACCESS:          0  HIT:          0  MISS:          0
L1I PREFETCH  ACCESS:          0  HIT:          0  MISS:          0
L1I WRITEBACK ACCESS:          0  HIT:          0  MISS:          0
L2C TOTAL     ACCESS:    3846217  HIT:     990590  MISS:    2855627
L2C LOAD      ACCESS:    2935804  HIT:      80629  MISS:    2855175
L2C RFO       ACCESS:          0  HIT:          0  MISS:          0
L2C PREFETCH  ACCESS:          0  HIT:          0  MISS:          0
L2C WRITEBACK ACCESS:     910413  HIT:     909961  MISS:        452
LLC TOTAL     ACCESS:    3760869  HIT:     905974  MISS:    2854895
LLC LOAD      ACCESS:    2855175  HIT:        438  MISS:    2854737
LLC RFO       ACCESS:          0  HIT:          0  MISS:          0
LLC PREFETCH  ACCESS:          0  HIT:          0  MISS:          0
LLC WRITEBACK ACCESS:     905694  HIT:     905536  MISS:        158

CPU 4 cumulative IPC: 1.12386 instructions: 477405783 cycles: 424792223
L1D TOTAL     ACCESS:   83232933  HIT:   83124831  MISS:     108102
L1D LOAD      ACCESS:   66302379  HIT:   66290549  MISS:      11830
L1D RFO       ACCESS:   16930554  HIT:   16834282  MISS:      96272
L1D PREFETCH  ACCESS:          0  HIT:          0  MISS:          0
L1D WRITEBACK ACCESS:          0  HIT:          0  MISS:          0
L1I TOTAL     ACCESS:  117836837  HIT:  117836837  MISS:          0
L1I LOAD      ACCESS:  117836837  HIT:  117836837  MISS:          0
L1I RFO       ACCESS:          0  HIT:          0  MISS:          0
L1I PREFETCH  ACCESS:          0  HIT:          0  MISS:          0
L1I WRITEBACK ACCESS:          0  HIT:          0  MISS:          0
L2C TOTAL     ACCESS:     204404  HIT:     102652  MISS:     101752
L2C LOAD      ACCESS:      11830  HIT:       2556  MISS:       9274
L2C RFO       ACCESS:      96272  HIT:       3794  MISS:      92478
L2C PREFETCH  ACCESS:          0  HIT:          0  MISS:          0
L2C WRITEBACK ACCESS:      96302  HIT:      96302  MISS:          0
LLC TOTAL     ACCESS:     194259  HIT:      59054  MISS:     135205
LLC LOAD      ACCESS:       9274  HIT:          0  MISS:       9274
LLC RFO       ACCESS:      92478  HIT:          0  MISS:      92478
LLC PREFETCH  ACCESS:          0  HIT:          0  MISS:          0
LLC WRITEBACK ACCESS:      92507  HIT:      59054  MISS:      33453

CPU 5 cumulative IPC: 0.786233 instructions: 333985547 cycles: 424792223
L1D TOTAL     ACCESS:   68866633  HIT:   65816875  MISS:    3049758
L1D LOAD      ACCESS:   39977128  HIT:   38849476  MISS:    1127652
L1D RFO       ACCESS:   28889505  HIT:   26967399  MISS:    1922106
L1D PREFETCH  ACCESS:          0  HIT:          0  MISS:          0
L1D WRITEBACK ACCESS:          0  HIT:          0  MISS:          0
L1I TOTAL     ACCESS:   87189212  HIT:   87052600  MISS:     136612
L1I LOAD      ACCESS:   87189212  HIT:   87052600  MISS:     136612
L1I RFO       ACCESS:          0  HIT:          0  MISS:          0
L1I PREFETCH  ACCESS:          0  HIT:          0  MISS:          0
L1I WRITEBACK ACCESS:          0  HIT:          0  MISS:          0
L2C TOTAL     ACCESS:    5244040  HIT:    3362948  MISS:    1881092
L2C LOAD      ACCESS:    1264214  HIT:     918131  MISS:     346083
L2C RFO       ACCESS:    1922095  HIT:     388207  MISS:    1533888
L2C PREFETCH  ACCESS:          0  HIT:          0  MISS:          0
L2C WRITEBACK ACCESS:    2057731  HIT:    2056610  MISS:       1121
LLC TOTAL     ACCESS:    3473873  HIT:    1803965  MISS:    1669908
LLC LOAD      ACCESS:     346082  HIT:     143143  MISS:     202939
LLC RFO       ACCESS:    1533886  HIT:      93603  MISS:    1440283
LLC PREFETCH  ACCESS:          0  HIT:          0  MISS:          0
LLC WRITEBACK ACCESS:    1593905  HIT:    1567219  MISS:      26686

CPU 6 cumulative IPC: 0.532895 instructions: 226369763 cycles: 424792223
L1D TOTAL     ACCESS:   85651134  HIT:   80945312  MISS:    4705822
L1D LOAD      ACCESS:   72986147  HIT:   68428124  MISS:    4558023
L1D RFO       ACCESS:   12664987  HIT:   12517188  MISS:     147799
L1D PREFETCH  ACCESS:          0  HIT:          0  MISS:          0
L1D WRITEBACK ACCESS:          0  HIT:          0  MISS:          0
L1I TOTAL     ACCESS:   57769374  HIT:   57769374  MISS:          0
L1I LOAD      ACCESS:   57769374  HIT:   57769374  MISS:          0
L1I RFO       ACCESS:          0  HIT:          0  MISS:          0
L1I PREFETCH  ACCESS:          0  HIT:          0  MISS:          0
L1I WRITEBACK ACCESS:          0  HIT:          0  MISS:          0
L2C TOTAL     ACCESS:    4862821  HIT:     548660  MISS:    4314161
L2C LOAD      ACCESS:    4556976  HIT:     354232  MISS:    4202744
L2C RFO       ACCESS:     145242  HIT:      34945  MISS:     110297
L2C PREFETCH  ACCESS:          0  HIT:          0  MISS:          0
L2C WRITEBACK ACCESS:     160603  HIT:     159483  MISS:       1120
LLC TOTAL     ACCESS:    4424578  HIT:     122703  MISS:    4301875
LLC LOAD      ACCESS:    4202744  HIT:      11392  MISS:    4191352
LLC RFO       ACCESS:     110297  HIT:          0  MISS:     110297
LLC PREFETCH  ACCESS:          0  HIT:          0  MISS:          0
LLC WRITEBACK ACCESS:     111537  HIT:     111311  MISS:        226

CPU 7 cumulative IPC: 0.235409 instructions: 100000000 cycles: 424792223
L1D TOTAL     ACCESS:   49439225  HIT:   46715598  MISS:    2723627
L1D LOAD      ACCESS:   21692346  HIT:   19212893  MISS:    2479453
L1D RFO       ACCESS:   27746879  HIT:   27502705  MISS:     244174
L1D PREFETCH  ACCESS:          0  HIT:          0  MISS:          0
L1D WRITEBACK ACCESS:          0  HIT:          0  MISS:          0
L1I TOTAL     ACCESS:   31958101  HIT:   31958101  MISS:          0
L1I LOAD      ACCESS:   31958101  HIT:   31958101  MISS:          0
L1I RFO       ACCESS:          0  HIT:          0  MISS:          0
L1I PREFETCH  ACCESS:          0  HIT:          0  MISS:          0
L1I WRITEBACK ACCESS:          0  HIT:          0  MISS:          0
L2C TOTAL     ACCESS:    3388273  HIT:     745708  MISS:    2642565
L2C LOAD      ACCESS:    2479442  HIT:      79788  MISS:    2399654
L2C RFO       ACCESS:     244166  HIT:       3512  MISS:     240654
L2C PREFETCH  ACCESS:          0  HIT:          0  MISS:          0
L2C WRITEBACK ACCESS:     664665  HIT:     662408  MISS:       2257
LLC TOTAL     ACCESS:    3243335  HIT:     702767  MISS:    2540568
LLC LOAD      ACCESS:    2399654  HIT:     100270  MISS:    2299384
LLC RFO       ACCESS:     240654  HIT:        181  MISS:     240473
LLC PREFETCH  ACCESS:          0  HIT:          0  MISS:          0
LLC WRITEBACK ACCESS:     603027  HIT:     602316  MISS:        711

Region of Interest Statistics

CPU 0 cumulative IPC: 0.24364 instructions: 100000000 cycles: 410442435
L1D TOTAL     ACCESS:   47873611  HIT:   42816822  MISS:    5056789
L1D LOAD      ACCESS:   24058938  HIT:   19243209  MISS:    4815729
L1D RFO       ACCESS:   23814673  HIT:   23573613  MISS:     241060
L1D PREFETCH  ACCESS:          0  HIT:          0  MISS:          0
L1D WRITEBACK ACCESS:          0  HIT:          0  MISS:          0
L1D PREFETCH  REQUESTED:          0  ISSUED:          0  USEFUL:          0  USELESS:          0
L1I TOTAL     ACCESS:   32895930  HIT:   32895930  MISS:          0
L1I LOAD      ACCESS:   32895930  HIT:   32895930  MISS:          0
L1I RFO       ACCESS:          0  HIT:          0  MISS:          0
L1I PREFETCH  ACCESS:          0  HIT:          0  MISS:          0
L1I WRITEBACK ACCESS:          0  HIT:          0  MISS:          0
L1I PREFETCH  REQUESTED:          0  ISSUED:          0  USEFUL:          0  USELESS:          0
L2C TOTAL     ACCESS:    5621537  HIT:     695981  MISS:    4925556
L2C LOAD      ACCESS:    4815705  HIT:     125999  MISS:    4689706
L2C RFO       ACCESS:     241042  HIT:       8603  MISS:     232439
L2C PREFETCH  ACCESS:          0  HIT:          0  MISS:          0
L2C WRITEBACK ACCESS:     564790  HIT:     561379  MISS:       3411
L2C PREFETCH  REQUESTED:          0  ISSUED:          0  USEFUL:          0  USELESS:          0
LLC TOTAL     ACCESS:    5390146  HIT:    2808029  MISS:    2582117
LLC LOAD      ACCESS:    4689706  HIT:    2340370  MISS:    2349336
LLC RFO       ACCESS:     232439  HIT:        525  MISS:     231914
LLC PREFETCH  ACCESS:          0  HIT:          0  MISS:          0
LLC WRITEBACK ACCESS:     468001  HIT:     467134  MISS:        867
LLC PREFETCH  REQUESTED:          0  ISSUED:          0  USEFUL:          0  USELESS:          0
Major fault: 0 Minor fault: 24543

CPU 1 cumulative IPC: 0.366272 instructions: 100000002 cycles: 273021171
L1D TOTAL     ACCESS:   20602917  HIT:   19279542  MISS:    1323375
L1D LOAD      ACCESS:   13585509  HIT:   12263452  MISS:    1322057
L1D RFO       ACCESS:    7017408  HIT:    7016090  MISS:       1318
L1D PREFETCH  ACCESS:          0  HIT:          0  MISS:          0
L1D WRITEBACK ACCESS:          0  HIT:          0  MISS:          0
L1D PREFETCH  REQUESTED:          0  ISSUED:          0  USEFUL:          0  USELESS:          0
L1I TOTAL     ACCESS:   19964392  HIT:   19964392  MISS:          0
L1I LOAD      ACCESS:   19964392  HIT:   19964392  MISS:          0
L1I RFO       ACCESS:          0  HIT:          0  MISS:          0
L1I PREFETCH  ACCESS:          0  HIT:          0  MISS:          0
L1I WRITEBACK ACCESS:          0  HIT:          0  MISS:          0
L1I PREFETCH  REQUESTED:          0  ISSUED:          0  USEFUL:          0  USELESS:          0
L2C TOTAL     ACCESS:    2202086  HIT:     908919  MISS:    1293167
L2C LOAD      ACCESS:    1322057  HIT:      29911  MISS:    1292146
L2C RFO       ACCESS:       1318  HIT:        297  MISS:       1021
L2C PREFETCH  ACCESS:          0  HIT:          0  MISS:          0
L2C WRITEBACK ACCESS:     878711  HIT:     878711  MISS:          0
L2C PREFETCH  REQUESTED:          0  ISSUED:          0  USEFUL:          0  USELESS:          0
LLC TOTAL     ACCESS:    2171044  HIT:    1293112  MISS:     877932
LLC LOAD      ACCESS:    1292146  HIT:     414251  MISS:     877895
LLC RFO       ACCESS:       1021  HIT:       1018  MISS:          3
LLC PREFETCH  ACCESS:          0  HIT:          0  MISS:          0
LLC WRITEBACK ACCESS:     877877  HIT:     877843  MISS:         34
LLC PREFETCH  REQUESTED:          0  ISSUED:          0  USEFUL:          0  USELESS:          0
Major fault: 0 Minor fault: 25628

CPU 2 cumulative IPC: 1.61604 instructions: 100000000 cycles: 61879670
L1D TOTAL     ACCESS:   30549806  HIT:   30549800  MISS:          6
L1D LOAD      ACCESS:   13270921  HIT:   13270915  MISS:          6
L1D RFO       ACCESS:   17278885  HIT:   17278885  MISS:          0
L1D PREFETCH  ACCESS:          0  HIT:          0  MISS:          0
L1D WRITEBACK ACCESS:          0  HIT:          0  MISS:          0
L1D PREFETCH  REQUESTED:          0  ISSUED:          0  USEFUL:          0  USELESS:          0
L1I TOTAL     ACCESS:   21741454  HIT:   21741454  MISS:          0
L1I LOAD      ACCESS:   21741454  HIT:   21741454  MISS:          0
L1I RFO       ACCESS:          0  HIT:          0  MISS:          0
L1I PREFETCH  ACCESS:          0  HIT:          0  MISS:          0
L1I WRITEBACK ACCESS:          0  HIT:          0  MISS:          0
L1I PREFETCH  REQUESTED:          0  ISSUED:          0  USEFUL:          0  USELESS:          0
L2C TOTAL     ACCESS:          6  HIT:          0  MISS:          6
L2C LOAD      ACCESS:          6  HIT:          0  MISS:          6
L2C RFO       ACCESS:          0  HIT:          0  MISS:          0
L2C PREFETCH  ACCESS:          0  HIT:          0  MISS:          0
L2C WRITEBACK ACCESS:          0  HIT:          0  MISS:          0
L2C PREFETCH  REQUESTED:          0  ISSUED:          0  USEFUL:          0  USELESS:          0
LLC TOTAL     ACCESS:          6  HIT:          0  MISS:          6
LLC LOAD      ACCESS:          6  HIT:          0  MISS:          6
LLC RFO       ACCESS:          0  HIT:          0  MISS:          0
LLC PREFETCH  ACCESS:          0  HIT:          0  MISS:          0
LLC WRITEBACK ACCESS:          0  HIT:          0  MISS:          0
LLC PREFETCH  REQUESTED:          0  ISSUED:          0  USEFUL:          0  USELESS:          0
Major fault: 0 Minor fault: 46

CPU 3 cumulative IPC: 0.409264 instructions: 100000003 cycles: 244341001
L1D TOTAL     ACCESS:   28289998  HIT:   26605914  MISS:    1684084
L1D LOAD      ACCESS:   23372811  HIT:   21688727  MISS:    1684084
L1D RFO       ACCESS:    4917187  HIT:    4917187  MISS:          0
L1D PREFETCH  ACCESS:          0  HIT:          0  MISS:          0
L1D WRITEBACK ACCESS:          0  HIT:          0  MISS:          0
L1D PREFETCH  REQUESTED:          0  ISSUED:          0  USEFUL:          0  USELESS:          0
L1I TOTAL     ACCESS:   22111906  HIT:   22111906  MISS:          0
L1I LOAD      ACCESS:   22111906  HIT:   22111906  MISS:          0
L1I RFO       ACCESS:          0  HIT:          0  MISS:          0
L1I PREFETCH  ACCESS:          0  HIT:          0  MISS:          0
L1I WRITEBACK ACCESS:          0  HIT:          0  MISS:          0
L1I PREFETCH  REQUESTED:          0  ISSUED:          0  USEFUL:          0  USELESS:          0
L2C TOTAL     ACCESS:    2206260  HIT:     568393  MISS:    1637867
L2C LOAD      ACCESS:    1684084  HIT:      46481  MISS:    1637603
L2C RFO       ACCESS:          0  HIT:          0  MISS:          0
L2C PREFETCH  ACCESS:          0  HIT:          0  MISS:          0
L2C WRITEBACK ACCESS:     522176  HIT:     521912  MISS:        264
L2C PREFETCH  REQUESTED:          0  ISSUED:          0  USEFUL:          0  USELESS:          0
LLC TOTAL     ACCESS:    2157182  HIT:     519733  MISS:    1637449
LLC LOAD      ACCESS:    1637603  HIT:        245  MISS:    1637358
LLC RFO       ACCESS:          0  HIT:          0  MISS:          0
LLC PREFETCH  ACCESS:          0  HIT:          0  MISS:          0
LLC WRITEBACK ACCESS:     519579  HIT:     519488  MISS:         91
LLC PREFETCH  REQUESTED:          0  ISSUED:          0  USEFUL:          0  USELESS:          0
Major fault: 0 Minor fault: 45407

CPU 4 cumulative IPC: 1.13912 instructions: 100000002 cycles: 87787382
L1D TOTAL     ACCESS:   17316040  HIT:   17311750  MISS:       4290
L1D LOAD      ACCESS:   13902636  HIT:   13902114  MISS:        522
L1D RFO       ACCESS:    3413404  HIT:    3409636  MISS:       3768
L1D PREFETCH  ACCESS:          0  HIT:          0  MISS:          0
L1D WRITEBACK ACCESS:          0  HIT:          0  MISS:          0
L1D PREFETCH  REQUESTED:          0  ISSUED:          0  USEFUL:          0  USELESS:          0
L1I TOTAL     ACCESS:   24491359  HIT:   24491359  MISS:          0
L1I LOAD      ACCESS:   24491359  HIT:   24491359  MISS:          0
L1I RFO       ACCESS:          0  HIT:          0  MISS:          0
L1I PREFETCH  ACCESS:          0  HIT:          0  MISS:          0
L1I WRITEBACK ACCESS:          0  HIT:          0  MISS:          0
L1I PREFETCH  REQUESTED:          0  ISSUED:          0  USEFUL:          0  USELESS:          0
L2C TOTAL     ACCESS:       8050  HIT:       4300  MISS:       3750
L2C LOAD      ACCESS:        522  HIT:        181  MISS:        341
L2C RFO       ACCESS:       3768  HIT:        359  MISS:       3409
L2C PREFETCH  ACCESS:          0  HIT:          0  MISS:          0
L2C WRITEBACK ACCESS:       3760  HIT:       3760  MISS:          0
L2C PREFETCH  REQUESTED:          0  ISSUED:          0  USEFUL:          0  USELESS:          0
LLC TOTAL     ACCESS:       7122  HIT:          0  MISS:       7122
LLC LOAD      ACCESS:        341  HIT:          0  MISS:        341
LLC RFO       ACCESS:       3409  HIT:          0  MISS:       3409
LLC PREFETCH  ACCESS:          0  HIT:          0  MISS:          0
LLC WRITEBACK ACCESS:       3372  HIT:          0  MISS:       3372
LLC PREFETCH  REQUESTED:          0  ISSUED:          0  USEFUL:          0  USELESS:          0
Major fault: 0 Minor fault: 2745

CPU 5 cumulative IPC: 0.776225 instructions: 100000000 cycles: 128828635
L1D TOTAL     ACCESS:   20618314  HIT:   19630850  MISS:     987464
L1D LOAD      ACCESS:   12109837  HIT:   11755115  MISS:     354722
L1D RFO       ACCESS:    8508477  HIT:    7875735  MISS:     632742
L1D PREFETCH  ACCESS:          0  HIT:          0  MISS:          0
L1D WRITEBACK ACCESS:          0  HIT:          0  MISS:          0
L1D PREFETCH  REQUESTED:          0  ISSUED:          0  USEFUL:          0  USELESS:          0
L1I TOTAL     ACCESS:   26073802  HIT:   26035361  MISS:      38441
L1I LOAD      ACCESS:   26073802  HIT:   26035361  MISS:      38441
L1I RFO       ACCESS:          0  HIT:          0  MISS:          0
L1I PREFETCH  ACCESS:          0  HIT:          0  MISS:          0
L1I WRITEBACK ACCESS:          0  HIT:          0  MISS:          0
L1I PREFETCH  REQUESTED:          0  ISSUED:          0  USEFUL:          0  USELESS:          0
L2C TOTAL     ACCESS:    1701220  HIT:    1083460  MISS:     617760
L2C LOAD      ACCESS:     393149  HIT:     285493  MISS:     107656
L2C RFO       ACCESS:     632738  HIT:     122984  MISS:     509754
L2C PREFETCH  ACCESS:          0  HIT:          0  MISS:          0
L2C WRITEBACK ACCESS:     675333  HIT:     674983  MISS:        350
L2C PREFETCH  REQUESTED:          0  ISSUED:          0  USEFUL:          0  USELESS:          0
LLC TOTAL     ACCESS:    1144704  HIT:     595677  MISS:     549027
LLC LOAD      ACCESS:     107656  HIT:      46941  MISS:      60715
LLC RFO       ACCESS:     509753  HIT:      29057  MISS:     480696
LLC PREFETCH  ACCESS:          0  HIT:          0  MISS:          0
LLC WRITEBACK ACCESS:     527295  HIT:     519679  MISS:       7616
LLC PREFETCH  REQUESTED:          0  ISSUED:          0  USEFUL:          0  USELESS:          0
Major fault: 0 Minor fault: 6863

CPU 6 cumulative IPC: 0.53936 instructions: 100000000 cycles: 185404877
L1D TOTAL     ACCESS:   37837957  HIT:   35759156  MISS:    2078801
L1D LOAD      ACCESS:   32242420  HIT:   30228926  MISS:    2013494
L1D RFO       ACCESS:    5595537  HIT:    5530230  MISS:      65307
L1D PREFETCH  ACCESS:          0  HIT:          0  MISS:          0
L1D WRITEBACK ACCESS:          0  HIT:          0  MISS:          0
L1D PREFETCH  REQUESTED:          0  ISSUED:          0  USEFUL:          0  USELESS:          0
L1I TOTAL     ACCESS:   25519532  HIT:   25519532  MISS:          0
L1I LOAD      ACCESS:   25519532  HIT:   25519532  MISS:          0
L1I RFO       ACCESS:          0  HIT:          0  MISS:          0
L1I PREFETCH  ACCESS:          0  HIT:          0  MISS:          0
L1I WRITEBACK ACCESS:          0  HIT:          0  MISS:          0
L1I PREFETCH  REQUESTED:          0  ISSUED:          0  USEFUL:          0  USELESS:          0
L2C TOTAL     ACCESS:    2148164  HIT:     242370  MISS:    1905794
L2C LOAD      ACCESS:    2013046  HIT:     156466  MISS:    1856580
L2C RFO       ACCESS:      64173  HIT:      15448  MISS:      48725
L2C PREFETCH  ACCESS:          0  HIT:          0  MISS:          0
L2C WRITEBACK ACCESS:      70945  HIT:      70456  MISS:        489
L2C PREFETCH  REQUESTED:          0  ISSUED:          0  USEFUL:          0  USELESS:          0
LLC TOTAL     ACCESS:    1954594  HIT:      54209  MISS:    1900385
LLC LOAD      ACCESS:    1856580  HIT:       5019  MISS:    1851561
LLC RFO       ACCESS:      48725  HIT:          0  MISS:      48725
LLC PREFETCH  ACCESS:          0  HIT:          0  MISS:          0
LLC WRITEBACK ACCESS:      49289  HIT:      49190  MISS:         99
LLC PREFETCH  REQUESTED:          0  ISSUED:          0  USEFUL:          0  USELESS:          0
Major fault: 0 Minor fault: 71365

CPU 7 cumulative IPC: 0.235409 instructions: 100000000 cycles: 424792223
L1D TOTAL     ACCESS:   49439225  HIT:   46715598  MISS:    2723627
L1D LOAD      ACCESS:   21692346  HIT:   19212893  MISS:    2479453
L1D RFO       ACCESS:   27746879  HIT:   27502705  MISS:     244174
L1D PREFETCH  ACCESS:          0  HIT:          0  MISS:          0
L1D WRITEBACK ACCESS:          0  HIT:          0  MISS:          0
L1D PREFETCH  REQUESTED:          0  ISSUED:          0  USEFUL:          0  USELESS:          0
L1I TOTAL     ACCESS:   31958101  HIT:   31958101  MISS:          0
L1I LOAD      ACCESS:   31958101  HIT:   31958101  MISS:          0
L1I RFO       ACCESS:          0  HIT:          0  MISS:          0
L1I PREFETCH  ACCESS:          0  HIT:          0  MISS:          0
L1I WRITEBACK ACCESS:          0  HIT:          0  MISS:          0
L1I PREFETCH  REQUESTED:          0  ISSUED:          0  USEFUL:          0  USELESS:          0
L2C TOTAL     ACCESS:    3388273  HIT:     745708  MISS:    2642565
L2C LOAD      ACCESS:    2479442  HIT:      79788  MISS:    2399654
L2C RFO       ACCESS:     244166  HIT:       3512  MISS:     240654
L2C PREFETCH  ACCESS:          0  HIT:          0  MISS:          0
L2C WRITEBACK ACCESS:     664665  HIT:     662408  MISS:       2257
L2C PREFETCH  REQUESTED:          0  ISSUED:          0  USEFUL:          0  USELESS:          0
LLC TOTAL     ACCESS:    3243335  HIT:     702767  MISS:    2540568
LLC LOAD      ACCESS:    2399654  HIT:     100270  MISS:    2299384
LLC RFO       ACCESS:     240654  HIT:        181  MISS:     240473
LLC PREFETCH  ACCESS:          0  HIT:          0  MISS:          0
LLC WRITEBACK ACCESS:     603027  HIT:     602316  MISS:        711
LLC PREFETCH  REQUESTED:          0  ISSUED:          0  USEFUL:          0  USELESS:          0
Major fault: 0 Minor fault: 33732

DRAM Statistics
 CHANNEL 0
 RQ ROW_BUFFER_HIT:    4104693  ROW_BUFFER_MISS:    3647976
 DBUS_CONGESTED:   10951709
 WQ ROW_BUFFER_HIT:     287566  ROW_BUFFER_MISS:    2228825  FULL:          0

 CHANNEL 1
 RQ ROW_BUFFER_HIT:    4097706  ROW_BUFFER_MISS:    3649023
 DBUS_CONGESTED:   10951709
 WQ ROW_BUFFER_HIT:     288077  ROW_BUFFER_MISS:    2226046  FULL:          0

 AVG_CONGESTED_CYCLE: 13
