
*** ChampSim Multicore Out-of-Order Simulator ***

Warmup Instructions: 20000000
Simulation Instructions: 100000000
Number of CPUs: 8
LLC sets: 16384
LLC ways: 16
Off-chip DRAM Size: 8192 MB Channels: 2 Width: 64-bit Data Rate: 1600 MT/s

CPU 0 runs /scratch/user/djimenez/champsim-traces/speccpu2017/xz/648.exchange2_s/648.exchange2_s-210B.champsimtrace.xz
CPU 1 runs /scratch/user/djimenez/champsim-traces/speccpu2017/xz/607.cactuBSSN_s/607.cactuBSSN_s-4004B.champsimtrace.xz
CPU 2 runs /scratch/user/djimenez/champsim-traces/speccpu2017/xz/657.xz_s/657.xz_s-56B.champsimtrace.xz
CPU 3 runs /scratch/user/djimenez/champsim-traces/speccpu2017/xz/648.exchange2_s/648.exchange2_s-1247B.champsimtrace.xz
CPU 4 runs /scratch/user/djimenez/champsim-traces/speccpu2017/xz/654.roms_s/654.roms_s-523B.champsimtrace.xz
CPU 5 runs /scratch/user/djimenez/champsim-traces/speccpu2017/xz/654.roms_s/654.roms_s-1390B.champsimtrace.xz
CPU 6 runs /scratch/user/djimenez/champsim-traces/speccpu2017/xz/644.nab_s/644.nab_s-12459B.champsimtrace.xz
CPU 7 runs /scratch/user/djimenez/champsim-traces/speccpu2017/xz/641.leela_s/641.leela_s-334B.champsimtrace.xz
Heartbeat CPU 2 instructions: 10000002 cycles: 3313149 heartbeat IPC: 3.01828 cumulative IPC: 3.01828 (Simulation time: 0 hr 3 min 1 sec) 
Heartbeat CPU 3 instructions: 10000000 cycles: 4390512 heartbeat IPC: 2.27764 cumulative IPC: 2.27764 (Simulation time: 0 hr 4 min 5 sec) 
Heartbeat CPU 0 instructions: 10000002 cycles: 4421788 heartbeat IPC: 2.26153 cumulative IPC: 2.26153 (Simulation time: 0 hr 4 min 7 sec) 
Heartbeat CPU 4 instructions: 10000001 cycles: 4535748 heartbeat IPC: 2.20471 cumulative IPC: 2.20471 (Simulation time: 0 hr 4 min 12 sec) 
Heartbeat CPU 6 instructions: 10000000 cycles: 4636515 heartbeat IPC: 2.15679 cumulative IPC: 2.15679 (Simulation time: 0 hr 4 min 18 sec) 
Heartbeat CPU 1 instructions: 10000000 cycles: 5802243 heartbeat IPC: 1.72347 cumulative IPC: 1.72347 (Simulation time: 0 hr 5 min 19 sec) 
Heartbeat CPU 7 instructions: 10000001 cycles: 6393191 heartbeat IPC: 1.56416 cumulative IPC: 1.56416 (Simulation time: 0 hr 5 min 49 sec) 
Heartbeat CPU 2 instructions: 20000000 cycles: 6625606 heartbeat IPC: 3.01891 cumulative IPC: 3.01859 (Simulation time: 0 hr 6 min 1 sec) 
Heartbeat CPU 5 instructions: 10000001 cycles: 6740935 heartbeat IPC: 1.48347 cumulative IPC: 1.48347 (Simulation time: 0 hr 6 min 7 sec) 
Heartbeat CPU 3 instructions: 20000000 cycles: 8751669 heartbeat IPC: 2.29297 cumulative IPC: 2.28528 (Simulation time: 0 hr 8 min 0 sec) 
Heartbeat CPU 4 instructions: 20000000 cycles: 8786455 heartbeat IPC: 2.35255 cumulative IPC: 2.27623 (Simulation time: 0 hr 8 min 2 sec) 
Heartbeat CPU 0 instructions: 20000000 cycles: 8806231 heartbeat IPC: 2.28079 cumulative IPC: 2.27112 (Simulation time: 0 hr 8 min 3 sec) 
Heartbeat CPU 6 instructions: 20000000 cycles: 9298933 heartbeat IPC: 2.14481 cumulative IPC: 2.15078 (Simulation time: 0 hr 8 min 28 sec) 
Heartbeat CPU 2 instructions: 30000001 cycles: 9938068 heartbeat IPC: 3.0189 cumulative IPC: 1.00623 (Simulation time: 0 hr 8 min 59 sec) 
Heartbeat CPU 1 instructions: 20000000 cycles: 11604980 heartbeat IPC: 1.72332 cumulative IPC: 1.7234 (Simulation time: 0 hr 10 min 24 sec) 
Heartbeat CPU 5 instructions: 20000000 cycles: 11851951 heartbeat IPC: 1.95656 cumulative IPC: 1.68749 (Simulation time: 0 hr 10 min 36 sec) 
Heartbeat CPU 7 instructions: 20000000 cycles: 12790454 heartbeat IPC: 1.56317 cumulative IPC: 1.56367 (Simulation time: 0 hr 11 min 23 sec) 

Warmup complete CPU 0 instructions: 29164376 cycles: 12790455 (Simulation time: 0 hr 11 min 23 sec) 
Warmup complete CPU 1 instructions: 22043678 cycles: 12790455 (Simulation time: 0 hr 11 min 23 sec) 
Warmup complete CPU 2 instructions: 38611042 cycles: 12790455 (Simulation time: 0 hr 11 min 23 sec) 
Warmup complete CPU 3 instructions: 29244224 cycles: 12790455 (Simulation time: 0 hr 11 min 23 sec) 
Warmup complete CPU 4 instructions: 27239319 cycles: 12790455 (Simulation time: 0 hr 11 min 23 sec) 
Warmup complete CPU 5 instructions: 21987977 cycles: 12790455 (Simulation time: 0 hr 11 min 23 sec) 
Warmup complete CPU 6 instructions: 27446413 cycles: 12790455 (Simulation time: 0 hr 11 min 23 sec) 
Warmup complete CPU 7 instructions: 20000001 cycles: 12790455 (Simulation time: 0 hr 11 min 23 sec) 

Heartbeat CPU 3 instructions: 30000000 cycles: 13255498 heartbeat IPC: 2.22033 cumulative IPC: 1.62517 (Simulation time: 0 hr 11 min 35 sec) 
Heartbeat CPU 0 instructions: 30000001 cycles: 13321604 heartbeat IPC: 2.21466 cumulative IPC: 1.57324 (Simulation time: 0 hr 11 min 37 sec) 
Heartbeat CPU 2 instructions: 40000000 cycles: 14174850 heartbeat IPC: 2.36028 cumulative IPC: 1.0033 (Simulation time: 0 hr 11 min 59 sec) 
Heartbeat CPU 6 instructions: 30000001 cycles: 16498419 heartbeat IPC: 1.38899 cumulative IPC: 0.688677 (Simulation time: 0 hr 13 min 6 sec) 
Heartbeat CPU 3 instructions: 40000000 cycles: 19463679 heartbeat IPC: 1.61078 cumulative IPC: 1.61178 (Simulation time: 0 hr 14 min 29 sec) 
Heartbeat CPU 0 instructions: 40000000 cycles: 19576209 heartbeat IPC: 1.59882 cumulative IPC: 1.59682 (Simulation time: 0 hr 14 min 33 sec) 
Heartbeat CPU 1 instructions: 30000003 cycles: 21213801 heartbeat IPC: 1.04071 cumulative IPC: 0.944556 (Simulation time: 0 hr 15 min 19 sec) 
Heartbeat CPU 4 instructions: 30000002 cycles: 21771370 heartbeat IPC: 0.770125 cumulative IPC: 0.307394 (Simulation time: 0 hr 15 min 36 sec) 
Heartbeat CPU 2 instructions: 50000000 cycles: 24170787 heartbeat IPC: 1.00041 cumulative IPC: 1.00076 (Simulation time: 0 hr 16 min 43 sec) 
Heartbeat CPU 3 instructions: 50000003 cycles: 25746442 heartbeat IPC: 1.59166 cumulative IPC: 1.60202 (Simulation time: 0 hr 17 min 30 sec) 
Heartbeat CPU 0 instructions: 50000002 cycles: 25883838 heartbeat IPC: 1.58538 cumulative IPC: 1.59131 (Simulation time: 0 hr 17 min 33 sec) 
Heartbeat CPU 6 instructions: 40000000 cycles: 30959891 heartbeat IPC: 0.691492 cumulative IPC: 0.690918 (Simulation time: 0 hr 19 min 57 sec) 
Heartbeat CPU 1 instructions: 40000000 cycles: 31816204 heartbeat IPC: 0.943182 cumulative IPC: 0.943791 (Simulation time: 0 hr 20 min 21 sec) 
Heartbeat CPU 0 instructions: 60000000 cycles: 32127880 heartbeat IPC: 1.60153 cumulative IPC: 1.59461 (Simulation time: 0 hr 20 min 29 sec) 
Heartbeat CPU 3 instructions: 60000000 cycles: 32372563 heartbeat IPC: 1.50918 cumulative IPC: 1.57061 (Simulation time: 0 hr 20 min 35 sec) 
Heartbeat CPU 2 instructions: 60000000 cycles: 34133117 heartbeat IPC: 1.00378 cumulative IPC: 1.00217 (Simulation time: 0 hr 21 min 23 sec) 
Heartbeat CPU 7 instructions: 30000000 cycles: 35789991 heartbeat IPC: 0.434791 cumulative IPC: 0.434791 (Simulation time: 0 hr 22 min 10 sec) 
Heartbeat CPU 0 instructions: 70000002 cycles: 38436199 heartbeat IPC: 1.58521 cumulative IPC: 1.5923 (Simulation time: 0 hr 23 min 28 sec) 
Heartbeat CPU 3 instructions: 70000000 cycles: 39328975 heartbeat IPC: 1.43752 cumulative IPC: 1.53572 (Simulation time: 0 hr 23 min 59 sec) 
Heartbeat CPU 5 instructions: 30000002 cycles: 39889339 heartbeat IPC: 0.356667 cumulative IPC: 0.295659 (Simulation time: 0 hr 24 min 15 sec) 
Heartbeat CPU 1 instructions: 50000000 cycles: 42409015 heartbeat IPC: 0.944036 cumulative IPC: 0.943878 (Simulation time: 0 hr 25 min 25 sec) 
Heartbeat CPU 2 instructions: 70000002 cycles: 44142171 heartbeat IPC: 0.999096 cumulative IPC: 1.00119 (Simulation time: 0 hr 26 min 12 sec) 
Heartbeat CPU 0 instructions: 80000000 cycles: 44657260 heartbeat IPC: 1.60744 cumulative IPC: 1.59525 (Simulation time: 0 hr 26 min 27 sec) 
Heartbeat CPU 6 instructions: 50000002 cycles: 45425360 heartbeat IPC: 0.691302 cumulative IPC: 0.691088 (Simulation time: 0 hr 26 min 49 sec) 
Heartbeat CPU 3 instructions: 80000000 cycles: 45661967 heartbeat IPC: 1.57903 cumulative IPC: 1.54407 (Simulation time: 0 hr 26 min 55 sec) 
Heartbeat CPU 0 instructions: 90000003 cycles: 50856047 heartbeat IPC: 1.61322 cumulative IPC: 1.59818 (Simulation time: 0 hr 29 min 26 sec) 
Heartbeat CPU 3 instructions: 90000001 cycles: 51937823 heartbeat IPC: 1.59341 cumulative IPC: 1.55198 (Simulation time: 0 hr 29 min 56 sec) 
Heartbeat CPU 4 instructions: 40000000 cycles: 52230499 heartbeat IPC: 0.328309 cumulative IPC: 0.323546 (Simulation time: 0 hr 30 min 4 sec) 
Heartbeat CPU 1 instructions: 60000000 cycles: 53159483 heartbeat IPC: 0.930192 cumulative IPC: 0.940234 (Simulation time: 0 hr 30 min 30 sec) 
Heartbeat CPU 2 instructions: 80000000 cycles: 54205807 heartbeat IPC: 0.993676 cumulative IPC: 0.999363 (Simulation time: 0 hr 30 min 58 sec) 
Heartbeat CPU 0 instructions: 100000000 cycles: 57109742 heartbeat IPC: 1.59905 cumulative IPC: 1.5983 (Simulation time: 0 hr 32 min 19 sec) 
Heartbeat CPU 3 instructions: 100000000 cycles: 58324145 heartbeat IPC: 1.56585 cumulative IPC: 1.55392 (Simulation time: 0 hr 32 min 55 sec) 
Heartbeat CPU 7 instructions: 40000000 cycles: 58805619 heartbeat IPC: 0.434487 cumulative IPC: 0.434639 (Simulation time: 0 hr 33 min 8 sec) 
Heartbeat CPU 6 instructions: 60000000 cycles: 60151182 heartbeat IPC: 0.679079 cumulative IPC: 0.687354 (Simulation time: 0 hr 33 min 45 sec) 
Heartbeat CPU 0 instructions: 110000000 cycles: 63508640 heartbeat IPC: 1.56277 cumulative IPC: 1.59382 (Simulation time: 0 hr 35 min 16 sec) 
Heartbeat CPU 1 instructions: 70000002 cycles: 63903857 heartbeat IPC: 0.93072 cumulative IPC: 0.938234 (Simulation time: 0 hr 35 min 26 sec) 
Heartbeat CPU 2 instructions: 90000001 cycles: 64268106 heartbeat IPC: 0.993809 cumulative IPC: 0.998277 (Simulation time: 0 hr 35 min 36 sec) 
Heartbeat CPU 3 instructions: 110000003 cycles: 64606706 heartbeat IPC: 1.59171 cumulative IPC: 1.5585 (Simulation time: 0 hr 35 min 45 sec) 
Heartbeat CPU 0 instructions: 120000000 cycles: 70090439 heartbeat IPC: 1.51934 cumulative IPC: 1.58526 (Simulation time: 0 hr 38 min 5 sec) 
Heartbeat CPU 3 instructions: 120000000 cycles: 71619801 heartbeat IPC: 1.4259 cumulative IPC: 1.5427 (Simulation time: 0 hr 38 min 45 sec) 
Heartbeat CPU 2 instructions: 100000000 cycles: 74323470 heartbeat IPC: 0.994494 cumulative IPC: 0.997659 (Simulation time: 0 hr 39 min 54 sec) 
Heartbeat CPU 1 instructions: 80000000 cycles: 74967703 heartbeat IPC: 0.903845 cumulative IPC: 0.932115 (Simulation time: 0 hr 40 min 10 sec) 
Heartbeat CPU 6 instructions: 70000002 cycles: 74975251 heartbeat IPC: 0.674579 cumulative IPC: 0.684309 (Simulation time: 0 hr 40 min 10 sec) 
Heartbeat CPU 4 instructions: 50000000 cycles: 75722438 heartbeat IPC: 0.425678 cumulative IPC: 0.361671 (Simulation time: 0 hr 40 min 30 sec) 
Finished CPU 0 instructions: 100000002 cycles: 63325732 cumulative IPC: 1.57914 (Simulation time: 0 hr 40 min 40 sec) 
Heartbeat CPU 0 instructions: 130000003 cycles: 76662769 heartbeat IPC: 1.52153 cumulative IPC: 1.57871 (Simulation time: 0 hr 40 min 54 sec) 
Finished CPU 3 instructions: 100000002 cycles: 64644025 cumulative IPC: 1.54693 (Simulation time: 0 hr 41 min 14 sec) 
Heartbeat CPU 3 instructions: 130000001 cycles: 77892422 heartbeat IPC: 1.59423 cumulative IPC: 1.54766 (Simulation time: 0 hr 41 min 26 sec) 
Heartbeat CPU 5 instructions: 40000000 cycles: 81806791 heartbeat IPC: 0.238564 cumulative IPC: 0.260982 (Simulation time: 0 hr 43 min 8 sec) 
Heartbeat CPU 7 instructions: 50000000 cycles: 82059651 heartbeat IPC: 0.430033 cumulative IPC: 0.433093 (Simulation time: 0 hr 43 min 15 sec) 
Heartbeat CPU 0 instructions: 140000000 cycles: 83162056 heartbeat IPC: 1.53863 cumulative IPC: 1.57501 (Simulation time: 0 hr 43 min 44 sec) 
Heartbeat CPU 3 instructions: 140000000 cycles: 84320641 heartbeat IPC: 1.55564 cumulative IPC: 1.54838 (Simulation time: 0 hr 44 min 16 sec) 
Heartbeat CPU 2 instructions: 110000001 cycles: 84341558 heartbeat IPC: 0.998195 cumulative IPC: 0.997734 (Simulation time: 0 hr 44 min 16 sec) 
Heartbeat CPU 1 instructions: 90000000 cycles: 85711931 heartbeat IPC: 0.930732 cumulative IPC: 0.931911 (Simulation time: 0 hr 44 min 50 sec) 
Heartbeat CPU 0 instructions: 150000003 cycles: 89570289 heartbeat IPC: 1.56049 cumulative IPC: 1.57379 (Simulation time: 0 hr 46 min 27 sec) 
Heartbeat CPU 6 instructions: 80000000 cycles: 89747629 heartbeat IPC: 0.676939 cumulative IPC: 0.682894 (Simulation time: 0 hr 46 min 31 sec) 
Heartbeat CPU 3 instructions: 150000002 cycles: 90652964 heartbeat IPC: 1.5792 cumulative IPC: 1.55088 (Simulation time: 0 hr 46 min 54 sec) 
Heartbeat CPU 2 instructions: 120000000 cycles: 94332874 heartbeat IPC: 1.00087 cumulative IPC: 0.998118 (Simulation time: 0 hr 48 min 26 sec) 
Heartbeat CPU 0 instructions: 160000000 cycles: 96113924 heartbeat IPC: 1.5282 cumulative IPC: 1.57021 (Simulation time: 0 hr 49 min 10 sec) 
Heartbeat CPU 1 instructions: 100000000 cycles: 96420517 heartbeat IPC: 0.93383 cumulative IPC: 0.932157 (Simulation time: 0 hr 49 min 18 sec) 
Heartbeat CPU 3 instructions: 160000000 cycles: 97088034 heartbeat IPC: 1.55398 cumulative IPC: 1.55112 (Simulation time: 0 hr 49 min 34 sec) 
Heartbeat CPU 4 instructions: 60000000 cycles: 97971982 heartbeat IPC: 0.449447 cumulative IPC: 0.384598 (Simulation time: 0 hr 49 min 56 sec) 
Heartbeat CPU 0 instructions: 170000000 cycles: 102635497 heartbeat IPC: 1.53337 cumulative IPC: 1.56754 (Simulation time: 0 hr 51 min 53 sec) 
Heartbeat CPU 3 instructions: 170000000 cycles: 103355047 heartbeat IPC: 1.59566 cumulative IPC: 1.5542 (Simulation time: 0 hr 52 min 11 sec) 
Heartbeat CPU 6 instructions: 90000000 cycles: 104332778 heartbeat IPC: 0.685629 cumulative IPC: 0.68333 (Simulation time: 0 hr 52 min 35 sec) 
Heartbeat CPU 2 instructions: 130000002 cycles: 104376101 heartbeat IPC: 0.995696 cumulative IPC: 0.997852 (Simulation time: 0 hr 52 min 36 sec) 
Heartbeat CPU 7 instructions: 60000000 cycles: 105034409 heartbeat IPC: 0.43526 cumulative IPC: 0.433633 (Simulation time: 0 hr 52 min 52 sec) 
Heartbeat CPU 1 instructions: 110000001 cycles: 107108661 heartbeat IPC: 0.935616 cumulative IPC: 0.932549 (Simulation time: 0 hr 53 min 45 sec) 
Heartbeat CPU 0 instructions: 180000000 cycles: 109112916 heartbeat IPC: 1.54382 cumulative IPC: 1.56594 (Simulation time: 0 hr 54 min 37 sec) 
Heartbeat CPU 3 instructions: 180000000 cycles: 109771820 heartbeat IPC: 1.55842 cumulative IPC: 1.55448 (Simulation time: 0 hr 54 min 54 sec) 
Finished CPU 2 instructions: 100000002 cycles: 100235770 cumulative IPC: 0.997648 (Simulation time: 0 hr 56 min 16 sec) 
Heartbeat CPU 2 instructions: 140000000 cycles: 114433503 heartbeat IPC: 0.994292 cumulative IPC: 0.9975 (Simulation time: 0 hr 56 min 52 sec) 
Heartbeat CPU 5 instructions: 50000003 cycles: 114898559 heartbeat IPC: 0.30219 cumulative IPC: 0.274337 (Simulation time: 0 hr 57 min 4 sec) 
Heartbeat CPU 0 instructions: 190000003 cycles: 115678547 heartbeat IPC: 1.52308 cumulative IPC: 1.56321 (Simulation time: 0 hr 57 min 24 sec) 
Heartbeat CPU 3 instructions: 190000003 cycles: 116152376 heartbeat IPC: 1.56726 cumulative IPC: 1.55527 (Simulation time: 0 hr 57 min 36 sec) 
Heartbeat CPU 1 instructions: 120000000 cycles: 117794749 heartbeat IPC: 0.935796 cumulative IPC: 0.932879 (Simulation time: 0 hr 58 min 19 sec) 
Heartbeat CPU 6 instructions: 100000000 cycles: 119204524 heartbeat IPC: 0.672416 cumulative IPC: 0.681804 (Simulation time: 0 hr 58 min 56 sec) 
Finished CPU 1 instructions: 100000002 cycles: 107178465 cumulative IPC: 0.933023 (Simulation time: 0 hr 59 min 15 sec) 
Heartbeat CPU 4 instructions: 70000002 cycles: 122093588 heartbeat IPC: 0.414566 cumulative IPC: 0.391212 (Simulation time: 1 hr 0 min 11 sec) 
Heartbeat CPU 0 instructions: 200000000 cycles: 122102026 heartbeat IPC: 1.55679 cumulative IPC: 1.56283 (Simulation time: 1 hr 0 min 11 sec) 
Heartbeat CPU 3 instructions: 200000000 cycles: 122437871 heartbeat IPC: 1.59096 cumulative IPC: 1.55732 (Simulation time: 1 hr 0 min 20 sec) 
Heartbeat CPU 2 instructions: 150000001 cycles: 124507737 heartbeat IPC: 0.992631 cumulative IPC: 0.997061 (Simulation time: 1 hr 1 min 15 sec) 
Heartbeat CPU 7 instructions: 70000000 cycles: 127833893 heartbeat IPC: 0.438606 cumulative IPC: 0.434618 (Simulation time: 1 hr 2 min 42 sec) 
Heartbeat CPU 1 instructions: 130000003 cycles: 128444001 heartbeat IPC: 0.939033 cumulative IPC: 0.933446 (Simulation time: 1 hr 2 min 59 sec) 
Heartbeat CPU 0 instructions: 210000001 cycles: 128569114 heartbeat IPC: 1.54629 cumulative IPC: 1.56191 (Simulation time: 1 hr 3 min 2 sec) 
Heartbeat CPU 3 instructions: 210000000 cycles: 128724595 heartbeat IPC: 1.59065 cumulative IPC: 1.55912 (Simulation time: 1 hr 3 min 6 sec) 
Heartbeat CPU 5 instructions: 60000000 cycles: 133947567 heartbeat IPC: 0.524962 cumulative IPC: 0.313742 (Simulation time: 1 hr 5 min 25 sec) 
Heartbeat CPU 6 instructions: 110000001 cycles: 134426501 heartbeat IPC: 0.656945 cumulative IPC: 0.678693 (Simulation time: 1 hr 5 min 37 sec) 
Heartbeat CPU 2 instructions: 160000000 cycles: 134590534 heartbeat IPC: 0.991788 cumulative IPC: 0.996625 (Simulation time: 1 hr 5 min 42 sec) 
Heartbeat CPU 0 instructions: 220000000 cycles: 134981391 heartbeat IPC: 1.55951 cumulative IPC: 1.56178 (Simulation time: 1 hr 5 min 52 sec) 
Heartbeat CPU 3 instructions: 220000000 cycles: 135037259 heartbeat IPC: 1.58412 cumulative IPC: 1.56042 (Simulation time: 1 hr 5 min 53 sec) 
Heartbeat CPU 1 instructions: 140000000 cycles: 139004112 heartbeat IPC: 0.946959 cumulative IPC: 0.934577 (Simulation time: 1 hr 7 min 38 sec) 
Heartbeat CPU 0 instructions: 230000003 cycles: 141285169 heartbeat IPC: 1.58635 cumulative IPC: 1.56299 (Simulation time: 1 hr 8 min 39 sec) 
Heartbeat CPU 3 instructions: 230000000 cycles: 141360908 heartbeat IPC: 1.58137 cumulative IPC: 1.56145 (Simulation time: 1 hr 8 min 41 sec) 
Heartbeat CPU 4 instructions: 80000000 cycles: 144628621 heartbeat IPC: 0.443753 cumulative IPC: 0.400193 (Simulation time: 1 hr 10 min 8 sec) 
Heartbeat CPU 2 instructions: 170000002 cycles: 144629830 heartbeat IPC: 0.996086 cumulative IPC: 0.996584 (Simulation time: 1 hr 10 min 8 sec) 
Heartbeat CPU 3 instructions: 240000000 cycles: 147557177 heartbeat IPC: 1.61387 cumulative IPC: 1.56386 (Simulation time: 1 hr 11 min 26 sec) 
Heartbeat CPU 0 instructions: 240000000 cycles: 147613384 heartbeat IPC: 1.58022 cumulative IPC: 1.5638 (Simulation time: 1 hr 11 min 27 sec) 
Heartbeat CPU 1 instructions: 150000001 cycles: 149608651 heartbeat IPC: 0.942993 cumulative IPC: 0.935229 (Simulation time: 1 hr 12 min 20 sec) 
Heartbeat CPU 6 instructions: 120000000 cycles: 149739323 heartbeat IPC: 0.653047 cumulative IPC: 0.675826 (Simulation time: 1 hr 12 min 23 sec) 
Heartbeat CPU 7 instructions: 80000000 cycles: 150732449 heartbeat IPC: 0.436709 cumulative IPC: 0.434965 (Simulation time: 1 hr 12 min 49 sec) 
Heartbeat CPU 5 instructions: 70000002 cycles: 151818545 heartbeat IPC: 0.559567 cumulative IPC: 0.34534 (Simulation time: 1 hr 13 min 18 sec) 
Heartbeat CPU 3 instructions: 250000000 cycles: 153834655 heartbeat IPC: 1.593 cumulative IPC: 1.56515 (Simulation time: 1 hr 14 min 11 sec) 
Heartbeat CPU 0 instructions: 250000003 cycles: 154082968 heartbeat IPC: 1.54569 cumulative IPC: 1.56297 (Simulation time: 1 hr 14 min 18 sec) 
Heartbeat CPU 2 instructions: 180000000 cycles: 154689483 heartbeat IPC: 0.99407 cumulative IPC: 0.996405 (Simulation time: 1 hr 14 min 34 sec) 
Heartbeat CPU 3 instructions: 260000000 cycles: 160102697 heartbeat IPC: 1.59539 cumulative IPC: 1.56644 (Simulation time: 1 hr 17 min 6 sec) 
Heartbeat CPU 1 instructions: 160000000 cycles: 160249204 heartbeat IPC: 0.939801 cumulative IPC: 0.935559 (Simulation time: 1 hr 17 min 10 sec) 
Heartbeat CPU 0 instructions: 260000000 cycles: 160453671 heartbeat IPC: 1.56968 cumulative IPC: 1.56326 (Simulation time: 1 hr 17 min 16 sec) 
Finished CPU 6 instructions: 100000000 cycles: 148284151 cumulative IPC: 0.674381 (Simulation time: 1 hr 17 min 33 sec) 
Heartbeat CPU 4 instructions: 90000002 cycles: 163466074 heartbeat IPC: 0.530857 cumulative IPC: 0.416528 (Simulation time: 1 hr 18 min 41 sec) 
Heartbeat CPU 2 instructions: 190000003 cycles: 164720935 heartbeat IPC: 0.996865 cumulative IPC: 0.996436 (Simulation time: 1 hr 19 min 21 sec) 
Heartbeat CPU 6 instructions: 130000000 cycles: 164837355 heartbeat IPC: 0.662338 cumulative IPC: 0.674487 (Simulation time: 1 hr 19 min 24 sec) 
Heartbeat CPU 3 instructions: 270000002 cycles: 166476630 heartbeat IPC: 1.56889 cumulative IPC: 1.56654 (Simulation time: 1 hr 20 min 14 sec) 
Heartbeat CPU 0 instructions: 270000003 cycles: 166893662 heartbeat IPC: 1.5528 cumulative IPC: 1.56282 (Simulation time: 1 hr 20 min 26 sec) 
Heartbeat CPU 5 instructions: 80000000 cycles: 169186586 heartbeat IPC: 0.57577 cumulative IPC: 0.37093 (Simulation time: 1 hr 21 min 37 sec) 
Heartbeat CPU 1 instructions: 170000000 cycles: 170747308 heartbeat IPC: 0.952553 cumulative IPC: 0.936688 (Simulation time: 1 hr 22 min 18 sec) 
Heartbeat CPU 3 instructions: 280000000 cycles: 172861539 heartbeat IPC: 1.56619 cumulative IPC: 1.56653 (Simulation time: 1 hr 23 min 14 sec) 
Heartbeat CPU 0 instructions: 280000000 cycles: 173548592 heartbeat IPC: 1.50265 cumulative IPC: 1.56033 (Simulation time: 1 hr 23 min 32 sec) 
Heartbeat CPU 7 instructions: 90000000 cycles: 173758799 heartbeat IPC: 0.434285 cumulative IPC: 0.434868 (Simulation time: 1 hr 23 min 37 sec) 
Heartbeat CPU 2 instructions: 200000000 cycles: 174730255 heartbeat IPC: 0.999069 cumulative IPC: 0.996598 (Simulation time: 1 hr 24 min 2 sec) 
Heartbeat CPU 3 instructions: 290000002 cycles: 179109065 heartbeat IPC: 1.60063 cumulative IPC: 1.56781 (Simulation time: 1 hr 25 min 55 sec) 
Heartbeat CPU 6 instructions: 140000000 cycles: 179666234 heartbeat IPC: 0.67436 cumulative IPC: 0.674475 (Simulation time: 1 hr 26 min 9 sec) 
Heartbeat CPU 0 instructions: 290000001 cycles: 179976003 heartbeat IPC: 1.55584 cumulative IPC: 1.56016 (Simulation time: 1 hr 26 min 17 sec) 
Heartbeat CPU 1 instructions: 180000000 cycles: 181291601 heartbeat IPC: 0.94838 cumulative IPC: 0.93742 (Simulation time: 1 hr 26 min 51 sec) 
Heartbeat CPU 2 instructions: 210000002 cycles: 184650961 heartbeat IPC: 1.00799 cumulative IPC: 0.997256 (Simulation time: 1 hr 28 min 16 sec) 
Heartbeat CPU 3 instructions: 300000000 cycles: 185431798 heartbeat IPC: 1.58159 cumulative IPC: 1.56831 (Simulation time: 1 hr 28 min 36 sec) 
Heartbeat CPU 4 instructions: 100000000 cycles: 185913645 heartbeat IPC: 0.445482 cumulative IPC: 0.420283 (Simulation time: 1 hr 28 min 48 sec) 
Heartbeat CPU 0 instructions: 300000000 cycles: 186431782 heartbeat IPC: 1.549 cumulative IPC: 1.55974 (Simulation time: 1 hr 29 min 1 sec) 
Heartbeat CPU 3 instructions: 310000003 cycles: 191763911 heartbeat IPC: 1.57925 cumulative IPC: 1.5687 (Simulation time: 1 hr 31 min 17 sec) 
Heartbeat CPU 1 instructions: 190000002 cycles: 191916416 heartbeat IPC: 0.941193 cumulative IPC: 0.937644 (Simulation time: 1 hr 31 min 21 sec) 
Heartbeat CPU 0 instructions: 310000000 cycles: 192734991 heartbeat IPC: 1.58649 cumulative IPC: 1.56068 (Simulation time: 1 hr 31 min 42 sec) 
Heartbeat CPU 5 instructions: 90000003 cycles: 193163052 heartbeat IPC: 0.417076 cumulative IPC: 0.377064 (Simulation time: 1 hr 31 min 53 sec) 
Heartbeat CPU 6 instructions: 150000000 cycles: 194333928 heartbeat IPC: 0.68177 cumulative IPC: 0.675065 (Simulation time: 1 hr 32 min 23 sec) 
Heartbeat CPU 2 instructions: 220000000 cycles: 194642148 heartbeat IPC: 1.00088 cumulative IPC: 0.997455 (Simulation time: 1 hr 32 min 30 sec) 
Heartbeat CPU 7 instructions: 100000000 cycles: 197098364 heartbeat IPC: 0.428457 cumulative IPC: 0.434056 (Simulation time: 1 hr 33 min 32 sec) 
Heartbeat CPU 3 instructions: 320000000 cycles: 198089611 heartbeat IPC: 1.58085 cumulative IPC: 1.56912 (Simulation time: 1 hr 33 min 57 sec) 
Heartbeat CPU 0 instructions: 320000000 cycles: 199300085 heartbeat IPC: 1.52321 cumulative IPC: 1.55936 (Simulation time: 1 hr 34 min 28 sec) 
Heartbeat CPU 1 instructions: 200000000 cycles: 202512081 heartbeat IPC: 0.943782 cumulative IPC: 0.937986 (Simulation time: 1 hr 35 min 52 sec) 
Heartbeat CPU 3 instructions: 330000003 cycles: 204399067 heartbeat IPC: 1.58492 cumulative IPC: 1.56964 (Simulation time: 1 hr 36 min 40 sec) 
Heartbeat CPU 2 instructions: 230000000 cycles: 204676944 heartbeat IPC: 0.996532 cumulative IPC: 0.997407 (Simulation time: 1 hr 36 min 48 sec) 
Heartbeat CPU 0 instructions: 330000002 cycles: 205653957 heartbeat IPC: 1.57384 cumulative IPC: 1.55984 (Simulation time: 1 hr 37 min 12 sec) 
Heartbeat CPU 6 instructions: 160000000 cycles: 209225395 heartbeat IPC: 0.671526 cumulative IPC: 0.674796 (Simulation time: 1 hr 38 min 44 sec) 
Heartbeat CPU 3 instructions: 340000000 cycles: 210566709 heartbeat IPC: 1.62136 cumulative IPC: 1.57125 (Simulation time: 1 hr 39 min 19 sec) 
Heartbeat CPU 0 instructions: 340000000 cycles: 212195141 heartbeat IPC: 1.52877 cumulative IPC: 1.55882 (Simulation time: 1 hr 40 min 0 sec) 
Heartbeat CPU 1 instructions: 210000002 cycles: 213182718 heartbeat IPC: 0.937151 cumulative IPC: 0.937942 (Simulation time: 1 hr 40 min 24 sec) 
Heartbeat CPU 2 instructions: 240000000 cycles: 214698950 heartbeat IPC: 0.997804 cumulative IPC: 0.997427 (Simulation time: 1 hr 41 min 2 sec) 
Heartbeat CPU 5 instructions: 100000000 cycles: 216178749 heartbeat IPC: 0.434486 cumulative IPC: 0.383562 (Simulation time: 1 hr 41 min 39 sec) 
Heartbeat CPU 3 instructions: 350000002 cycles: 218255710 heartbeat IPC: 1.30056 cumulative IPC: 1.56112 (Simulation time: 1 hr 42 min 30 sec) 
Heartbeat CPU 4 instructions: 110000000 cycles: 218822819 heartbeat IPC: 0.303867 cumulative IPC: 0.401688 (Simulation time: 1 hr 42 min 44 sec) 
Heartbeat CPU 0 instructions: 350000002 cycles: 219033675 heartbeat IPC: 1.4623 cumulative IPC: 1.55562 (Simulation time: 1 hr 42 min 50 sec) 
Heartbeat CPU 7 instructions: 110000002 cycles: 220519633 heartbeat IPC: 0.426962 cumulative IPC: 0.433256 (Simulation time: 1 hr 43 min 28 sec) 
Heartbeat CPU 1 instructions: 220000000 cycles: 223828094 heartbeat IPC: 0.939375 cumulative IPC: 0.938014 (Simulation time: 1 hr 44 min 54 sec) 
Heartbeat CPU 6 instructions: 170000003 cycles: 224088820 heartbeat IPC: 0.672793 cumulative IPC: 0.674655 (Simulation time: 1 hr 45 min 1 sec) 
Heartbeat CPU 2 instructions: 250000001 cycles: 224709158 heartbeat IPC: 0.99898 cumulative IPC: 0.9975 (Simulation time: 1 hr 45 min 17 sec) 
Heartbeat CPU 3 instructions: 360000000 cycles: 224870180 heartbeat IPC: 1.51184 cumulative IPC: 1.55958 (Simulation time: 1 hr 45 min 21 sec) 
Heartbeat CPU 0 instructions: 360000000 cycles: 225165824 heartbeat IPC: 1.63075 cumulative IPC: 1.55779 (Simulation time: 1 hr 45 min 29 sec) 
Heartbeat CPU 3 instructions: 370000002 cycles: 231125664 heartbeat IPC: 1.5986 cumulative IPC: 1.5607 (Simulation time: 1 hr 48 min 1 sec) 
Heartbeat CPU 0 instructions: 370000003 cycles: 231462037 heartbeat IPC: 1.58826 cumulative IPC: 1.55866 (Simulation time: 1 hr 48 min 9 sec) 
Heartbeat CPU 1 instructions: 230000000 cycles: 234373558 heartbeat IPC: 0.948275 cumulative IPC: 0.938503 (Simulation time: 1 hr 49 min 23 sec) 
Heartbeat CPU 2 instructions: 260000000 cycles: 234689564 heartbeat IPC: 1.00196 cumulative IPC: 0.997701 (Simulation time: 1 hr 49 min 32 sec) 
Heartbeat CPU 3 instructions: 380000000 cycles: 237475900 heartbeat IPC: 1.57474 cumulative IPC: 1.5611 (Simulation time: 1 hr 50 min 44 sec) 
Heartbeat CPU 0 instructions: 380000000 cycles: 237650921 heartbeat IPC: 1.6158 cumulative IPC: 1.56024 (Simulation time: 1 hr 50 min 49 sec) 
Heartbeat CPU 5 instructions: 110000000 cycles: 238296398 heartbeat IPC: 0.452128 cumulative IPC: 0.390287 (Simulation time: 1 hr 51 min 5 sec) 
Heartbeat CPU 6 instructions: 180000000 cycles: 238727084 heartbeat IPC: 0.683141 cumulative IPC: 0.675205 (Simulation time: 1 hr 51 min 16 sec) 
Heartbeat CPU 3 instructions: 390000000 cycles: 243806691 heartbeat IPC: 1.57958 cumulative IPC: 1.5616 (Simulation time: 1 hr 53 min 26 sec) 
Heartbeat CPU 7 instructions: 120000000 cycles: 243841912 heartbeat IPC: 0.428774 cumulative IPC: 0.432804 (Simulation time: 1 hr 53 min 27 sec) 
Finished CPU 7 instructions: 100000000 cycles: 231051466 cumulative IPC: 0.432804 (Simulation time: 1 hr 53 min 27 sec) 
Heartbeat CPU 0 instructions: 390000003 cycles: 243998132 heartbeat IPC: 1.5755 cumulative IPC: 1.56066 (Simulation time: 1 hr 53 min 31 sec) 
Heartbeat CPU 2 instructions: 270000000 cycles: 244648566 heartbeat IPC: 1.00412 cumulative IPC: 0.997977 (Simulation time: 1 hr 53 min 47 sec) 
Heartbeat CPU 1 instructions: 240000000 cycles: 245278836 heartbeat IPC: 0.916987 cumulative IPC: 0.937493 (Simulation time: 1 hr 54 min 3 sec) 
Heartbeat CPU 3 instructions: 400000000 cycles: 250150262 heartbeat IPC: 1.5764 cumulative IPC: 1.562 (Simulation time: 1 hr 56 min 5 sec) 
Heartbeat CPU 0 instructions: 400000000 cycles: 250288977 heartbeat IPC: 1.58961 cumulative IPC: 1.56142 (Simulation time: 1 hr 56 min 9 sec) 
Heartbeat CPU 4 instructions: 120000000 cycles: 251908133 heartbeat IPC: 0.302249 cumulative IPC: 0.387929 (Simulation time: 1 hr 56 min 48 sec) 
Heartbeat CPU 6 instructions: 190000000 cycles: 253492822 heartbeat IPC: 0.677243 cumulative IPC: 0.67533 (Simulation time: 1 hr 57 min 28 sec) 
Heartbeat CPU 2 instructions: 280000000 cycles: 254713020 heartbeat IPC: 0.993596 cumulative IPC: 0.997794 (Simulation time: 1 hr 57 min 58 sec) 
Heartbeat CPU 1 instructions: 250000003 cycles: 255985350 heartbeat IPC: 0.934011 cumulative IPC: 0.93734 (Simulation time: 1 hr 58 min 29 sec) 
Heartbeat CPU 0 instructions: 410000000 cycles: 256586707 heartbeat IPC: 1.58787 cumulative IPC: 1.56211 (Simulation time: 1 hr 58 min 43 sec) 
Heartbeat CPU 3 instructions: 410000000 cycles: 259512930 heartbeat IPC: 1.06807 cumulative IPC: 1.54326 (Simulation time: 1 hr 59 min 56 sec) 
Heartbeat CPU 5 instructions: 120000000 cycles: 262026965 heartbeat IPC: 0.421397 cumulative IPC: 0.393249 (Simulation time: 2 hr 0 min 54 sec) 
Heartbeat CPU 0 instructions: 420000000 cycles: 263468763 heartbeat IPC: 1.45305 cumulative IPC: 1.55911 (Simulation time: 2 hr 1 min 29 sec) 
Heartbeat CPU 2 instructions: 290000002 cycles: 264769035 heartbeat IPC: 0.99443 cumulative IPC: 0.99766 (Simulation time: 2 hr 2 min 0 sec) 
Heartbeat CPU 3 instructions: 420000000 cycles: 266315713 heartbeat IPC: 1.46999 cumulative IPC: 1.54129 (Simulation time: 2 hr 2 min 38 sec) 
Heartbeat CPU 1 instructions: 260000000 cycles: 266592019 heartbeat IPC: 0.942803 cumulative IPC: 0.937568 (Simulation time: 2 hr 2 min 45 sec) 
Finished CPU 5 instructions: 100000001 cycles: 253970743 cumulative IPC: 0.393746 (Simulation time: 2 hr 2 min 49 sec) 
Heartbeat CPU 7 instructions: 130000000 cycles: 267021613 heartbeat IPC: 0.431412 cumulative IPC: 0.432677 (Simulation time: 2 hr 2 min 55 sec) 
Heartbeat CPU 6 instructions: 200000000 cycles: 268228114 heartbeat IPC: 0.678643 cumulative IPC: 0.675521 (Simulation time: 2 hr 3 min 24 sec) 
Heartbeat CPU 0 instructions: 430000001 cycles: 269494079 heartbeat IPC: 1.65966 cumulative IPC: 1.56147 (Simulation time: 2 hr 3 min 54 sec) 
Finished CPU 4 instructions: 100000001 cycles: 256951416 cumulative IPC: 0.389179 (Simulation time: 2 hr 4 min 0 sec) 

CPU 0 Branch Prediction Accuracy: 96.9111% MPKI: 4.11384

CPU 1 Branch Prediction Accuracy: 99.9835% MPKI: 0.00109897

CPU 2 Branch Prediction Accuracy: 98.9362% MPKI: 0.195044

CPU 3 Branch Prediction Accuracy: 96.9604% MPKI: 4.15561

CPU 4 Branch Prediction Accuracy: 99.846% MPKI: 0.0927925

CPU 5 Branch Prediction Accuracy: 99.7604% MPKI: 0.0907731

CPU 6 Branch Prediction Accuracy: 96.6379% MPKI: 4.30856

CPU 7 Branch Prediction Accuracy: 85.9283% MPKI: 16.2862

ChampSim completed all CPUs

Total Simulation Statistics (not including warmup)

CPU 0 cumulative IPC: 1.56157 instructions: 401247007 cycles: 256951416
L1D TOTAL     ACCESS:  118203556  HIT:  118203451  MISS:        105
L1D LOAD      ACCESS:   51394120  HIT:   51394085  MISS:         35
L1D RFO       ACCESS:   66809436  HIT:   66809366  MISS:         70
L1D PREFETCH  ACCESS:          0  HIT:          0  MISS:          0
L1D WRITEBACK ACCESS:          0  HIT:          0  MISS:          0
L1I TOTAL     ACCESS:   87950330  HIT:   87947968  MISS:       2362
L1I LOAD      ACCESS:   87950330  HIT:   87947968  MISS:       2362
L1I RFO       ACCESS:          0  HIT:          0  MISS:          0
L1I PREFETCH  ACCESS:          0  HIT:          0  MISS:          0
L1I WRITEBACK ACCESS:          0  HIT:          0  MISS:          0
L2C TOTAL     ACCESS:       2467  HIT:       1393  MISS:       1074
L2C LOAD      ACCESS:       2397  HIT:       1393  MISS:       1004
L2C RFO       ACCESS:         70  HIT:          0  MISS:         70
L2C PREFETCH  ACCESS:          0  HIT:          0  MISS:          0
L2C WRITEBACK ACCESS:          0  HIT:          0  MISS:          0
LLC TOTAL     ACCESS:       1074  HIT:          0  MISS:       1074
LLC LOAD      ACCESS:       1004  HIT:          0  MISS:       1004
LLC RFO       ACCESS:         70  HIT:          0  MISS:         70
LLC PREFETCH  ACCESS:          0  HIT:          0  MISS:          0
LLC WRITEBACK ACCESS:          0  HIT:          0  MISS:          0

CPU 1 cumulative IPC: 0.937572 instructions: 240910450 cycles: 256951416
L1D TOTAL     ACCESS:   96663678  HIT:   77345526  MISS:   19318152
L1D LOAD      ACCESS:   77370598  HIT:   59634572  MISS:   17736026
L1D RFO       ACCESS:   19293080  HIT:   17710954  MISS:    1582126
L1D PREFETCH  ACCESS:          0  HIT:          0  MISS:          0
L1D WRITEBACK ACCESS:          0  HIT:          0  MISS:          0
L1I TOTAL     ACCESS:   57539376  HIT:   51275739  MISS:    6263637
L1I LOAD      ACCESS:   57539376  HIT:   51275739  MISS:    6263637
L1I RFO       ACCESS:          0  HIT:          0  MISS:          0
L1I PREFETCH  ACCESS:          0  HIT:          0  MISS:          0
L1I WRITEBACK ACCESS:          0  HIT:          0  MISS:          0
L2C TOTAL     ACCESS:   27355385  HIT:   25165915  MISS:    2189470
L2C LOAD      ACCESS:   23998458  HIT:   22010319  MISS:    1988139
L2C RFO       ACCESS:    1580955  HIT:    1380095  MISS:     200860
L2C PREFETCH  ACCESS:          0  HIT:          0  MISS:          0
L2C WRITEBACK ACCESS:    1775972  HIT:    1775501  MISS:        471
LLC TOTAL     ACCESS:    2378226  HIT:    1736661  MISS:     641565
LLC LOAD      ACCESS:    1988106  HIT:    1488649  MISS:     499457
LLC RFO       ACCESS:     187934  HIT:      46159  MISS:     141775
LLC PREFETCH  ACCESS:          0  HIT:          0  MISS:          0
LLC WRITEBACK ACCESS:     202186  HIT:     201853  MISS:        333

CPU 2 cumulative IPC: 0.997572 instructions: 256327616 cycles: 256951416
L1D TOTAL     ACCESS:   21368750  HIT:   21261500  MISS:     107250
L1D LOAD      ACCESS:   16006250  HIT:   15899000  MISS:     107250
L1D RFO       ACCESS:    5362500  HIT:    5362500  MISS:          0
L1D PREFETCH  ACCESS:          0  HIT:          0  MISS:          0
L1D WRITEBACK ACCESS:          0  HIT:          0  MISS:          0
L1I TOTAL     ACCESS:   66154844  HIT:   66154844  MISS:          0
L1I LOAD      ACCESS:   66154844  HIT:   66154844  MISS:          0
L1I RFO       ACCESS:          0  HIT:          0  MISS:          0
L1I PREFETCH  ACCESS:          0  HIT:          0  MISS:          0
L1I WRITEBACK ACCESS:          0  HIT:          0  MISS:          0
L2C TOTAL     ACCESS:     107250  HIT:          0  MISS:     107250
L2C LOAD      ACCESS:     107250  HIT:          0  MISS:     107250
L2C RFO       ACCESS:          0  HIT:          0  MISS:          0
L2C PREFETCH  ACCESS:          0  HIT:          0  MISS:          0
L2C WRITEBACK ACCESS:          0  HIT:          0  MISS:          0
LLC TOTAL     ACCESS:     107250  HIT:          0  MISS:     107250
LLC LOAD      ACCESS:     107250  HIT:          0  MISS:     107250
LLC RFO       ACCESS:          0  HIT:          0  MISS:          0
LLC PREFETCH  ACCESS:          0  HIT:          0  MISS:          0
LLC WRITEBACK ACCESS:          0  HIT:          0  MISS:          0

CPU 3 cumulative IPC: 1.54226 instructions: 396284773 cycles: 256951416
L1D TOTAL     ACCESS:  107541746  HIT:  107541603  MISS:        143
L1D LOAD      ACCESS:   47233410  HIT:   47233367  MISS:         43
L1D RFO       ACCESS:   60308336  HIT:   60308236  MISS:        100
L1D PREFETCH  ACCESS:          0  HIT:          0  MISS:          0
L1D WRITEBACK ACCESS:          0  HIT:          0  MISS:          0
L1I TOTAL     ACCESS:   85931656  HIT:   85920833  MISS:      10823
L1I LOAD      ACCESS:   85931656  HIT:   85920833  MISS:      10823
L1I RFO       ACCESS:          0  HIT:          0  MISS:          0
L1I PREFETCH  ACCESS:          0  HIT:          0  MISS:          0
L1I WRITEBACK ACCESS:          0  HIT:          0  MISS:          0
L2C TOTAL     ACCESS:      10966  HIT:       9808  MISS:       1158
L2C LOAD      ACCESS:      10866  HIT:       9808  MISS:       1058
L2C RFO       ACCESS:        100  HIT:          0  MISS:        100
L2C PREFETCH  ACCESS:          0  HIT:          0  MISS:          0
L2C WRITEBACK ACCESS:          0  HIT:          0  MISS:          0
LLC TOTAL     ACCESS:       1158  HIT:          0  MISS:       1158
LLC LOAD      ACCESS:       1058  HIT:          0  MISS:       1058
LLC RFO       ACCESS:        100  HIT:          0  MISS:        100
LLC PREFETCH  ACCESS:          0  HIT:          0  MISS:          0
LLC WRITEBACK ACCESS:          0  HIT:          0  MISS:          0

CPU 4 cumulative IPC: 0.389179 instructions: 100000001 cycles: 256951416
L1D TOTAL     ACCESS:   24398259  HIT:   21754769  MISS:    2643490
L1D LOAD      ACCESS:   20394513  HIT:   18341665  MISS:    2052848
L1D RFO       ACCESS:    4003746  HIT:    3413104  MISS:     590642
L1D PREFETCH  ACCESS:          0  HIT:          0  MISS:          0
L1D WRITEBACK ACCESS:          0  HIT:          0  MISS:          0
L1I TOTAL     ACCESS:   25737831  HIT:   25737777  MISS:         54
L1I LOAD      ACCESS:   25737831  HIT:   25737777  MISS:         54
L1I RFO       ACCESS:          0  HIT:          0  MISS:          0
L1I PREFETCH  ACCESS:          0  HIT:          0  MISS:          0
L1I WRITEBACK ACCESS:          0  HIT:          0  MISS:          0
L2C TOTAL     ACCESS:    3439052  HIT:    1117203  MISS:    2321849
L2C LOAD      ACCESS:    2052901  HIT:     321720  MISS:    1731181
L2C RFO       ACCESS:     590642  HIT:          3  MISS:     590639
L2C PREFETCH  ACCESS:          0  HIT:          0  MISS:          0
L2C WRITEBACK ACCESS:     795509  HIT:     795480  MISS:         29
LLC TOTAL     ACCESS:    3112184  HIT:     961325  MISS:    2150859
LLC LOAD      ACCESS:    1731181  HIT:     167864  MISS:    1563317
LLC RFO       ACCESS:     590639  HIT:       3118  MISS:     587521
LLC PREFETCH  ACCESS:          0  HIT:          0  MISS:          0
LLC WRITEBACK ACCESS:     790364  HIT:     790343  MISS:         21

CPU 5 cumulative IPC: 0.394033 instructions: 101247422 cycles: 256951416
L1D TOTAL     ACCESS:   21665042  HIT:   18657435  MISS:    3007607
L1D LOAD      ACCESS:   17218017  HIT:   14975472  MISS:    2242545
L1D RFO       ACCESS:    4447025  HIT:    3681963  MISS:     765062
L1D PREFETCH  ACCESS:          0  HIT:          0  MISS:          0
L1D WRITEBACK ACCESS:          0  HIT:          0  MISS:          0
L1I TOTAL     ACCESS:   24088428  HIT:   24088114  MISS:        314
L1I LOAD      ACCESS:   24088428  HIT:   24088114  MISS:        314
L1I RFO       ACCESS:          0  HIT:          0  MISS:          0
L1I PREFETCH  ACCESS:          0  HIT:          0  MISS:          0
L1I WRITEBACK ACCESS:          0  HIT:          0  MISS:          0
L2C TOTAL     ACCESS:    3945710  HIT:    1510836  MISS:    2434874
L2C LOAD      ACCESS:    2242846  HIT:     573116  MISS:    1669730
L2C RFO       ACCESS:     765062  HIT:          7  MISS:     765055
L2C PREFETCH  ACCESS:          0  HIT:          0  MISS:          0
L2C WRITEBACK ACCESS:     937802  HIT:     937713  MISS:         89
LLC TOTAL     ACCESS:    3366777  HIT:    1151197  MISS:    2215580
LLC LOAD      ACCESS:    1669730  HIT:     172728  MISS:    1497002
LLC RFO       ACCESS:     765055  HIT:      46512  MISS:     718543
LLC PREFETCH  ACCESS:          0  HIT:          0  MISS:          0
LLC WRITEBACK ACCESS:     931992  HIT:     931957  MISS:         35

CPU 6 cumulative IPC: 0.675409 instructions: 173547397 cycles: 256951416
L1D TOTAL     ACCESS:   44846415  HIT:   43684187  MISS:    1162228
L1D LOAD      ACCESS:   27243711  HIT:   26137785  MISS:    1105926
L1D RFO       ACCESS:   17602704  HIT:   17546402  MISS:      56302
L1D PREFETCH  ACCESS:          0  HIT:          0  MISS:          0
L1D WRITEBACK ACCESS:          0  HIT:          0  MISS:          0
L1I TOTAL     ACCESS:   37879150  HIT:   37879150  MISS:          0
L1I LOAD      ACCESS:   37879150  HIT:   37879150  MISS:          0
L1I RFO       ACCESS:          0  HIT:          0  MISS:          0
L1I PREFETCH  ACCESS:          0  HIT:          0  MISS:          0
L1I WRITEBACK ACCESS:          0  HIT:          0  MISS:          0
L2C TOTAL     ACCESS:    1251910  HIT:     509941  MISS:     741969
L2C LOAD      ACCESS:    1105926  HIT:     395929  MISS:     709997
L2C RFO       ACCESS:      56302  HIT:      25401  MISS:      30901
L2C PREFETCH  ACCESS:          0  HIT:          0  MISS:          0
L2C WRITEBACK ACCESS:      89682  HIT:      88611  MISS:       1071
LLC TOTAL     ACCESS:     774676  HIT:     729251  MISS:      45425
LLC LOAD      ACCESS:     709997  HIT:     692387  MISS:      17610
LLC RFO       ACCESS:      30901  HIT:       5167  MISS:      25734
LLC PREFETCH  ACCESS:          0  HIT:          0  MISS:          0
LLC WRITEBACK ACCESS:      33778  HIT:      31697  MISS:       2081

CPU 7 cumulative IPC: 0.432662 instructions: 111173204 cycles: 256951416
L1D TOTAL     ACCESS:   36582783  HIT:   36132294  MISS:     450489
L1D LOAD      ACCESS:   23094646  HIT:   22770790  MISS:     323856
L1D RFO       ACCESS:   13488137  HIT:   13361504  MISS:     126633
L1D PREFETCH  ACCESS:          0  HIT:          0  MISS:          0
L1D WRITEBACK ACCESS:          0  HIT:          0  MISS:          0
L1I TOTAL     ACCESS:   26305018  HIT:   26265762  MISS:      39256
L1I LOAD      ACCESS:   26305018  HIT:   26265762  MISS:      39256
L1I RFO       ACCESS:          0  HIT:          0  MISS:          0
L1I PREFETCH  ACCESS:          0  HIT:          0  MISS:          0
L1I WRITEBACK ACCESS:          0  HIT:          0  MISS:          0
L2C TOTAL     ACCESS:     681263  HIT:     677766  MISS:       3497
L2C LOAD      ACCESS:     363111  HIT:     360346  MISS:       2765
L2C RFO       ACCESS:     126625  HIT:     125911  MISS:        714
L2C PREFETCH  ACCESS:          0  HIT:          0  MISS:          0
L2C WRITEBACK ACCESS:     191527  HIT:     191509  MISS:         18
LLC TOTAL     ACCESS:       4260  HIT:        472  MISS:       3788
LLC LOAD      ACCESS:       2765  HIT:        372  MISS:       2393
LLC RFO       ACCESS:        714  HIT:          2  MISS:        712
LLC PREFETCH  ACCESS:          0  HIT:          0  MISS:          0
LLC WRITEBACK ACCESS:        781  HIT:         98  MISS:        683

Region of Interest Statistics

CPU 0 cumulative IPC: 1.57914 instructions: 100000002 cycles: 63325732
L1D TOTAL     ACCESS:   29648725  HIT:   29648723  MISS:          2
L1D LOAD      ACCESS:   12861389  HIT:   12861387  MISS:          2
L1D RFO       ACCESS:   16787336  HIT:   16787336  MISS:          0
L1D PREFETCH  ACCESS:          0  HIT:          0  MISS:          0
L1D WRITEBACK ACCESS:          0  HIT:          0  MISS:          0
L1D PREFETCH  REQUESTED:          0  ISSUED:          0  USEFUL:          0  USELESS:          0
L1I TOTAL     ACCESS:   21912553  HIT:   21912553  MISS:          0
L1I LOAD      ACCESS:   21912553  HIT:   21912553  MISS:          0
L1I RFO       ACCESS:          0  HIT:          0  MISS:          0
L1I PREFETCH  ACCESS:          0  HIT:          0  MISS:          0
L1I WRITEBACK ACCESS:          0  HIT:          0  MISS:          0
L1I PREFETCH  REQUESTED:          0  ISSUED:          0  USEFUL:          0  USELESS:          0
L2C TOTAL     ACCESS:          2  HIT:          0  MISS:          2
L2C LOAD      ACCESS:          2  HIT:          0  MISS:          2
L2C RFO       ACCESS:          0  HIT:          0  MISS:          0
L2C PREFETCH  ACCESS:          0  HIT:          0  MISS:          0
L2C WRITEBACK ACCESS:          0  HIT:          0  MISS:          0
L2C PREFETCH  REQUESTED:          0  ISSUED:          0  USEFUL:          0  USELESS:          0
LLC TOTAL     ACCESS:          2  HIT:          0  MISS:          2
LLC LOAD      ACCESS:          2  HIT:          0  MISS:          2
LLC RFO       ACCESS:          0  HIT:          0  MISS:          0
LLC PREFETCH  ACCESS:          0  HIT:          0  MISS:          0
LLC WRITEBACK ACCESS:          0  HIT:          0  MISS:          0
LLC PREFETCH  REQUESTED:          0  ISSUED:          0  USEFUL:          0  USELESS:          0
Major fault: 0 Minor fault: 46

CPU 1 cumulative IPC: 0.933023 instructions: 100000002 cycles: 107178465
L1D TOTAL     ACCESS:   40122913  HIT:   32104471  MISS:    8018442
L1D LOAD      ACCESS:   32114519  HIT:   24752780  MISS:    7361739
L1D RFO       ACCESS:    8008394  HIT:    7351691  MISS:     656703
L1D PREFETCH  ACCESS:          0  HIT:          0  MISS:          0
L1D WRITEBACK ACCESS:          0  HIT:          0  MISS:          0
L1D PREFETCH  REQUESTED:          0  ISSUED:          0  USEFUL:          0  USELESS:          0
L1I TOTAL     ACCESS:   23882021  HIT:   21282036  MISS:    2599985
L1I LOAD      ACCESS:   23882021  HIT:   21282036  MISS:    2599985
L1I RFO       ACCESS:          0  HIT:          0  MISS:          0
L1I PREFETCH  ACCESS:          0  HIT:          0  MISS:          0
L1I WRITEBACK ACCESS:          0  HIT:          0  MISS:          0
L1I PREFETCH  REQUESTED:          0  ISSUED:          0  USEFUL:          0  USELESS:          0
L2C TOTAL     ACCESS:   11354508  HIT:   10439225  MISS:     915283
L2C LOAD      ACCESS:    9961232  HIT:    9130877  MISS:     830355
L2C RFO       ACCESS:     656226  HIT:     571480  MISS:      84746
L2C PREFETCH  ACCESS:          0  HIT:          0  MISS:          0
L2C WRITEBACK ACCESS:     737050  HIT:     736868  MISS:        182
L2C PREFETCH  REQUESTED:          0  ISSUED:          0  USEFUL:          0  USELESS:          0
LLC TOTAL     ACCESS:     994525  HIT:     727211  MISS:     267314
LLC LOAD      ACCESS:     830349  HIT:     622017  MISS:     208332
LLC RFO       ACCESS:      79041  HIT:      20191  MISS:      58850
LLC PREFETCH  ACCESS:          0  HIT:          0  MISS:          0
LLC WRITEBACK ACCESS:      85135  HIT:      85003  MISS:        132
LLC PREFETCH  REQUESTED:          0  ISSUED:          0  USEFUL:          0  USELESS:          0
Major fault: 0 Minor fault: 8599

CPU 2 cumulative IPC: 0.997648 instructions: 100000002 cycles: 100235770
L1D TOTAL     ACCESS:    8336540  HIT:    8294698  MISS:      41842
L1D LOAD      ACCESS:    6244468  HIT:    6202626  MISS:      41842
L1D RFO       ACCESS:    2092072  HIT:    2092072  MISS:          0
L1D PREFETCH  ACCESS:          0  HIT:          0  MISS:          0
L1D WRITEBACK ACCESS:          0  HIT:          0  MISS:          0
L1D PREFETCH  REQUESTED:          0  ISSUED:          0  USEFUL:          0  USELESS:          0
L1I TOTAL     ACCESS:   25808682  HIT:   25808682  MISS:          0
L1I LOAD      ACCESS:   25808682  HIT:   25808682  MISS:          0
L1I RFO       ACCESS:          0  HIT:          0  MISS:          0
L1I PREFETCH  ACCESS:          0  HIT:          0  MISS:          0
L1I WRITEBACK ACCESS:          0  HIT:          0  MISS:          0
L1I PREFETCH  REQUESTED:          0  ISSUED:          0  USEFUL:          0  USELESS:          0
L2C TOTAL     ACCESS:      41842  HIT:          0  MISS:      41842
L2C LOAD      ACCESS:      41842  HIT:          0  MISS:      41842
L2C RFO       ACCESS:          0  HIT:          0  MISS:          0
L2C PREFETCH  ACCESS:          0  HIT:          0  MISS:          0
L2C WRITEBACK ACCESS:          0  HIT:          0  MISS:          0
L2C PREFETCH  REQUESTED:          0  ISSUED:          0  USEFUL:          0  USELESS:          0
LLC TOTAL     ACCESS:      41842  HIT:          0  MISS:      41842
LLC LOAD      ACCESS:      41842  HIT:          0  MISS:      41842
LLC RFO       ACCESS:          0  HIT:          0  MISS:          0
LLC PREFETCH  ACCESS:          0  HIT:          0  MISS:          0
LLC WRITEBACK ACCESS:          0  HIT:          0  MISS:          0
LLC PREFETCH  REQUESTED:          0  ISSUED:          0  USEFUL:          0  USELESS:          0
Major fault: 0 Minor fault: 1933

CPU 3 cumulative IPC: 1.54693 instructions: 100000002 cycles: 64644025
L1D TOTAL     ACCESS:   27958399  HIT:   27958278  MISS:        121
L1D LOAD      ACCESS:   12289652  HIT:   12289614  MISS:         38
L1D RFO       ACCESS:   15668747  HIT:   15668664  MISS:         83
L1D PREFETCH  ACCESS:          0  HIT:          0  MISS:          0
L1D WRITEBACK ACCESS:          0  HIT:          0  MISS:          0
L1D PREFETCH  REQUESTED:          0  ISSUED:          0  USEFUL:          0  USELESS:          0
L1I TOTAL     ACCESS:   21664947  HIT:   21662630  MISS:       2317
L1I LOAD      ACCESS:   21664947  HIT:   21662630  MISS:       2317
L1I RFO       ACCESS:          0  HIT:          0  MISS:          0
L1I PREFETCH  ACCESS:          0  HIT:          0  MISS:          0
L1I WRITEBACK ACCESS:          0  HIT:          0  MISS:          0
L1I PREFETCH  REQUESTED:          0  ISSUED:          0  USEFUL:          0  USELESS:          0
L2C TOTAL     ACCESS:       2438  HIT:       1401  MISS:       1037
L2C LOAD      ACCESS:       2355  HIT:       1401  MISS:        954
L2C RFO       ACCESS:         83  HIT:          0  MISS:         83
L2C PREFETCH  ACCESS:          0  HIT:          0  MISS:          0
L2C WRITEBACK ACCESS:          0  HIT:          0  MISS:          0
L2C PREFETCH  REQUESTED:          0  ISSUED:          0  USEFUL:          0  USELESS:          0
LLC TOTAL     ACCESS:       1037  HIT:          0  MISS:       1037
LLC LOAD      ACCESS:        954  HIT:          0  MISS:        954
LLC RFO       ACCESS:         83  HIT:          0  MISS:         83
LLC PREFETCH  ACCESS:          0  HIT:          0  MISS:          0
LLC WRITEBACK ACCESS:          0  HIT:          0  MISS:          0
LLC PREFETCH  REQUESTED:          0  ISSUED:          0  USEFUL:          0  USELESS:          0
Major fault: 0 Minor fault: 47

CPU 4 cumulative IPC: 0.389179 instructions: 100000001 cycles: 256951416
L1D TOTAL     ACCESS:   24398259  HIT:   21754769  MISS:    2643490
L1D LOAD      ACCESS:   20394513  HIT:   18341665  MISS:    2052848
L1D RFO       ACCESS:    4003746  HIT:    3413104  MISS:     590642
L1D PREFETCH  ACCESS:          0  HIT:          0  MISS:          0
L1D WRITEBACK ACCESS:          0  HIT:          0  MISS:          0
L1D PREFETCH  REQUESTED:          0  ISSUED:          0  USEFUL:          0  USELESS:          0
L1I TOTAL     ACCESS:   25737831  HIT:   25737777  MISS:         54
L1I LOAD      ACCESS:   25737831  HIT:   25737777  MISS:         54
L1I RFO       ACCESS:          0  HIT:          0  MISS:          0
L1I PREFETCH  ACCESS:          0  HIT:          0  MISS:          0
L1I WRITEBACK ACCESS:          0  HIT:          0  MISS:          0
L1I PREFETCH  REQUESTED:          0  ISSUED:          0  USEFUL:          0  USELESS:          0
L2C TOTAL     ACCESS:    3439052  HIT:    1117203  MISS:    2321849
L2C LOAD      ACCESS:    2052901  HIT:     321720  MISS:    1731181
L2C RFO       ACCESS:     590642  HIT:          3  MISS:     590639
L2C PREFETCH  ACCESS:          0  HIT:          0  MISS:          0
L2C WRITEBACK ACCESS:     795509  HIT:     795480  MISS:         29
L2C PREFETCH  REQUESTED:          0  ISSUED:          0  USEFUL:          0  USELESS:          0
LLC TOTAL     ACCESS:    3112184  HIT:     961325  MISS:    2150859
LLC LOAD      ACCESS:    1731181  HIT:     167864  MISS:    1563317
LLC RFO       ACCESS:     590639  HIT:       3118  MISS:     587521
LLC PREFETCH  ACCESS:          0  HIT:          0  MISS:          0
LLC WRITEBACK ACCESS:     790364  HIT:     790343  MISS:         21
LLC PREFETCH  REQUESTED:          0  ISSUED:          0  USEFUL:          0  USELESS:          0
Major fault: 0 Minor fault: 26753

CPU 5 cumulative IPC: 0.393746 instructions: 100000001 cycles: 253970743
L1D TOTAL     ACCESS:   21459929  HIT:   18499583  MISS:    2960346
L1D LOAD      ACCESS:   17051830  HIT:   14845347  MISS:    2206483
L1D RFO       ACCESS:    4408099  HIT:    3654236  MISS:     753863
L1D PREFETCH  ACCESS:          0  HIT:          0  MISS:          0
L1D WRITEBACK ACCESS:          0  HIT:          0  MISS:          0
L1D PREFETCH  REQUESTED:          0  ISSUED:          0  USEFUL:          0  USELESS:          0
L1I TOTAL     ACCESS:   23797530  HIT:   23797243  MISS:        287
L1I LOAD      ACCESS:   23797530  HIT:   23797243  MISS:        287
L1I RFO       ACCESS:          0  HIT:          0  MISS:          0
L1I PREFETCH  ACCESS:          0  HIT:          0  MISS:          0
L1I WRITEBACK ACCESS:          0  HIT:          0  MISS:          0
L1I PREFETCH  REQUESTED:          0  ISSUED:          0  USEFUL:          0  USELESS:          0
L2C TOTAL     ACCESS:    3886877  HIT:    1475589  MISS:    2411288
L2C LOAD      ACCESS:    2206757  HIT:     549417  MISS:    1657340
L2C RFO       ACCESS:     753863  HIT:          4  MISS:     753859
L2C PREFETCH  ACCESS:          0  HIT:          0  MISS:          0
L2C WRITEBACK ACCESS:     926257  HIT:     926168  MISS:         89
L2C PREFETCH  REQUESTED:          0  ISSUED:          0  USEFUL:          0  USELESS:          0
LLC TOTAL     ACCESS:    3331607  HIT:    1138408  MISS:    2193199
LLC LOAD      ACCESS:    1657340  HIT:     172413  MISS:    1484927
LLC RFO       ACCESS:     753859  HIT:      45622  MISS:     708237
LLC PREFETCH  ACCESS:          0  HIT:          0  MISS:          0
LLC WRITEBACK ACCESS:     920408  HIT:     920373  MISS:         35
LLC PREFETCH  REQUESTED:          0  ISSUED:          0  USEFUL:          0  USELESS:          0
Major fault: 0 Minor fault: 34340

CPU 6 cumulative IPC: 0.674381 instructions: 100000000 cycles: 148284151
L1D TOTAL     ACCESS:   25842827  HIT:   25168933  MISS:     673894
L1D LOAD      ACCESS:   15693627  HIT:   15052195  MISS:     641432
L1D RFO       ACCESS:   10149200  HIT:   10116738  MISS:      32462
L1D PREFETCH  ACCESS:          0  HIT:          0  MISS:          0
L1D WRITEBACK ACCESS:          0  HIT:          0  MISS:          0
L1D PREFETCH  REQUESTED:          0  ISSUED:          0  USEFUL:          0  USELESS:          0
L1I TOTAL     ACCESS:   21732681  HIT:   21732681  MISS:          0
L1I LOAD      ACCESS:   21732681  HIT:   21732681  MISS:          0
L1I RFO       ACCESS:          0  HIT:          0  MISS:          0
L1I PREFETCH  ACCESS:          0  HIT:          0  MISS:          0
L1I WRITEBACK ACCESS:          0  HIT:          0  MISS:          0
L1I PREFETCH  REQUESTED:          0  ISSUED:          0  USEFUL:          0  USELESS:          0
L2C TOTAL     ACCESS:     725728  HIT:     278835  MISS:     446893
L2C LOAD      ACCESS:     641432  HIT:     213319  MISS:     428113
L2C RFO       ACCESS:      32462  HIT:      14353  MISS:      18109
L2C PREFETCH  ACCESS:          0  HIT:          0  MISS:          0
L2C WRITEBACK ACCESS:      51834  HIT:      51163  MISS:        671
L2C PREFETCH  REQUESTED:          0  ISSUED:          0  USEFUL:          0  USELESS:          0
LLC TOTAL     ACCESS:     465708  HIT:     441659  MISS:      24049
LLC LOAD      ACCESS:     428113  HIT:     419924  MISS:       8189
LLC RFO       ACCESS:      18109  HIT:       3491  MISS:      14618
LLC PREFETCH  ACCESS:          0  HIT:          0  MISS:          0
LLC WRITEBACK ACCESS:      19486  HIT:      18244  MISS:       1242
LLC PREFETCH  REQUESTED:          0  ISSUED:          0  USEFUL:          0  USELESS:          0
Major fault: 0 Minor fault: 740

CPU 7 cumulative IPC: 0.432804 instructions: 100000000 cycles: 231051466
L1D TOTAL     ACCESS:   32866193  HIT:   32455265  MISS:     410928
L1D LOAD      ACCESS:   20753906  HIT:   20458963  MISS:     294943
L1D RFO       ACCESS:   12112287  HIT:   11996302  MISS:     115985
L1D PREFETCH  ACCESS:          0  HIT:          0  MISS:          0
L1D WRITEBACK ACCESS:          0  HIT:          0  MISS:          0
L1D PREFETCH  REQUESTED:          0  ISSUED:          0  USEFUL:          0  USELESS:          0
L1I TOTAL     ACCESS:   23688882  HIT:   23653602  MISS:      35280
L1I LOAD      ACCESS:   23688882  HIT:   23653602  MISS:      35280
L1I RFO       ACCESS:          0  HIT:          0  MISS:          0
L1I PREFETCH  ACCESS:          0  HIT:          0  MISS:          0
L1I WRITEBACK ACCESS:          0  HIT:          0  MISS:          0
L1I PREFETCH  REQUESTED:          0  ISSUED:          0  USEFUL:          0  USELESS:          0
L2C TOTAL     ACCESS:     622207  HIT:     618982  MISS:       3225
L2C LOAD      ACCESS:     330223  HIT:     327624  MISS:       2599
L2C RFO       ACCESS:     115978  HIT:     115370  MISS:        608
L2C PREFETCH  ACCESS:          0  HIT:          0  MISS:          0
L2C WRITEBACK ACCESS:     176006  HIT:     175988  MISS:         18
L2C PREFETCH  REQUESTED:          0  ISSUED:          0  USEFUL:          0  USELESS:          0
LLC TOTAL     ACCESS:       3887  HIT:        457  MISS:       3430
LLC LOAD      ACCESS:       2599  HIT:        360  MISS:       2239
LLC RFO       ACCESS:        608  HIT:          2  MISS:        606
LLC PREFETCH  ACCESS:          0  HIT:          0  MISS:          0
LLC WRITEBACK ACCESS:        680  HIT:         95  MISS:        585
LLC PREFETCH  REQUESTED:          0  ISSUED:          0  USEFUL:          0  USELESS:          0
Major fault: 0 Minor fault: 750

DRAM Statistics
 CHANNEL 0
 RQ ROW_BUFFER_HIT:    1082172  ROW_BUFFER_MISS:    1499248
 DBUS_CONGESTED:    2988397
 WQ ROW_BUFFER_HIT:      89194  ROW_BUFFER_MISS:     848048  FULL:          0

 CHANNEL 1
 RQ ROW_BUFFER_HIT:    1080867  ROW_BUFFER_MISS:    1501010
 DBUS_CONGESTED:    2988397
 WQ ROW_BUFFER_HIT:      88975  ROW_BUFFER_MISS:     848393  FULL:          0

 AVG_CONGESTED_CYCLE: 13
