
*** ChampSim Multicore Out-of-Order Simulator ***

Warmup Instructions: 200000000
Simulation Instructions: 1000000000
Number of CPUs: 4
LLC sets: 8192
LLC ways: 16
Off-chip DRAM Size: 8192 MB Channels: 2 Width: 64-bit Data Rate: 1600 MT/s

CPU 0 runs /scratch/user/djimenez/champsim-traces/speccpu2017/xz/641.leela_s/641.leela_s-149B.champsimtrace.xz
CPU 1 runs /scratch/user/djimenez/champsim-traces/speccpu2017/xz/619.lbm_s/619.lbm_s-3766B.champsimtrace.xz
CPU 2 runs /scratch/user/djimenez/champsim-traces/speccpu2017/xz/648.exchange2_s/648.exchange2_s-72B.champsimtrace.xz
CPU 3 runs /scratch/user/djimenez/champsim-traces/speccpu2017/xz/623.xalancbmk_s/623.xalancbmk_s-592B.champsimtrace.xz
L2C DA-AMPM prefetcher
L2C DA-AMPM prefetcher
L2C DA-AMPM prefetcher
L2C DA-AMPM prefetcher
Heartbeat CPU 1 instructions: 10000000 cycles: 4278830 heartbeat IPC: 2.33709 cumulative IPC: 2.33709 (Simulation time: 0 hr 1 min 21 sec) 
Heartbeat CPU 2 instructions: 10000000 cycles: 4333423 heartbeat IPC: 2.30764 cumulative IPC: 2.30764 (Simulation time: 0 hr 1 min 22 sec) 
Heartbeat CPU 3 instructions: 10000002 cycles: 5032039 heartbeat IPC: 1.98727 cumulative IPC: 1.98727 (Simulation time: 0 hr 1 min 35 sec) 
Heartbeat CPU 0 instructions: 10000000 cycles: 6140001 heartbeat IPC: 1.62866 cumulative IPC: 1.62866 (Simulation time: 0 hr 1 min 56 sec) 
Heartbeat CPU 1 instructions: 20000000 cycles: 8567018 heartbeat IPC: 2.33199 cumulative IPC: 2.33453 (Simulation time: 0 hr 2 min 44 sec) 
Heartbeat CPU 2 instructions: 20000000 cycles: 8670609 heartbeat IPC: 2.30564 cumulative IPC: 2.30664 (Simulation time: 0 hr 2 min 46 sec) 
Heartbeat CPU 3 instructions: 20000000 cycles: 10145078 heartbeat IPC: 1.95578 cumulative IPC: 1.9714 (Simulation time: 0 hr 3 min 16 sec) 
Heartbeat CPU 1 instructions: 30000001 cycles: 12846359 heartbeat IPC: 2.33681 cumulative IPC: 2.33529 (Simulation time: 0 hr 4 min 8 sec) 
Heartbeat CPU 2 instructions: 30000000 cycles: 13000992 heartbeat IPC: 2.30926 cumulative IPC: 2.30752 (Simulation time: 0 hr 4 min 11 sec) 
Heartbeat CPU 0 instructions: 20000000 cycles: 13350714 heartbeat IPC: 1.38683 cumulative IPC: 1.49805 (Simulation time: 0 hr 4 min 18 sec) 
Heartbeat CPU 3 instructions: 30000003 cycles: 16126604 heartbeat IPC: 1.67181 cumulative IPC: 1.86028 (Simulation time: 0 hr 5 min 11 sec) 
Heartbeat CPU 1 instructions: 40000000 cycles: 17134672 heartbeat IPC: 2.33192 cumulative IPC: 2.33445 (Simulation time: 0 hr 5 min 30 sec) 
Heartbeat CPU 2 instructions: 40000000 cycles: 17294937 heartbeat IPC: 2.32886 cumulative IPC: 2.31282 (Simulation time: 0 hr 5 min 33 sec) 
Heartbeat CPU 0 instructions: 30000001 cycles: 19993108 heartbeat IPC: 1.50548 cumulative IPC: 1.50052 (Simulation time: 0 hr 6 min 25 sec) 
Heartbeat CPU 1 instructions: 50000001 cycles: 21422889 heartbeat IPC: 2.33197 cumulative IPC: 2.33395 (Simulation time: 0 hr 6 min 52 sec) 
Heartbeat CPU 2 instructions: 50000001 cycles: 21641716 heartbeat IPC: 2.30055 cumulative IPC: 2.31035 (Simulation time: 0 hr 6 min 56 sec) 
Heartbeat CPU 3 instructions: 40000000 cycles: 22612273 heartbeat IPC: 1.54186 cumulative IPC: 1.76895 (Simulation time: 0 hr 7 min 15 sec) 
Heartbeat CPU 1 instructions: 60000000 cycles: 25701795 heartbeat IPC: 2.33705 cumulative IPC: 2.33447 (Simulation time: 0 hr 8 min 13 sec) 
Heartbeat CPU 2 instructions: 60000000 cycles: 25993786 heartbeat IPC: 2.29776 cumulative IPC: 2.30824 (Simulation time: 0 hr 8 min 19 sec) 
Heartbeat CPU 0 instructions: 40000000 cycles: 26463588 heartbeat IPC: 1.54548 cumulative IPC: 1.51151 (Simulation time: 0 hr 8 min 27 sec) 
Heartbeat CPU 3 instructions: 50000000 cycles: 28863254 heartbeat IPC: 1.59975 cumulative IPC: 1.73231 (Simulation time: 0 hr 9 min 13 sec) 
Heartbeat CPU 1 instructions: 70000003 cycles: 29989906 heartbeat IPC: 2.33203 cumulative IPC: 2.33412 (Simulation time: 0 hr 9 min 34 sec) 
Heartbeat CPU 2 instructions: 70000003 cycles: 30285334 heartbeat IPC: 2.33016 cumulative IPC: 2.31135 (Simulation time: 0 hr 9 min 39 sec) 
Heartbeat CPU 0 instructions: 50000000 cycles: 32918769 heartbeat IPC: 1.54914 cumulative IPC: 1.51889 (Simulation time: 0 hr 10 min 29 sec) 
Heartbeat CPU 1 instructions: 80000000 cycles: 34268625 heartbeat IPC: 2.33715 cumulative IPC: 2.3345 (Simulation time: 0 hr 10 min 54 sec) 
Heartbeat CPU 2 instructions: 80000000 cycles: 34633627 heartbeat IPC: 2.29975 cumulative IPC: 2.30989 (Simulation time: 0 hr 11 min 1 sec) 
Heartbeat CPU 3 instructions: 60000000 cycles: 35034172 heartbeat IPC: 1.6205 cumulative IPC: 1.71261 (Simulation time: 0 hr 11 min 8 sec) 
Heartbeat CPU 1 instructions: 90000001 cycles: 38556694 heartbeat IPC: 2.33205 cumulative IPC: 2.33422 (Simulation time: 0 hr 12 min 14 sec) 
Heartbeat CPU 2 instructions: 90000001 cycles: 38934240 heartbeat IPC: 2.32525 cumulative IPC: 2.31159 (Simulation time: 0 hr 12 min 21 sec) 
Heartbeat CPU 0 instructions: 60000000 cycles: 39348798 heartbeat IPC: 1.5552 cumulative IPC: 1.52482 (Simulation time: 0 hr 12 min 29 sec) 
Heartbeat CPU 3 instructions: 70000000 cycles: 41140014 heartbeat IPC: 1.63778 cumulative IPC: 1.70151 (Simulation time: 0 hr 13 min 2 sec) 
Heartbeat CPU 1 instructions: 100000000 cycles: 42835866 heartbeat IPC: 2.3369 cumulative IPC: 2.33449 (Simulation time: 0 hr 13 min 34 sec) 
Heartbeat CPU 2 instructions: 100000000 cycles: 43206569 heartbeat IPC: 2.34064 cumulative IPC: 2.31446 (Simulation time: 0 hr 13 min 40 sec) 
Heartbeat CPU 0 instructions: 70000002 cycles: 45769502 heartbeat IPC: 1.55746 cumulative IPC: 1.5294 (Simulation time: 0 hr 14 min 28 sec) 
Heartbeat CPU 3 instructions: 80000000 cycles: 46511693 heartbeat IPC: 1.86162 cumulative IPC: 1.72 (Simulation time: 0 hr 14 min 42 sec) 
Heartbeat CPU 1 instructions: 110000001 cycles: 47149913 heartbeat IPC: 2.31801 cumulative IPC: 2.33298 (Simulation time: 0 hr 14 min 54 sec) 
Heartbeat CPU 2 instructions: 110000001 cycles: 47468068 heartbeat IPC: 2.34659 cumulative IPC: 2.31735 (Simulation time: 0 hr 15 min 0 sec) 
Heartbeat CPU 1 instructions: 120000000 cycles: 51482019 heartbeat IPC: 2.30835 cumulative IPC: 2.33091 (Simulation time: 0 hr 16 min 16 sec) 
Heartbeat CPU 3 instructions: 90000000 cycles: 51531056 heartbeat IPC: 1.99228 cumulative IPC: 1.74652 (Simulation time: 0 hr 16 min 17 sec) 
Heartbeat CPU 2 instructions: 120000000 cycles: 51676882 heartbeat IPC: 2.37597 cumulative IPC: 2.32212 (Simulation time: 0 hr 16 min 19 sec) 
Heartbeat CPU 0 instructions: 80000000 cycles: 52188891 heartbeat IPC: 1.55778 cumulative IPC: 1.53289 (Simulation time: 0 hr 16 min 29 sec) 
Heartbeat CPU 2 instructions: 130000003 cycles: 55870225 heartbeat IPC: 2.38473 cumulative IPC: 2.32682 (Simulation time: 0 hr 17 min 40 sec) 
Heartbeat CPU 1 instructions: 130000003 cycles: 55934220 heartbeat IPC: 2.24608 cumulative IPC: 2.32416 (Simulation time: 0 hr 17 min 41 sec) 
Heartbeat CPU 3 instructions: 100000000 cycles: 56501533 heartbeat IPC: 2.01188 cumulative IPC: 1.76986 (Simulation time: 0 hr 17 min 53 sec) 
Heartbeat CPU 0 instructions: 90000000 cycles: 58592618 heartbeat IPC: 1.56159 cumulative IPC: 1.53603 (Simulation time: 0 hr 18 min 33 sec) 
Heartbeat CPU 2 instructions: 140000000 cycles: 60102299 heartbeat IPC: 2.36291 cumulative IPC: 2.32936 (Simulation time: 0 hr 19 min 3 sec) 
Heartbeat CPU 1 instructions: 140000000 cycles: 60467032 heartbeat IPC: 2.20614 cumulative IPC: 2.31531 (Simulation time: 0 hr 19 min 9 sec) 
Heartbeat CPU 3 instructions: 110000001 cycles: 61921712 heartbeat IPC: 1.84496 cumulative IPC: 1.77644 (Simulation time: 0 hr 19 min 37 sec) 
Heartbeat CPU 2 instructions: 150000001 cycles: 64264408 heartbeat IPC: 2.40263 cumulative IPC: 2.33411 (Simulation time: 0 hr 20 min 21 sec) 
Heartbeat CPU 0 instructions: 100000000 cycles: 65016867 heartbeat IPC: 1.5566 cumulative IPC: 1.53806 (Simulation time: 0 hr 20 min 35 sec) 
Heartbeat CPU 1 instructions: 150000001 cycles: 65129247 heartbeat IPC: 2.1449 cumulative IPC: 2.30311 (Simulation time: 0 hr 20 min 38 sec) 
Heartbeat CPU 3 instructions: 120000000 cycles: 68355735 heartbeat IPC: 1.55424 cumulative IPC: 1.75552 (Simulation time: 0 hr 21 min 38 sec) 
Heartbeat CPU 2 instructions: 160000000 cycles: 68531974 heartbeat IPC: 2.34326 cumulative IPC: 2.33468 (Simulation time: 0 hr 21 min 41 sec) 
Heartbeat CPU 1 instructions: 160000000 cycles: 70016052 heartbeat IPC: 2.04633 cumulative IPC: 2.28519 (Simulation time: 0 hr 22 min 9 sec) 
Heartbeat CPU 0 instructions: 110000000 cycles: 71452543 heartbeat IPC: 1.55384 cumulative IPC: 1.53948 (Simulation time: 0 hr 22 min 36 sec) 
Heartbeat CPU 2 instructions: 170000003 cycles: 72753460 heartbeat IPC: 2.36883 cumulative IPC: 2.33666 (Simulation time: 0 hr 23 min 1 sec) 
Heartbeat CPU 3 instructions: 130000002 cycles: 74597983 heartbeat IPC: 1.60199 cumulative IPC: 1.74267 (Simulation time: 0 hr 23 min 37 sec) 
Heartbeat CPU 1 instructions: 170000002 cycles: 75154213 heartbeat IPC: 1.94622 cumulative IPC: 2.26202 (Simulation time: 0 hr 23 min 48 sec) 
Heartbeat CPU 2 instructions: 180000000 cycles: 76961054 heartbeat IPC: 2.37665 cumulative IPC: 2.33885 (Simulation time: 0 hr 24 min 25 sec) 
Heartbeat CPU 0 instructions: 120000000 cycles: 77875801 heartbeat IPC: 1.55684 cumulative IPC: 1.54092 (Simulation time: 0 hr 24 min 43 sec) 
Heartbeat CPU 1 instructions: 180000000 cycles: 80407507 heartbeat IPC: 1.90357 cumulative IPC: 2.2386 (Simulation time: 0 hr 25 min 34 sec) 
Heartbeat CPU 3 instructions: 140000000 cycles: 80757418 heartbeat IPC: 1.62353 cumulative IPC: 1.73359 (Simulation time: 0 hr 25 min 41 sec) 
Heartbeat CPU 2 instructions: 190000003 cycles: 81167893 heartbeat IPC: 2.37708 cumulative IPC: 2.34083 (Simulation time: 0 hr 25 min 49 sec) 
Heartbeat CPU 0 instructions: 130000001 cycles: 84302173 heartbeat IPC: 1.55609 cumulative IPC: 1.54207 (Simulation time: 0 hr 26 min 51 sec) 
Heartbeat CPU 2 instructions: 200000000 cycles: 85466934 heartbeat IPC: 2.3261 cumulative IPC: 2.34009 (Simulation time: 0 hr 27 min 14 sec) 
Heartbeat CPU 1 instructions: 190000001 cycles: 85740347 heartbeat IPC: 1.87517 cumulative IPC: 2.21599 (Simulation time: 0 hr 27 min 19 sec) 
Heartbeat CPU 3 instructions: 150000000 cycles: 86450657 heartbeat IPC: 1.75647 cumulative IPC: 1.73509 (Simulation time: 0 hr 27 min 33 sec) 
Heartbeat CPU 2 instructions: 210000000 cycles: 89755321 heartbeat IPC: 2.33188 cumulative IPC: 0.111414 (Simulation time: 0 hr 28 min 40 sec) 
Heartbeat CPU 0 instructions: 140000000 cycles: 90717548 heartbeat IPC: 1.55876 cumulative IPC: 1.54325 (Simulation time: 0 hr 29 min 0 sec) 
Heartbeat CPU 1 instructions: 200000000 cycles: 90937409 heartbeat IPC: 1.92416 cumulative IPC: 2.19931 (Simulation time: 0 hr 29 min 4 sec) 
Heartbeat CPU 3 instructions: 160000000 cycles: 91441288 heartbeat IPC: 2.00375 cumulative IPC: 1.74976 (Simulation time: 0 hr 29 min 14 sec) 
Heartbeat CPU 2 instructions: 220000000 cycles: 94074159 heartbeat IPC: 2.31544 cumulative IPC: 0.212598 (Simulation time: 0 hr 30 min 13 sec) 
Heartbeat CPU 1 instructions: 210000001 cycles: 96038658 heartbeat IPC: 1.9603 cumulative IPC: 0.104125 (Simulation time: 0 hr 30 min 54 sec) 
Heartbeat CPU 3 instructions: 170000000 cycles: 96393700 heartbeat IPC: 2.01922 cumulative IPC: 1.7636 (Simulation time: 0 hr 31 min 1 sec) 
Heartbeat CPU 0 instructions: 150000003 cycles: 97113472 heartbeat IPC: 1.5635 cumulative IPC: 1.54458 (Simulation time: 0 hr 31 min 16 sec) 
Heartbeat CPU 2 instructions: 230000003 cycles: 98394966 heartbeat IPC: 2.31438 cumulative IPC: 0.304894 (Simulation time: 0 hr 31 min 43 sec) 
Heartbeat CPU 1 instructions: 220000000 cycles: 101015379 heartbeat IPC: 2.00936 cumulative IPC: 0.19799 (Simulation time: 0 hr 32 min 35 sec) 
Heartbeat CPU 3 instructions: 180000000 cycles: 102255736 heartbeat IPC: 1.70589 cumulative IPC: 1.76029 (Simulation time: 0 hr 33 min 0 sec) 
Heartbeat CPU 2 instructions: 240000000 cycles: 102658932 heartbeat IPC: 2.34523 cumulative IPC: 0.38964 (Simulation time: 0 hr 33 min 9 sec) 
Heartbeat CPU 0 instructions: 160000000 cycles: 103503942 heartbeat IPC: 1.56483 cumulative IPC: 1.54583 (Simulation time: 0 hr 33 min 26 sec) 
Heartbeat CPU 1 instructions: 230000003 cycles: 105971221 heartbeat IPC: 2.01782 cumulative IPC: 0.283096 (Simulation time: 0 hr 34 min 15 sec) 
Heartbeat CPU 2 instructions: 250000001 cycles: 106911071 heartbeat IPC: 2.35176 cumulative IPC: 0.467678 (Simulation time: 0 hr 34 min 34 sec) 
Heartbeat CPU 3 instructions: 190000000 cycles: 108557057 heartbeat IPC: 1.58697 cumulative IPC: 1.75023 (Simulation time: 0 hr 35 min 8 sec) 
Heartbeat CPU 0 instructions: 170000002 cycles: 109905188 heartbeat IPC: 1.5622 cumulative IPC: 1.54679 (Simulation time: 0 hr 35 min 35 sec) 
Heartbeat CPU 1 instructions: 240000000 cycles: 110869109 heartbeat IPC: 2.0417 cumulative IPC: 0.360786 (Simulation time: 0 hr 35 min 54 sec) 
Heartbeat CPU 2 instructions: 260000000 cycles: 111204009 heartbeat IPC: 2.32941 cumulative IPC: 0.539549 (Simulation time: 0 hr 36 min 1 sec) 
Heartbeat CPU 3 instructions: 200000000 cycles: 113806970 heartbeat IPC: 1.90479 cumulative IPC: 1.75736 (Simulation time: 0 hr 36 min 56 sec) 
Heartbeat CPU 2 instructions: 270000000 cycles: 115507495 heartbeat IPC: 2.3237 cumulative IPC: 0.606021 (Simulation time: 0 hr 37 min 32 sec) 
Heartbeat CPU 1 instructions: 250000003 cycles: 115767918 heartbeat IPC: 2.04131 cumulative IPC: 0.431899 (Simulation time: 0 hr 37 min 37 sec) 
Heartbeat CPU 0 instructions: 180000000 cycles: 116311466 heartbeat IPC: 1.56097 cumulative IPC: 1.54757 (Simulation time: 0 hr 37 min 48 sec) 
Heartbeat CPU 3 instructions: 210000002 cycles: 119709022 heartbeat IPC: 1.69433 cumulative IPC: 0.0835359 (Simulation time: 0 hr 38 min 56 sec) 
Heartbeat CPU 2 instructions: 280000000 cycles: 119827790 heartbeat IPC: 2.31466 cumulative IPC: 0.667625 (Simulation time: 0 hr 38 min 58 sec) 
Heartbeat CPU 1 instructions: 260000000 cycles: 120663791 heartbeat IPC: 2.04254 cumulative IPC: 0.497249 (Simulation time: 0 hr 39 min 15 sec) 
Heartbeat CPU 0 instructions: 190000000 cycles: 122697985 heartbeat IPC: 1.5658 cumulative IPC: 1.54852 (Simulation time: 0 hr 39 min 56 sec) 
Heartbeat CPU 2 instructions: 290000003 cycles: 124153503 heartbeat IPC: 2.31176 cumulative IPC: 0.724909 (Simulation time: 0 hr 40 min 25 sec) 
Heartbeat CPU 1 instructions: 270000003 cycles: 125520596 heartbeat IPC: 2.05897 cumulative IPC: 0.557677 (Simulation time: 0 hr 40 min 52 sec) 
Heartbeat CPU 3 instructions: 220000000 cycles: 126155928 heartbeat IPC: 1.55113 cumulative IPC: 0.158534 (Simulation time: 0 hr 41 min 5 sec) 
Heartbeat CPU 2 instructions: 300000000 cycles: 128471877 heartbeat IPC: 2.31569 cumulative IPC: 0.77838 (Simulation time: 0 hr 41 min 51 sec) 
Heartbeat CPU 0 instructions: 200000000 cycles: 129092463 heartbeat IPC: 1.56385 cumulative IPC: 1.54928 (Simulation time: 0 hr 42 min 3 sec) 

Warmup complete CPU 0 instructions: 200000001 cycles: 129092464 (Simulation time: 0 hr 42 min 3 sec) 
Warmup complete CPU 1 instructions: 277324589 cycles: 129092463 (Simulation time: 0 hr 42 min 3 sec) 
Warmup complete CPU 2 instructions: 301470151 cycles: 129092463 (Simulation time: 0 hr 42 min 3 sec) 
Warmup complete CPU 3 instructions: 224661691 cycles: 129092463 (Simulation time: 0 hr 42 min 3 sec) 

Heartbeat CPU 1 instructions: 280000000 cycles: 133645390 heartbeat IPC: 1.2308 cumulative IPC: 0.587624 (Simulation time: 0 hr 42 min 48 sec) 
Heartbeat CPU 2 instructions: 310000000 cycles: 134550727 heartbeat IPC: 1.64505 cumulative IPC: 1.56274 (Simulation time: 0 hr 42 min 57 sec) 
Heartbeat CPU 2 instructions: 320000000 cycles: 140908617 heartbeat IPC: 1.57285 cumulative IPC: 1.56818 (Simulation time: 0 hr 43 min 59 sec) 
Heartbeat CPU 3 instructions: 230000000 cycles: 144112567 heartbeat IPC: 0.556897 cumulative IPC: 0.355411 (Simulation time: 0 hr 44 min 31 sec) 
Heartbeat CPU 2 instructions: 330000002 cycles: 147185167 heartbeat IPC: 1.59323 cumulative IPC: 1.57687 (Simulation time: 0 hr 45 min 2 sec) 
Heartbeat CPU 1 instructions: 290000002 cycles: 151909690 heartbeat IPC: 0.547516 cumulative IPC: 0.555519 (Simulation time: 0 hr 45 min 50 sec) 
Heartbeat CPU 0 instructions: 210000001 cycles: 152493403 heartbeat IPC: 0.427333 cumulative IPC: 0.427333 (Simulation time: 0 hr 45 min 55 sec) 
Heartbeat CPU 2 instructions: 340000000 cycles: 153269760 heartbeat IPC: 1.64349 cumulative IPC: 1.59364 (Simulation time: 0 hr 46 min 3 sec) 
Heartbeat CPU 2 instructions: 350000003 cycles: 159275315 heartbeat IPC: 1.66513 cumulative IPC: 1.60786 (Simulation time: 0 hr 47 min 3 sec) 
Heartbeat CPU 2 instructions: 360000000 cycles: 165277517 heartbeat IPC: 1.66605 cumulative IPC: 1.61751 (Simulation time: 0 hr 48 min 4 sec) 
Heartbeat CPU 1 instructions: 300000000 cycles: 170408051 heartbeat IPC: 0.540588 cumulative IPC: 0.548834 (Simulation time: 0 hr 48 min 55 sec) 
Heartbeat CPU 3 instructions: 240000000 cycles: 170888162 heartbeat IPC: 0.373474 cumulative IPC: 0.366983 (Simulation time: 0 hr 49 min 0 sec) 
Heartbeat CPU 2 instructions: 370000000 cycles: 171383008 heartbeat IPC: 1.63787 cumulative IPC: 1.62045 (Simulation time: 0 hr 49 min 5 sec) 
Heartbeat CPU 0 instructions: 220000000 cycles: 175985656 heartbeat IPC: 0.425672 cumulative IPC: 0.426501 (Simulation time: 0 hr 49 min 51 sec) 
Heartbeat CPU 2 instructions: 380000000 cycles: 177472736 heartbeat IPC: 1.64211 cumulative IPC: 1.62318 (Simulation time: 0 hr 50 min 6 sec) 
Heartbeat CPU 2 instructions: 390000002 cycles: 183436555 heartbeat IPC: 1.67678 cumulative IPC: 1.62906 (Simulation time: 0 hr 51 min 6 sec) 
Heartbeat CPU 1 instructions: 310000002 cycles: 189394114 heartbeat IPC: 0.526702 cumulative IPC: 0.541866 (Simulation time: 0 hr 52 min 5 sec) 
Heartbeat CPU 2 instructions: 400000000 cycles: 189669976 heartbeat IPC: 1.60426 cumulative IPC: 1.62651 (Simulation time: 0 hr 52 min 8 sec) 
Heartbeat CPU 2 instructions: 410000002 cycles: 195904454 heartbeat IPC: 1.60398 cumulative IPC: 1.62441 (Simulation time: 0 hr 53 min 9 sec) 
Heartbeat CPU 3 instructions: 250000003 cycles: 196376058 heartbeat IPC: 0.392343 cumulative IPC: 0.37659 (Simulation time: 0 hr 53 min 14 sec) 
Heartbeat CPU 0 instructions: 230000000 cycles: 199395765 heartbeat IPC: 0.427166 cumulative IPC: 0.426722 (Simulation time: 0 hr 53 min 44 sec) 
Heartbeat CPU 2 instructions: 420000000 cycles: 202186910 heartbeat IPC: 1.59173 cumulative IPC: 1.6216 (Simulation time: 0 hr 54 min 12 sec) 
Heartbeat CPU 2 instructions: 430000000 cycles: 208210292 heartbeat IPC: 1.6602 cumulative IPC: 1.62454 (Simulation time: 0 hr 55 min 13 sec) 
Heartbeat CPU 1 instructions: 320000000 cycles: 208469308 heartbeat IPC: 0.524241 cumulative IPC: 0.53763 (Simulation time: 0 hr 55 min 15 sec) 
Heartbeat CPU 2 instructions: 440000000 cycles: 214426704 heartbeat IPC: 1.60864 cumulative IPC: 1.62338 (Simulation time: 0 hr 56 min 15 sec) 
Heartbeat CPU 2 instructions: 450000000 cycles: 220576368 heartbeat IPC: 1.62611 cumulative IPC: 1.62356 (Simulation time: 0 hr 57 min 17 sec) 
Heartbeat CPU 3 instructions: 260000000 cycles: 220837792 heartbeat IPC: 0.408802 cumulative IPC: 0.385178 (Simulation time: 0 hr 57 min 20 sec) 
Heartbeat CPU 0 instructions: 240000000 cycles: 222679892 heartbeat IPC: 0.429477 cumulative IPC: 0.427408 (Simulation time: 0 hr 57 min 38 sec) 
Heartbeat CPU 2 instructions: 460000000 cycles: 226770259 heartbeat IPC: 1.61449 cumulative IPC: 1.62299 (Simulation time: 0 hr 58 min 19 sec) 
Heartbeat CPU 1 instructions: 330000003 cycles: 227506278 heartbeat IPC: 0.525294 cumulative IPC: 0.535244 (Simulation time: 0 hr 58 min 26 sec) 
Heartbeat CPU 2 instructions: 470000003 cycles: 232994616 heartbeat IPC: 1.60659 cumulative IPC: 1.62201 (Simulation time: 0 hr 59 min 22 sec) 
Heartbeat CPU 2 instructions: 480000000 cycles: 239161647 heartbeat IPC: 1.62153 cumulative IPC: 1.62198 (Simulation time: 1 hr 0 min 24 sec) 
Heartbeat CPU 3 instructions: 270000000 cycles: 244534835 heartbeat IPC: 0.421994 cumulative IPC: 0.392735 (Simulation time: 1 hr 1 min 17 sec) 
Heartbeat CPU 1 instructions: 340000000 cycles: 245950273 heartbeat IPC: 0.542182 cumulative IPC: 0.536339 (Simulation time: 1 hr 1 min 29 sec) 
Heartbeat CPU 0 instructions: 250000000 cycles: 246068923 heartbeat IPC: 0.427551 cumulative IPC: 0.427436 (Simulation time: 1 hr 1 min 30 sec) 
Heartbeat CPU 2 instructions: 490000000 cycles: 246352344 heartbeat IPC: 1.39069 cumulative IPC: 1.6078 (Simulation time: 1 hr 1 min 33 sec) 
Heartbeat CPU 2 instructions: 500000000 cycles: 252912198 heartbeat IPC: 1.52442 cumulative IPC: 1.60338 (Simulation time: 1 hr 2 min 37 sec) 
Heartbeat CPU 2 instructions: 510000002 cycles: 259422237 heartbeat IPC: 1.53609 cumulative IPC: 1.60002 (Simulation time: 1 hr 3 min 42 sec) 
Heartbeat CPU 1 instructions: 350000001 cycles: 264529717 heartbeat IPC: 0.538229 cumulative IPC: 0.536598 (Simulation time: 1 hr 4 min 33 sec) 
Heartbeat CPU 2 instructions: 520000000 cycles: 265877002 heartbeat IPC: 1.54924 cumulative IPC: 1.59762 (Simulation time: 1 hr 4 min 46 sec) 
Heartbeat CPU 3 instructions: 280000000 cycles: 267638656 heartbeat IPC: 0.432829 cumulative IPC: 0.399421 (Simulation time: 1 hr 5 min 3 sec) 
Heartbeat CPU 0 instructions: 260000000 cycles: 269536718 heartbeat IPC: 0.426116 cumulative IPC: 0.427216 (Simulation time: 1 hr 5 min 22 sec) 
Heartbeat CPU 2 instructions: 530000001 cycles: 272442463 heartbeat IPC: 1.52312 cumulative IPC: 1.59421 (Simulation time: 1 hr 5 min 51 sec) 
Heartbeat CPU 2 instructions: 540000000 cycles: 278936518 heartbeat IPC: 1.53987 cumulative IPC: 1.59185 (Simulation time: 1 hr 6 min 58 sec) 
Heartbeat CPU 1 instructions: 360000000 cycles: 283405262 heartbeat IPC: 0.529786 cumulative IPC: 0.535765 (Simulation time: 1 hr 7 min 46 sec) 
Heartbeat CPU 3 instructions: 290000002 cycles: 285025240 heartbeat IPC: 0.575156 cumulative IPC: 0.419016 (Simulation time: 1 hr 8 min 3 sec) 
Heartbeat CPU 2 instructions: 550000002 cycles: 285397767 heartbeat IPC: 1.54769 cumulative IPC: 1.59003 (Simulation time: 1 hr 8 min 7 sec) 
Heartbeat CPU 2 instructions: 560000000 cycles: 292412921 heartbeat IPC: 1.42549 cumulative IPC: 1.58296 (Simulation time: 1 hr 9 min 20 sec) 
Heartbeat CPU 0 instructions: 270000000 cycles: 292895356 heartbeat IPC: 0.428107 cumulative IPC: 0.427343 (Simulation time: 1 hr 9 min 25 sec) 
Heartbeat CPU 2 instructions: 570000000 cycles: 298738575 heartbeat IPC: 1.58086 cumulative IPC: 1.58288 (Simulation time: 1 hr 10 min 27 sec) 
Heartbeat CPU 3 instructions: 300000000 cycles: 299943863 heartbeat IPC: 0.670303 cumulative IPC: 0.440958 (Simulation time: 1 hr 10 min 40 sec) 
Heartbeat CPU 1 instructions: 370000001 cycles: 301745752 heartbeat IPC: 0.545242 cumulative IPC: 0.536772 (Simulation time: 1 hr 10 min 59 sec) 
Heartbeat CPU 2 instructions: 580000000 cycles: 305144406 heartbeat IPC: 1.56108 cumulative IPC: 1.58209 (Simulation time: 1 hr 11 min 35 sec) 
Heartbeat CPU 2 instructions: 590000003 cycles: 312621505 heartbeat IPC: 1.33742 cumulative IPC: 1.57212 (Simulation time: 1 hr 12 min 51 sec) 
Heartbeat CPU 3 instructions: 310000003 cycles: 315626056 heartbeat IPC: 0.637666 cumulative IPC: 0.457496 (Simulation time: 1 hr 13 min 23 sec) 
Heartbeat CPU 0 instructions: 280000000 cycles: 316124735 heartbeat IPC: 0.430489 cumulative IPC: 0.427734 (Simulation time: 1 hr 13 min 29 sec) 
Heartbeat CPU 2 instructions: 600000000 cycles: 318749026 heartbeat IPC: 1.63198 cumulative IPC: 1.57405 (Simulation time: 1 hr 13 min 57 sec) 
Heartbeat CPU 1 instructions: 380000000 cycles: 320005100 heartbeat IPC: 0.547665 cumulative IPC: 0.537814 (Simulation time: 1 hr 14 min 10 sec) 
Heartbeat CPU 2 instructions: 610000002 cycles: 324990155 heartbeat IPC: 1.60227 cumulative IPC: 1.57495 (Simulation time: 1 hr 15 min 3 sec) 
Heartbeat CPU 2 instructions: 620000000 cycles: 331094892 heartbeat IPC: 1.63807 cumulative IPC: 1.57686 (Simulation time: 1 hr 16 min 8 sec) 
Heartbeat CPU 3 instructions: 320000000 cycles: 332299749 heartbeat IPC: 0.599747 cumulative IPC: 0.469168 (Simulation time: 1 hr 16 min 21 sec) 
Heartbeat CPU 1 instructions: 390000000 cycles: 337808229 heartbeat IPC: 0.561699 cumulative IPC: 0.539851 (Simulation time: 1 hr 17 min 16 sec) 
Heartbeat CPU 2 instructions: 630000003 cycles: 337990508 heartbeat IPC: 1.4502 cumulative IPC: 1.57268 (Simulation time: 1 hr 17 min 18 sec) 
Heartbeat CPU 0 instructions: 290000002 cycles: 339558370 heartbeat IPC: 0.426737 cumulative IPC: 0.427623 (Simulation time: 1 hr 17 min 33 sec) 
Heartbeat CPU 2 instructions: 640000000 cycles: 344969165 heartbeat IPC: 1.43294 cumulative IPC: 1.56816 (Simulation time: 1 hr 18 min 27 sec) 
Heartbeat CPU 3 instructions: 330000001 cycles: 350397543 heartbeat IPC: 0.552554 cumulative IPC: 0.475987 (Simulation time: 1 hr 19 min 23 sec) 
Heartbeat CPU 2 instructions: 650000000 cycles: 351198601 heartbeat IPC: 1.60528 cumulative IPC: 1.5692 (Simulation time: 1 hr 19 min 31 sec) 
Heartbeat CPU 1 instructions: 400000000 cycles: 356282961 heartbeat IPC: 0.54128 cumulative IPC: 0.539967 (Simulation time: 1 hr 20 min 22 sec) 
Heartbeat CPU 2 instructions: 660000000 cycles: 358173590 heartbeat IPC: 1.43369 cumulative IPC: 1.56508 (Simulation time: 1 hr 20 min 40 sec) 
Heartbeat CPU 0 instructions: 300000000 cycles: 362931211 heartbeat IPC: 0.427847 cumulative IPC: 0.427645 (Simulation time: 1 hr 21 min 27 sec) 
Heartbeat CPU 2 instructions: 670000001 cycles: 364670021 heartbeat IPC: 1.53931 cumulative IPC: 1.56437 (Simulation time: 1 hr 21 min 44 sec) 
Heartbeat CPU 3 instructions: 340000000 cycles: 370371742 heartbeat IPC: 0.500646 cumulative IPC: 0.478028 (Simulation time: 1 hr 22 min 40 sec) 
Heartbeat CPU 2 instructions: 680000000 cycles: 371179979 heartbeat IPC: 1.53611 cumulative IPC: 1.56361 (Simulation time: 1 hr 22 min 48 sec) 
Heartbeat CPU 1 instructions: 410000003 cycles: 374939307 heartbeat IPC: 0.536011 cumulative IPC: 0.539667 (Simulation time: 1 hr 23 min 25 sec) 
Heartbeat CPU 2 instructions: 690000003 cycles: 377686245 heartbeat IPC: 1.53698 cumulative IPC: 1.56291 (Simulation time: 1 hr 23 min 51 sec) 
Heartbeat CPU 2 instructions: 700000000 cycles: 384160112 heartbeat IPC: 1.54467 cumulative IPC: 1.56245 (Simulation time: 1 hr 24 min 54 sec) 
Heartbeat CPU 0 instructions: 310000002 cycles: 386187205 heartbeat IPC: 0.429997 cumulative IPC: 0.427858 (Simulation time: 1 hr 25 min 13 sec) 
Heartbeat CPU 2 instructions: 710000000 cycles: 391186700 heartbeat IPC: 1.42317 cumulative IPC: 1.55871 (Simulation time: 1 hr 26 min 0 sec) 
Heartbeat CPU 3 instructions: 350000000 cycles: 393701691 heartbeat IPC: 0.428634 cumulative IPC: 0.473673 (Simulation time: 1 hr 26 min 24 sec) 
Heartbeat CPU 1 instructions: 420000000 cycles: 393730812 heartbeat IPC: 0.532155 cumulative IPC: 0.539134 (Simulation time: 1 hr 26 min 24 sec) 
Heartbeat CPU 2 instructions: 720000000 cycles: 398252917 heartbeat IPC: 1.41518 cumulative IPC: 1.55495 (Simulation time: 1 hr 27 min 6 sec) 
Heartbeat CPU 2 instructions: 730000002 cycles: 404688951 heartbeat IPC: 1.55375 cumulative IPC: 1.55492 (Simulation time: 1 hr 28 min 7 sec) 
Heartbeat CPU 0 instructions: 320000000 cycles: 409421791 heartbeat IPC: 0.430393 cumulative IPC: 0.428068 (Simulation time: 1 hr 28 min 51 sec) 
Heartbeat CPU 2 instructions: 740000000 cycles: 411138789 heartbeat IPC: 1.55043 cumulative IPC: 1.55481 (Simulation time: 1 hr 29 min 6 sec) 
Heartbeat CPU 1 instructions: 430000003 cycles: 412260894 heartbeat IPC: 0.539663 cumulative IPC: 0.539168 (Simulation time: 1 hr 29 min 17 sec) 
Heartbeat CPU 2 instructions: 750000001 cycles: 418147124 heartbeat IPC: 1.42687 cumulative IPC: 1.55171 (Simulation time: 1 hr 30 min 9 sec) 
Heartbeat CPU 2 instructions: 760000000 cycles: 424585542 heartbeat IPC: 1.55318 cumulative IPC: 1.55174 (Simulation time: 1 hr 31 min 9 sec) 
Heartbeat CPU 3 instructions: 360000000 cycles: 424744701 heartbeat IPC: 0.322134 cumulative IPC: 0.457762 (Simulation time: 1 hr 31 min 11 sec) 
Heartbeat CPU 1 instructions: 440000000 cycles: 430734459 heartbeat IPC: 0.541314 cumulative IPC: 0.5393 (Simulation time: 1 hr 32 min 9 sec) 
Heartbeat CPU 2 instructions: 770000000 cycles: 430996948 heartbeat IPC: 1.55972 cumulative IPC: 1.55191 (Simulation time: 1 hr 32 min 11 sec) 
Heartbeat CPU 0 instructions: 330000001 cycles: 432647567 heartbeat IPC: 0.430556 cumulative IPC: 0.428258 (Simulation time: 1 hr 32 min 27 sec) 
Heartbeat CPU 2 instructions: 780000000 cycles: 437404150 heartbeat IPC: 1.56074 cumulative IPC: 1.5521 (Simulation time: 1 hr 33 min 13 sec) 
Heartbeat CPU 2 instructions: 790000000 cycles: 445102634 heartbeat IPC: 1.29896 cumulative IPC: 1.54593 (Simulation time: 1 hr 34 min 23 sec) 
Heartbeat CPU 1 instructions: 450000001 cycles: 449355138 heartbeat IPC: 0.537037 cumulative IPC: 0.539168 (Simulation time: 1 hr 35 min 3 sec) 
Heartbeat CPU 2 instructions: 800000000 cycles: 452316319 heartbeat IPC: 1.38625 cumulative IPC: 1.54237 (Simulation time: 1 hr 35 min 32 sec) 
Heartbeat CPU 3 instructions: 370000001 cycles: 454839935 heartbeat IPC: 0.332279 cumulative IPC: 0.446169 (Simulation time: 1 hr 35 min 57 sec) 
Heartbeat CPU 0 instructions: 340000000 cycles: 455774186 heartbeat IPC: 0.432402 cumulative IPC: 0.428552 (Simulation time: 1 hr 36 min 6 sec) 
Heartbeat CPU 2 instructions: 810000002 cycles: 459206452 heartbeat IPC: 1.45135 cumulative IPC: 1.54047 (Simulation time: 1 hr 36 min 38 sec) 
Heartbeat CPU 2 instructions: 820000000 cycles: 465590396 heartbeat IPC: 1.56643 cumulative IPC: 1.54096 (Simulation time: 1 hr 37 min 38 sec) 
Heartbeat CPU 1 instructions: 460000000 cycles: 467885363 heartbeat IPC: 0.539659 cumulative IPC: 0.539195 (Simulation time: 1 hr 38 min 0 sec) 
Heartbeat CPU 2 instructions: 830000003 cycles: 472529521 heartbeat IPC: 1.4411 cumulative IPC: 1.53894 (Simulation time: 1 hr 38 min 43 sec) 
Heartbeat CPU 2 instructions: 840000000 cycles: 478950645 heartbeat IPC: 1.55736 cumulative IPC: 1.53928 (Simulation time: 1 hr 39 min 44 sec) 
Heartbeat CPU 0 instructions: 350000000 cycles: 479308026 heartbeat IPC: 0.42492 cumulative IPC: 0.428308 (Simulation time: 1 hr 39 min 48 sec) 
Heartbeat CPU 2 instructions: 850000000 cycles: 485905530 heartbeat IPC: 1.43784 cumulative IPC: 1.5373 (Simulation time: 1 hr 40 min 50 sec) 
Heartbeat CPU 1 instructions: 470000002 cycles: 486633004 heartbeat IPC: 0.533401 cumulative IPC: 0.538891 (Simulation time: 1 hr 40 min 57 sec) 
Heartbeat CPU 3 instructions: 380000000 cycles: 486919415 heartbeat IPC: 0.311726 cumulative IPC: 0.434116 (Simulation time: 1 hr 40 min 59 sec) 
Heartbeat CPU 2 instructions: 860000000 cycles: 492901285 heartbeat IPC: 1.42944 cumulative IPC: 1.53523 (Simulation time: 1 hr 41 min 54 sec) 
Heartbeat CPU 2 instructions: 870000000 cycles: 502237070 heartbeat IPC: 1.07115 cumulative IPC: 1.52362 (Simulation time: 1 hr 43 min 17 sec) 
Heartbeat CPU 0 instructions: 360000000 cycles: 502747208 heartbeat IPC: 0.426636 cumulative IPC: 0.428203 (Simulation time: 1 hr 43 min 22 sec) 
Heartbeat CPU 1 instructions: 480000000 cycles: 505341853 heartbeat IPC: 0.534506 cumulative IPC: 0.538673 (Simulation time: 1 hr 43 min 46 sec) 
Heartbeat CPU 2 instructions: 880000000 cycles: 510299849 heartbeat IPC: 1.24027 cumulative IPC: 1.51762 (Simulation time: 1 hr 44 min 31 sec) 
Heartbeat CPU 3 instructions: 390000003 cycles: 516416274 heartbeat IPC: 0.339019 cumulative IPC: 0.426874 (Simulation time: 1 hr 45 min 33 sec) 
Heartbeat CPU 2 instructions: 890000000 cycles: 516561866 heartbeat IPC: 1.59693 cumulative IPC: 1.51891 (Simulation time: 1 hr 45 min 34 sec) 
Heartbeat CPU 2 instructions: 900000000 cycles: 522828073 heartbeat IPC: 1.59586 cumulative IPC: 1.52013 (Simulation time: 1 hr 46 min 36 sec) 
Heartbeat CPU 1 instructions: 490000001 cycles: 523866901 heartbeat IPC: 0.53981 cumulative IPC: 0.538726 (Simulation time: 1 hr 46 min 46 sec) 
Heartbeat CPU 0 instructions: 370000001 cycles: 526127744 heartbeat IPC: 0.427706 cumulative IPC: 0.428174 (Simulation time: 1 hr 47 min 9 sec) 
Heartbeat CPU 2 instructions: 910000002 cycles: 529022535 heartbeat IPC: 1.61435 cumulative IPC: 1.52159 (Simulation time: 1 hr 47 min 38 sec) 
Heartbeat CPU 2 instructions: 920000000 cycles: 535290970 heartbeat IPC: 1.59529 cumulative IPC: 1.52273 (Simulation time: 1 hr 48 min 41 sec) 
Heartbeat CPU 2 instructions: 930000001 cycles: 541544557 heartbeat IPC: 1.59908 cumulative IPC: 1.52389 (Simulation time: 1 hr 49 min 43 sec) 
Heartbeat CPU 1 instructions: 500000000 cycles: 542446604 heartbeat IPC: 0.538222 cumulative IPC: 0.538704 (Simulation time: 1 hr 49 min 52 sec) 
Heartbeat CPU 3 instructions: 400000000 cycles: 543773026 heartbeat IPC: 0.36554 cumulative IPC: 0.422827 (Simulation time: 1 hr 50 min 5 sec) 
Heartbeat CPU 2 instructions: 940000000 cycles: 547789481 heartbeat IPC: 1.6013 cumulative IPC: 1.52504 (Simulation time: 1 hr 50 min 45 sec) 
Heartbeat CPU 0 instructions: 380000000 cycles: 549455258 heartbeat IPC: 0.428678 cumulative IPC: 0.428202 (Simulation time: 1 hr 51 min 2 sec) 
Heartbeat CPU 2 instructions: 950000002 cycles: 554074366 heartbeat IPC: 1.59112 cumulative IPC: 1.52602 (Simulation time: 1 hr 51 min 48 sec) 
Heartbeat CPU 1 instructions: 510000003 cycles: 561348521 heartbeat IPC: 0.529047 cumulative IPC: 0.538281 (Simulation time: 1 hr 52 min 57 sec) 
Heartbeat CPU 2 instructions: 960000000 cycles: 561614786 heartbeat IPC: 1.32619 cumulative IPC: 1.52253 (Simulation time: 1 hr 52 min 59 sec) 
Heartbeat CPU 2 instructions: 970000002 cycles: 567868431 heartbeat IPC: 1.59907 cumulative IPC: 1.52362 (Simulation time: 1 hr 54 min 2 sec) 
Heartbeat CPU 3 instructions: 410000001 cycles: 569631365 heartbeat IPC: 0.386722 cumulative IPC: 0.420708 (Simulation time: 1 hr 54 min 19 sec) 
Heartbeat CPU 0 instructions: 390000002 cycles: 572742218 heartbeat IPC: 0.429425 cumulative IPC: 0.428266 (Simulation time: 1 hr 54 min 50 sec) 
Heartbeat CPU 2 instructions: 980000000 cycles: 574198937 heartbeat IPC: 1.57965 cumulative IPC: 1.52442 (Simulation time: 1 hr 55 min 5 sec) 
Heartbeat CPU 1 instructions: 520000000 cycles: 580125040 heartbeat IPC: 0.53258 cumulative IPC: 0.538044 (Simulation time: 1 hr 56 min 2 sec) 
Heartbeat CPU 2 instructions: 990000002 cycles: 581067069 heartbeat IPC: 1.456 cumulative IPC: 1.52338 (Simulation time: 1 hr 56 min 11 sec) 
Heartbeat CPU 2 instructions: 1000000000 cycles: 587370823 heartbeat IPC: 1.58636 cumulative IPC: 1.52425 (Simulation time: 1 hr 57 min 14 sec) 
Heartbeat CPU 3 instructions: 420000000 cycles: 593313733 heartbeat IPC: 0.422255 cumulative IPC: 0.420787 (Simulation time: 1 hr 58 min 14 sec) 
Heartbeat CPU 2 instructions: 1010000000 cycles: 593750555 heartbeat IPC: 1.56746 cumulative IPC: 1.52484 (Simulation time: 1 hr 58 min 19 sec) 
Heartbeat CPU 0 instructions: 400000000 cycles: 595905731 heartbeat IPC: 0.431713 cumulative IPC: 0.428437 (Simulation time: 1 hr 58 min 41 sec) 
Heartbeat CPU 1 instructions: 530000000 cycles: 598964514 heartbeat IPC: 0.5308 cumulative IPC: 0.537754 (Simulation time: 1 hr 59 min 12 sec) 
Heartbeat CPU 2 instructions: 1020000000 cycles: 600629283 heartbeat IPC: 1.45376 cumulative IPC: 1.5238 (Simulation time: 1 hr 59 min 29 sec) 
Heartbeat CPU 2 instructions: 1030000000 cycles: 606847017 heartbeat IPC: 1.6083 cumulative IPC: 1.5249 (Simulation time: 2 hr 0 min 36 sec) 
Heartbeat CPU 3 instructions: 430000001 cycles: 609827430 heartbeat IPC: 0.605558 cumulative IPC: 0.427134 (Simulation time: 2 hr 1 min 7 sec) 
Heartbeat CPU 2 instructions: 1040000000 cycles: 613263336 heartbeat IPC: 1.55853 cumulative IPC: 1.52535 (Simulation time: 2 hr 1 min 42 sec) 
Heartbeat CPU 1 instructions: 540000000 cycles: 617380533 heartbeat IPC: 0.543006 cumulative IPC: 0.537952 (Simulation time: 2 hr 2 min 21 sec) 
Heartbeat CPU 0 instructions: 410000002 cycles: 619201531 heartbeat IPC: 0.429262 cumulative IPC: 0.428476 (Simulation time: 2 hr 2 min 40 sec) 
Heartbeat CPU 2 instructions: 1050000001 cycles: 621029004 heartbeat IPC: 1.28772 cumulative IPC: 1.5216 (Simulation time: 2 hr 2 min 58 sec) 
Heartbeat CPU 2 instructions: 1060000000 cycles: 627466035 heartbeat IPC: 1.55351 cumulative IPC: 1.52201 (Simulation time: 2 hr 4 min 3 sec) 
Heartbeat CPU 3 instructions: 440000000 cycles: 628049559 heartbeat IPC: 0.548783 cumulative IPC: 0.431577 (Simulation time: 2 hr 4 min 9 sec) 
Heartbeat CPU 2 instructions: 1070000002 cycles: 633893362 heartbeat IPC: 1.55586 cumulative IPC: 1.52244 (Simulation time: 2 hr 5 min 9 sec) 
Heartbeat CPU 1 instructions: 550000001 cycles: 635822299 heartbeat IPC: 0.542247 cumulative IPC: 0.538108 (Simulation time: 2 hr 5 min 51 sec) 
Heartbeat CPU 2 instructions: 1080000000 cycles: 640175447 heartbeat IPC: 1.59183 cumulative IPC: 1.52329 (Simulation time: 2 hr 7 min 21 sec) 
Heartbeat CPU 0 instructions: 420000000 cycles: 642392735 heartbeat IPC: 0.431198 cumulative IPC: 0.428599 (Simulation time: 2 hr 8 min 7 sec) 
Heartbeat CPU 2 instructions: 1090000003 cycles: 647239245 heartbeat IPC: 1.41567 cumulative IPC: 1.52183 (Simulation time: 2 hr 9 min 40 sec) 
Heartbeat CPU 3 instructions: 450000001 cycles: 650096620 heartbeat IPC: 0.453575 cumulative IPC: 0.432508 (Simulation time: 2 hr 10 min 10 sec) 
Heartbeat CPU 2 instructions: 1100000000 cycles: 653707299 heartbeat IPC: 1.54606 cumulative IPC: 1.52213 (Simulation time: 2 hr 10 min 45 sec) 
Heartbeat CPU 1 instructions: 560000000 cycles: 654661405 heartbeat IPC: 0.530811 cumulative IPC: 0.537847 (Simulation time: 2 hr 10 min 54 sec) 
Heartbeat CPU 2 instructions: 1110000002 cycles: 660813265 heartbeat IPC: 1.40727 cumulative IPC: 1.52059 (Simulation time: 2 hr 11 min 50 sec) 
Heartbeat CPU 0 instructions: 430000000 cycles: 665587237 heartbeat IPC: 0.431137 cumulative IPC: 0.428709 (Simulation time: 2 hr 12 min 35 sec) 
Heartbeat CPU 2 instructions: 1120000000 cycles: 667254070 heartbeat IPC: 1.5526 cumulative IPC: 1.52097 (Simulation time: 2 hr 12 min 51 sec) 
Heartbeat CPU 1 instructions: 570000001 cycles: 673738809 heartbeat IPC: 0.52418 cumulative IPC: 0.537368 (Simulation time: 2 hr 14 min 32 sec) 
Heartbeat CPU 2 instructions: 1130000001 cycles: 674237016 heartbeat IPC: 1.43206 cumulative IPC: 1.51984 (Simulation time: 2 hr 14 min 41 sec) 
Heartbeat CPU 2 instructions: 1140000000 cycles: 680652133 heartbeat IPC: 1.55882 cumulative IPC: 1.52029 (Simulation time: 2 hr 16 min 49 sec) 
Heartbeat CPU 3 instructions: 460000000 cycles: 681710270 heartbeat IPC: 0.316319 cumulative IPC: 0.425861 (Simulation time: 2 hr 17 min 11 sec) 
Heartbeat CPU 2 instructions: 1150000000 cycles: 687597198 heartbeat IPC: 1.43987 cumulative IPC: 1.51929 (Simulation time: 2 hr 19 min 6 sec) 
Heartbeat CPU 0 instructions: 440000000 cycles: 688573747 heartbeat IPC: 0.435038 cumulative IPC: 0.428969 (Simulation time: 2 hr 19 min 18 sec) 
Heartbeat CPU 1 instructions: 580000000 cycles: 692970615 heartbeat IPC: 0.519972 cumulative IPC: 0.536775 (Simulation time: 2 hr 20 min 8 sec) 
Heartbeat CPU 2 instructions: 1160000000 cycles: 694340717 heartbeat IPC: 1.48291 cumulative IPC: 1.51885 (Simulation time: 2 hr 20 min 22 sec) 
Heartbeat CPU 2 instructions: 1170000002 cycles: 701104199 heartbeat IPC: 1.47853 cumulative IPC: 1.51838 (Simulation time: 2 hr 21 min 39 sec) 
Heartbeat CPU 2 instructions: 1180000000 cycles: 707956697 heartbeat IPC: 1.45932 cumulative IPC: 1.51768 (Simulation time: 2 hr 23 min 35 sec) 
Heartbeat CPU 1 instructions: 590000001 cycles: 711891858 heartbeat IPC: 0.528507 cumulative IPC: 0.536506 (Simulation time: 2 hr 24 min 25 sec) 
Heartbeat CPU 0 instructions: 450000002 cycles: 712778560 heartbeat IPC: 0.413141 cumulative IPC: 0.428312 (Simulation time: 2 hr 24 min 34 sec) 
Heartbeat CPU 3 instructions: 470000000 cycles: 713927391 heartbeat IPC: 0.310394 cumulative IPC: 0.4195 (Simulation time: 2 hr 24 min 48 sec) 
Heartbeat CPU 2 instructions: 1190000000 cycles: 715064715 heartbeat IPC: 1.40686 cumulative IPC: 1.51633 (Simulation time: 2 hr 25 min 0 sec) 
Heartbeat CPU 2 instructions: 1200000000 cycles: 722512667 heartbeat IPC: 1.34265 cumulative IPC: 1.51415 (Simulation time: 2 hr 26 min 17 sec) 
Heartbeat CPU 2 instructions: 1210000000 cycles: 728863108 heartbeat IPC: 1.57469 cumulative IPC: 1.5148 (Simulation time: 2 hr 27 min 18 sec) 
Heartbeat CPU 1 instructions: 600000000 cycles: 730500121 heartbeat IPC: 0.537396 cumulative IPC: 0.536534 (Simulation time: 2 hr 27 min 33 sec) 
Heartbeat CPU 2 instructions: 1220000000 cycles: 735872056 heartbeat IPC: 1.42675 cumulative IPC: 1.51378 (Simulation time: 2 hr 28 min 24 sec) 
Heartbeat CPU 0 instructions: 460000000 cycles: 736015747 heartbeat IPC: 0.430345 cumulative IPC: 0.42839 (Simulation time: 2 hr 28 min 25 sec) 
Heartbeat CPU 2 instructions: 1230000001 cycles: 743432199 heartbeat IPC: 1.32273 cumulative IPC: 1.51143 (Simulation time: 2 hr 29 min 34 sec) 
Heartbeat CPU 3 instructions: 480000000 cycles: 743537287 heartbeat IPC: 0.337725 cumulative IPC: 0.415559 (Simulation time: 2 hr 29 min 35 sec) 
Heartbeat CPU 2 instructions: 1240000000 cycles: 749674108 heartbeat IPC: 1.60207 cumulative IPC: 1.51234 (Simulation time: 2 hr 30 min 36 sec) 
Heartbeat CPU 1 instructions: 610000001 cycles: 749720943 heartbeat IPC: 0.520269 cumulative IPC: 0.53603 (Simulation time: 2 hr 30 min 37 sec) 
Heartbeat CPU 2 instructions: 1250000000 cycles: 756008774 heartbeat IPC: 1.57862 cumulative IPC: 1.51301 (Simulation time: 2 hr 31 min 38 sec) 
Heartbeat CPU 0 instructions: 470000002 cycles: 759044652 heartbeat IPC: 0.434237 cumulative IPC: 0.428604 (Simulation time: 2 hr 32 min 8 sec) 
Heartbeat CPU 2 instructions: 1260000000 cycles: 762347041 heartbeat IPC: 1.57772 cumulative IPC: 1.51366 (Simulation time: 2 hr 32 min 40 sec) 
Heartbeat CPU 2 instructions: 1270000001 cycles: 768694501 heartbeat IPC: 1.57543 cumulative IPC: 1.51427 (Simulation time: 2 hr 33 min 44 sec) 
Heartbeat CPU 1 instructions: 620000000 cycles: 768694917 heartbeat IPC: 0.527038 cumulative IPC: 0.535763 (Simulation time: 2 hr 33 min 44 sec) 
Heartbeat CPU 3 instructions: 490000001 cycles: 771171111 heartbeat IPC: 0.361875 cumulative IPC: 0.413249 (Simulation time: 2 hr 34 min 6 sec) 
Heartbeat CPU 2 instructions: 1280000000 cycles: 776967766 heartbeat IPC: 1.20871 cumulative IPC: 1.51037 (Simulation time: 2 hr 34 min 59 sec) 
Heartbeat CPU 0 instructions: 480000000 cycles: 782177150 heartbeat IPC: 0.432292 cumulative IPC: 0.428735 (Simulation time: 2 hr 35 min 49 sec) 
Heartbeat CPU 2 instructions: 1290000002 cycles: 783759409 heartbeat IPC: 1.4724 cumulative IPC: 1.50997 (Simulation time: 2 hr 36 min 5 sec) 
Heartbeat CPU 1 instructions: 630000000 cycles: 787512587 heartbeat IPC: 0.531415 cumulative IPC: 0.535639 (Simulation time: 2 hr 36 min 43 sec) 
Heartbeat CPU 2 instructions: 1300000000 cycles: 790052898 heartbeat IPC: 1.58894 cumulative IPC: 1.51073 (Simulation time: 2 hr 37 min 8 sec) 
Finished CPU 2 instructions: 1000000003 cycles: 662382606 cumulative IPC: 1.5097 (Simulation time: 2 hr 37 min 21 sec) 
Heartbeat CPU 2 instructions: 1310000000 cycles: 797020486 heartbeat IPC: 1.43522 cumulative IPC: 1.50994 (Simulation time: 2 hr 38 min 16 sec) 
Heartbeat CPU 3 instructions: 500000000 cycles: 797416137 heartbeat IPC: 0.381025 cumulative IPC: 0.411983 (Simulation time: 2 hr 38 min 20 sec) 
Heartbeat CPU 2 instructions: 1320000000 cycles: 803469616 heartbeat IPC: 1.5506 cumulative IPC: 1.51033 (Simulation time: 2 hr 39 min 20 sec) 
Heartbeat CPU 0 instructions: 490000000 cycles: 805292147 heartbeat IPC: 0.43262 cumulative IPC: 0.428867 (Simulation time: 2 hr 39 min 37 sec) 
Heartbeat CPU 1 instructions: 640000000 cycles: 806053871 heartbeat IPC: 0.539337 cumulative IPC: 0.53574 (Simulation time: 2 hr 39 min 45 sec) 
Heartbeat CPU 2 instructions: 1330000002 cycles: 809934536 heartbeat IPC: 1.54681 cumulative IPC: 1.51067 (Simulation time: 2 hr 40 min 24 sec) 
Heartbeat CPU 2 instructions: 1340000000 cycles: 816363295 heartbeat IPC: 1.55551 cumulative IPC: 1.51109 (Simulation time: 2 hr 41 min 28 sec) 
Heartbeat CPU 3 instructions: 510000001 cycles: 822586642 heartbeat IPC: 0.39729 cumulative IPC: 0.41145 (Simulation time: 2 hr 42 min 29 sec) 
Heartbeat CPU 2 instructions: 1350000000 cycles: 822831756 heartbeat IPC: 1.54596 cumulative IPC: 1.51142 (Simulation time: 2 hr 42 min 32 sec) 
Heartbeat CPU 1 instructions: 650000000 cycles: 824981011 heartbeat IPC: 0.528342 cumulative IPC: 0.535539 (Simulation time: 2 hr 42 min 53 sec) 
Heartbeat CPU 0 instructions: 500000000 cycles: 828351144 heartbeat IPC: 0.43367 cumulative IPC: 0.429026 (Simulation time: 2 hr 43 min 26 sec) 
Heartbeat CPU 2 instructions: 1360000000 cycles: 829318562 heartbeat IPC: 1.54159 cumulative IPC: 1.5117 (Simulation time: 2 hr 43 min 36 sec) 
Heartbeat CPU 2 instructions: 1370000003 cycles: 835827447 heartbeat IPC: 1.53636 cumulative IPC: 1.51192 (Simulation time: 2 hr 44 min 40 sec) 
Heartbeat CPU 2 instructions: 1380000000 cycles: 842340675 heartbeat IPC: 1.53534 cumulative IPC: 1.51214 (Simulation time: 2 hr 45 min 45 sec) 
Heartbeat CPU 1 instructions: 660000000 cycles: 844039004 heartbeat IPC: 0.524714 cumulative IPC: 0.53525 (Simulation time: 2 hr 46 min 2 sec) 
Heartbeat CPU 3 instructions: 520000000 cycles: 846855135 heartbeat IPC: 0.412057 cumulative IPC: 0.411471 (Simulation time: 2 hr 46 min 29 sec) 
Heartbeat CPU 2 instructions: 1390000003 cycles: 848945769 heartbeat IPC: 1.51398 cumulative IPC: 1.51216 (Simulation time: 2 hr 46 min 50 sec) 
Heartbeat CPU 0 instructions: 510000001 cycles: 851559411 heartbeat IPC: 0.430881 cumulative IPC: 0.429085 (Simulation time: 2 hr 47 min 16 sec) 
Heartbeat CPU 2 instructions: 1400000000 cycles: 855434766 heartbeat IPC: 1.54107 cumulative IPC: 1.51241 (Simulation time: 2 hr 47 min 54 sec) 
Heartbeat CPU 2 instructions: 1410000003 cycles: 861967866 heartbeat IPC: 1.53067 cumulative IPC: 1.51258 (Simulation time: 2 hr 48 min 58 sec) 
Heartbeat CPU 1 instructions: 670000000 cycles: 863864241 heartbeat IPC: 0.504408 cumulative IPC: 0.534418 (Simulation time: 2 hr 49 min 17 sec) 
Heartbeat CPU 2 instructions: 1420000000 cycles: 868500459 heartbeat IPC: 1.53079 cumulative IPC: 1.51274 (Simulation time: 2 hr 50 min 3 sec) 
Heartbeat CPU 3 instructions: 530000001 cycles: 870365667 heartbeat IPC: 0.425341 cumulative IPC: 0.411911 (Simulation time: 2 hr 50 min 22 sec) 
Heartbeat CPU 0 instructions: 520000000 cycles: 874837647 heartbeat IPC: 0.429586 cumulative IPC: 0.429101 (Simulation time: 2 hr 51 min 5 sec) 
Heartbeat CPU 2 instructions: 1430000002 cycles: 875589481 heartbeat IPC: 1.41063 cumulative IPC: 1.51177 (Simulation time: 2 hr 51 min 12 sec) 
Heartbeat CPU 2 instructions: 1440000000 cycles: 881938024 heartbeat IPC: 1.57516 cumulative IPC: 1.5123 (Simulation time: 2 hr 52 min 15 sec) 
Heartbeat CPU 1 instructions: 680000000 cycles: 883543720 heartbeat IPC: 0.508144 cumulative IPC: 0.533733 (Simulation time: 2 hr 52 min 31 sec) 
Heartbeat CPU 2 instructions: 1450000001 cycles: 889148786 heartbeat IPC: 1.38682 cumulative IPC: 1.51111 (Simulation time: 2 hr 53 min 25 sec) 
Heartbeat CPU 3 instructions: 540000000 cycles: 893243583 heartbeat IPC: 0.437103 cumulative IPC: 0.412665 (Simulation time: 2 hr 54 min 3 sec) 
Heartbeat CPU 2 instructions: 1460000000 cycles: 897195026 heartbeat IPC: 1.24282 cumulative IPC: 1.5083 (Simulation time: 2 hr 54 min 40 sec) 
Heartbeat CPU 0 instructions: 530000000 cycles: 898134680 heartbeat IPC: 0.429239 cumulative IPC: 0.429105 (Simulation time: 2 hr 54 min 49 sec) 
Heartbeat CPU 1 instructions: 690000002 cycles: 903143195 heartbeat IPC: 0.510218 cumulative IPC: 0.533137 (Simulation time: 2 hr 55 min 41 sec) 
Heartbeat CPU 2 instructions: 1470000002 cycles: 903733983 heartbeat IPC: 1.5293 cumulative IPC: 1.50848 (Simulation time: 2 hr 55 min 47 sec) 
Heartbeat CPU 2 instructions: 1480000000 cycles: 910238123 heartbeat IPC: 1.53748 cumulative IPC: 1.50872 (Simulation time: 2 hr 56 min 52 sec) 
Heartbeat CPU 3 instructions: 550000001 cycles: 915617694 heartbeat IPC: 0.446945 cumulative IPC: 0.41364 (Simulation time: 2 hr 57 min 45 sec) 
Heartbeat CPU 2 instructions: 1490000000 cycles: 916736737 heartbeat IPC: 1.53879 cumulative IPC: 1.50897 (Simulation time: 2 hr 57 min 57 sec) 
Heartbeat CPU 0 instructions: 540000000 cycles: 921395606 heartbeat IPC: 0.429906 cumulative IPC: 0.429129 (Simulation time: 2 hr 58 min 44 sec) 
Heartbeat CPU 1 instructions: 700000000 cycles: 922358855 heartbeat IPC: 0.520409 cumulative IPC: 0.532829 (Simulation time: 2 hr 58 min 54 sec) 
Heartbeat CPU 2 instructions: 1500000000 cycles: 923129633 heartbeat IPC: 1.56424 cumulative IPC: 1.50941 (Simulation time: 2 hr 59 min 2 sec) 
Heartbeat CPU 2 instructions: 1510000002 cycles: 929639703 heartbeat IPC: 1.53608 cumulative IPC: 1.50963 (Simulation time: 3 hr 0 min 7 sec) 
Heartbeat CPU 2 instructions: 1520000000 cycles: 936092073 heartbeat IPC: 1.54982 cumulative IPC: 1.50995 (Simulation time: 3 hr 1 min 12 sec) 
Heartbeat CPU 3 instructions: 560000000 cycles: 937489529 heartbeat IPC: 0.457209 cumulative IPC: 0.414819 (Simulation time: 3 hr 1 min 27 sec) 
Heartbeat CPU 1 instructions: 710000000 cycles: 941639820 heartbeat IPC: 0.518646 cumulative IPC: 0.532493 (Simulation time: 3 hr 2 min 9 sec) 
Heartbeat CPU 2 instructions: 1530000002 cycles: 942500002 heartbeat IPC: 1.56057 cumulative IPC: 1.51035 (Simulation time: 3 hr 2 min 17 sec) 
Heartbeat CPU 0 instructions: 550000001 cycles: 944462892 heartbeat IPC: 0.433514 cumulative IPC: 0.429253 (Simulation time: 3 hr 2 min 37 sec) 
Heartbeat CPU 2 instructions: 1540000000 cycles: 948932673 heartbeat IPC: 1.55456 cumulative IPC: 1.5107 (Simulation time: 3 hr 3 min 22 sec) 
Heartbeat CPU 2 instructions: 1550000002 cycles: 955372560 heartbeat IPC: 1.55282 cumulative IPC: 1.51102 (Simulation time: 3 hr 4 min 28 sec) 
Heartbeat CPU 3 instructions: 570000000 cycles: 958936484 heartbeat IPC: 0.466267 cumulative IPC: 0.416148 (Simulation time: 3 hr 5 min 4 sec) 
Heartbeat CPU 1 instructions: 720000000 cycles: 960215537 heartbeat IPC: 0.538337 cumulative IPC: 0.532623 (Simulation time: 3 hr 5 min 17 sec) 
Heartbeat CPU 2 instructions: 1560000000 cycles: 961835946 heartbeat IPC: 1.54718 cumulative IPC: 1.51131 (Simulation time: 3 hr 5 min 34 sec) 
Heartbeat CPU 0 instructions: 560000000 cycles: 967611584 heartbeat IPC: 0.43199 cumulative IPC: 0.429328 (Simulation time: 3 hr 6 min 32 sec) 
Heartbeat CPU 2 instructions: 1570000002 cycles: 968360702 heartbeat IPC: 1.53262 cumulative IPC: 1.51147 (Simulation time: 3 hr 6 min 40 sec) 
Heartbeat CPU 2 instructions: 1580000000 cycles: 975236517 heartbeat IPC: 1.45437 cumulative IPC: 1.51101 (Simulation time: 3 hr 7 min 48 sec) 
Heartbeat CPU 1 instructions: 730000003 cycles: 978967045 heartbeat IPC: 0.533291 cumulative IPC: 0.532638 (Simulation time: 3 hr 8 min 27 sec) 
Heartbeat CPU 3 instructions: 580000000 cycles: 979883158 heartbeat IPC: 0.477403 cumulative IPC: 0.417657 (Simulation time: 3 hr 8 min 36 sec) 
Heartbeat CPU 2 instructions: 1590000003 cycles: 981465739 heartbeat IPC: 1.60534 cumulative IPC: 1.5117 (Simulation time: 3 hr 8 min 52 sec) 
Heartbeat CPU 2 instructions: 1600000000 cycles: 987741622 heartbeat IPC: 1.5934 cumulative IPC: 1.51229 (Simulation time: 3 hr 9 min 56 sec) 
Heartbeat CPU 0 instructions: 570000002 cycles: 990757179 heartbeat IPC: 0.432048 cumulative IPC: 0.429401 (Simulation time: 3 hr 10 min 28 sec) 
Heartbeat CPU 2 instructions: 1610000002 cycles: 994169651 heartbeat IPC: 1.55569 cumulative IPC: 1.51262 (Simulation time: 3 hr 11 min 3 sec) 
Heartbeat CPU 1 instructions: 740000000 cycles: 997524060 heartbeat IPC: 0.53888 cumulative IPC: 0.532771 (Simulation time: 3 hr 11 min 37 sec) 
Heartbeat CPU 3 instructions: 590000000 cycles: 1000425171 heartbeat IPC: 0.486807 cumulative IPC: 0.419287 (Simulation time: 3 hr 12 min 7 sec) 
Heartbeat CPU 2 instructions: 1620000000 cycles: 1000485320 heartbeat IPC: 1.58336 cumulative IPC: 1.51313 (Simulation time: 3 hr 12 min 8 sec) 
Heartbeat CPU 2 instructions: 1630000003 cycles: 1006853059 heartbeat IPC: 1.57042 cumulative IPC: 1.51354 (Simulation time: 3 hr 13 min 13 sec) 
Heartbeat CPU 2 instructions: 1640000000 cycles: 1013060267 heartbeat IPC: 1.61103 cumulative IPC: 1.51423 (Simulation time: 3 hr 14 min 17 sec) 
Heartbeat CPU 0 instructions: 580000000 cycles: 1013885619 heartbeat IPC: 0.432368 cumulative IPC: 0.429479 (Simulation time: 3 hr 14 min 25 sec) 
Heartbeat CPU 1 instructions: 750000003 cycles: 1015617287 heartbeat IPC: 0.552693 cumulative IPC: 0.533178 (Simulation time: 3 hr 14 min 41 sec) 
Heartbeat CPU 2 instructions: 1650000001 cycles: 1020159123 heartbeat IPC: 1.40868 cumulative IPC: 1.51339 (Simulation time: 3 hr 15 min 29 sec) 
Heartbeat CPU 3 instructions: 600000000 cycles: 1020669774 heartbeat IPC: 0.493959 cumulative IPC: 0.420982 (Simulation time: 3 hr 15 min 34 sec) 
Heartbeat CPU 2 instructions: 1660000000 cycles: 1026703882 heartbeat IPC: 1.52794 cumulative IPC: 1.51349 (Simulation time: 3 hr 16 min 34 sec) 
Heartbeat CPU 2 instructions: 1670000000 cycles: 1033167049 heartbeat IPC: 1.54723 cumulative IPC: 1.51374 (Simulation time: 3 hr 17 min 41 sec) 
Heartbeat CPU 1 instructions: 760000000 cycles: 1033932427 heartbeat IPC: 0.545996 cumulative IPC: 0.533437 (Simulation time: 3 hr 17 min 49 sec) 
Heartbeat CPU 0 instructions: 590000000 cycles: 1037084503 heartbeat IPC: 0.431055 cumulative IPC: 0.429519 (Simulation time: 3 hr 18 min 21 sec) 
Heartbeat CPU 2 instructions: 1680000000 cycles: 1039660418 heartbeat IPC: 1.54003 cumulative IPC: 1.51392 (Simulation time: 3 hr 18 min 47 sec) 
Heartbeat CPU 3 instructions: 610000001 cycles: 1040480579 heartbeat IPC: 0.504775 cumulative IPC: 0.422804 (Simulation time: 3 hr 18 min 56 sec) 
Heartbeat CPU 2 instructions: 1690000001 cycles: 1046155086 heartbeat IPC: 1.53972 cumulative IPC: 1.51411 (Simulation time: 3 hr 20 min 5 sec) 
Heartbeat CPU 1 instructions: 770000003 cycles: 1052320388 heartbeat IPC: 0.543834 cumulative IPC: 0.533644 (Simulation time: 3 hr 21 min 17 sec) 
Heartbeat CPU 2 instructions: 1700000000 cycles: 1052608480 heartbeat IPC: 1.54957 cumulative IPC: 1.51435 (Simulation time: 3 hr 21 min 21 sec) 
Heartbeat CPU 2 instructions: 1710000001 cycles: 1059036000 heartbeat IPC: 1.55581 cumulative IPC: 1.51464 (Simulation time: 3 hr 22 min 33 sec) 
Heartbeat CPU 0 instructions: 600000000 cycles: 1060108648 heartbeat IPC: 0.434327 cumulative IPC: 0.429638 (Simulation time: 3 hr 22 min 44 sec) 
Heartbeat CPU 3 instructions: 620000000 cycles: 1060144737 heartbeat IPC: 0.508539 cumulative IPC: 0.424615 (Simulation time: 3 hr 22 min 44 sec) 
Heartbeat CPU 2 instructions: 1720000000 cycles: 1065513677 heartbeat IPC: 1.54376 cumulative IPC: 1.51484 (Simulation time: 3 hr 23 min 40 sec) 
Heartbeat CPU 1 instructions: 780000000 cycles: 1070595875 heartbeat IPC: 0.547181 cumulative IPC: 0.533907 (Simulation time: 3 hr 24 min 30 sec) 
Heartbeat CPU 2 instructions: 1730000001 cycles: 1072629652 heartbeat IPC: 1.40529 cumulative IPC: 1.51402 (Simulation time: 3 hr 24 min 50 sec) 
Heartbeat CPU 2 instructions: 1740000000 cycles: 1079135003 heartbeat IPC: 1.5372 cumulative IPC: 1.51417 (Simulation time: 3 hr 25 min 58 sec) 
Heartbeat CPU 3 instructions: 630000001 cycles: 1079483284 heartbeat IPC: 0.517102 cumulative IPC: 0.426496 (Simulation time: 3 hr 26 min 2 sec) 
Heartbeat CPU 0 instructions: 610000003 cycles: 1083081594 heartbeat IPC: 0.435295 cumulative IPC: 0.429774 (Simulation time: 3 hr 26 min 44 sec) 
Heartbeat CPU 2 instructions: 1750000003 cycles: 1085408748 heartbeat IPC: 1.59394 cumulative IPC: 1.5147 (Simulation time: 3 hr 27 min 9 sec) 
Heartbeat CPU 1 instructions: 790000001 cycles: 1089364037 heartbeat IPC: 0.532817 cumulative IPC: 0.533886 (Simulation time: 3 hr 27 min 50 sec) 
Heartbeat CPU 2 instructions: 1760000000 cycles: 1091803610 heartbeat IPC: 1.56375 cumulative IPC: 1.51502 (Simulation time: 3 hr 28 min 19 sec) 
Heartbeat CPU 3 instructions: 640000000 cycles: 1098377217 heartbeat IPC: 0.52927 cumulative IPC: 0.4285 (Simulation time: 3 hr 29 min 25 sec) 
Heartbeat CPU 2 instructions: 1770000001 cycles: 1099413946 heartbeat IPC: 1.314 cumulative IPC: 1.51345 (Simulation time: 3 hr 29 min 35 sec) 
Heartbeat CPU 0 instructions: 620000000 cycles: 1105924038 heartbeat IPC: 0.437781 cumulative IPC: 0.429962 (Simulation time: 3 hr 30 min 41 sec) 
Heartbeat CPU 2 instructions: 1780000000 cycles: 1105937296 heartbeat IPC: 1.53295 cumulative IPC: 1.51358 (Simulation time: 3 hr 30 min 42 sec) 
Heartbeat CPU 1 instructions: 800000000 cycles: 1108245311 heartbeat IPC: 0.529625 cumulative IPC: 0.533804 (Simulation time: 3 hr 31 min 5 sec) 
Heartbeat CPU 2 instructions: 1790000000 cycles: 1112352951 heartbeat IPC: 1.55869 cumulative IPC: 1.51387 (Simulation time: 3 hr 31 min 48 sec) 
Heartbeat CPU 3 instructions: 650000001 cycles: 1117098505 heartbeat IPC: 0.534151 cumulative IPC: 0.430502 (Simulation time: 3 hr 32 min 36 sec) 
Heartbeat CPU 2 instructions: 1800000000 cycles: 1118847726 heartbeat IPC: 1.5397 cumulative IPC: 1.51404 (Simulation time: 3 hr 32 min 54 sec) 
Heartbeat CPU 2 instructions: 1810000002 cycles: 1125210365 heartbeat IPC: 1.57168 cumulative IPC: 1.51441 (Simulation time: 3 hr 34 min 4 sec) 
Heartbeat CPU 1 instructions: 810000001 cycles: 1126705332 heartbeat IPC: 0.541711 cumulative IPC: 0.53395 (Simulation time: 3 hr 34 min 22 sec) 
Heartbeat CPU 0 instructions: 630000001 cycles: 1128630358 heartbeat IPC: 0.440406 cumulative IPC: 0.430199 (Simulation time: 3 hr 34 min 42 sec) 
Heartbeat CPU 3 instructions: 660000000 cycles: 1130475929 heartbeat IPC: 0.747528 cumulative IPC: 0.434737 (Simulation time: 3 hr 35 min 3 sec) 
Heartbeat CPU 2 instructions: 1820000000 cycles: 1131678208 heartbeat IPC: 1.54611 cumulative IPC: 1.51461 (Simulation time: 3 hr 35 min 16 sec) 
Heartbeat CPU 2 instructions: 1830000002 cycles: 1138028406 heartbeat IPC: 1.57475 cumulative IPC: 1.51499 (Simulation time: 3 hr 36 min 27 sec) 
Heartbeat CPU 3 instructions: 670000000 cycles: 1142909986 heartbeat IPC: 0.804243 cumulative IPC: 0.439269 (Simulation time: 3 hr 37 min 22 sec) 
Heartbeat CPU 2 instructions: 1840000000 cycles: 1144494089 heartbeat IPC: 1.54663 cumulative IPC: 1.51519 (Simulation time: 3 hr 37 min 39 sec) 
Heartbeat CPU 1 instructions: 820000000 cycles: 1145530244 heartbeat IPC: 0.531211 cumulative IPC: 0.533899 (Simulation time: 3 hr 37 min 51 sec) 
Heartbeat CPU 2 instructions: 1850000003 cycles: 1151612545 heartbeat IPC: 1.4048 cumulative IPC: 1.51442 (Simulation time: 3 hr 38 min 55 sec) 
Heartbeat CPU 0 instructions: 640000000 cycles: 1151628997 heartbeat IPC: 0.434808 cumulative IPC: 0.430302 (Simulation time: 3 hr 38 min 55 sec) 
Heartbeat CPU 3 instructions: 680000000 cycles: 1155541008 heartbeat IPC: 0.791702 cumulative IPC: 0.443606 (Simulation time: 3 hr 39 min 39 sec) 
Heartbeat CPU 2 instructions: 1860000000 cycles: 1158080655 heartbeat IPC: 1.54605 cumulative IPC: 1.51462 (Simulation time: 3 hr 40 min 7 sec) 
Heartbeat CPU 1 instructions: 830000000 cycles: 1164212326 heartbeat IPC: 0.535272 cumulative IPC: 0.533924 (Simulation time: 3 hr 41 min 13 sec) 
Heartbeat CPU 2 instructions: 1870000002 cycles: 1164530037 heartbeat IPC: 1.55054 cumulative IPC: 1.51485 (Simulation time: 3 hr 41 min 16 sec) 
Heartbeat CPU 3 instructions: 690000002 cycles: 1168332979 heartbeat IPC: 0.78174 cumulative IPC: 0.447768 (Simulation time: 3 hr 41 min 56 sec) 
Heartbeat CPU 2 instructions: 1880000000 cycles: 1170916157 heartbeat IPC: 1.5659 cumulative IPC: 1.51516 (Simulation time: 3 hr 42 min 23 sec) 
Heartbeat CPU 0 instructions: 650000000 cycles: 1174598972 heartbeat IPC: 0.435351 cumulative IPC: 0.430413 (Simulation time: 3 hr 43 min 1 sec) 
Heartbeat CPU 2 instructions: 1890000001 cycles: 1177384121 heartbeat IPC: 1.54608 cumulative IPC: 1.51535 (Simulation time: 3 hr 43 min 30 sec) 
Heartbeat CPU 3 instructions: 700000000 cycles: 1181522474 heartbeat IPC: 0.758179 cumulative IPC: 0.451658 (Simulation time: 3 hr 44 min 12 sec) 
Heartbeat CPU 1 instructions: 840000000 cycles: 1182305090 heartbeat IPC: 0.552707 cumulative IPC: 0.534247 (Simulation time: 3 hr 44 min 20 sec) 
Heartbeat CPU 2 instructions: 1900000000 cycles: 1183811122 heartbeat IPC: 1.55594 cumulative IPC: 1.5156 (Simulation time: 3 hr 44 min 36 sec) 
Heartbeat CPU 2 instructions: 1910000002 cycles: 1190778901 heartbeat IPC: 1.43518 cumulative IPC: 1.51507 (Simulation time: 3 hr 45 min 47 sec) 
Heartbeat CPU 3 instructions: 710000001 cycles: 1194839347 heartbeat IPC: 0.750927 cumulative IPC: 0.455397 (Simulation time: 3 hr 46 min 27 sec) 
Heartbeat CPU 2 instructions: 1920000000 cycles: 1197224848 heartbeat IPC: 1.55136 cumulative IPC: 1.51529 (Simulation time: 3 hr 46 min 52 sec) 
Heartbeat CPU 0 instructions: 660000000 cycles: 1197444016 heartbeat IPC: 0.437732 cumulative IPC: 0.43057 (Simulation time: 3 hr 46 min 54 sec) 
Heartbeat CPU 1 instructions: 850000000 cycles: 1200485377 heartbeat IPC: 0.550046 cumulative IPC: 0.534515 (Simulation time: 3 hr 47 min 25 sec) 
Heartbeat CPU 2 instructions: 1930000000 cycles: 1204419559 heartbeat IPC: 1.38991 cumulative IPC: 1.51445 (Simulation time: 3 hr 48 min 4 sec) 
Heartbeat CPU 3 instructions: 720000000 cycles: 1208242259 heartbeat IPC: 0.746106 cumulative IPC: 0.459008 (Simulation time: 3 hr 48 min 40 sec) 
Heartbeat CPU 2 instructions: 1940000000 cycles: 1211752797 heartbeat IPC: 1.36365 cumulative IPC: 1.51343 (Simulation time: 3 hr 49 min 16 sec) 
Heartbeat CPU 2 instructions: 1950000000 cycles: 1218067183 heartbeat IPC: 1.58369 cumulative IPC: 1.51384 (Simulation time: 3 hr 50 min 25 sec) 
Heartbeat CPU 1 instructions: 860000000 cycles: 1218633521 heartbeat IPC: 0.551021 cumulative IPC: 0.53479 (Simulation time: 3 hr 50 min 31 sec) 
Heartbeat CPU 0 instructions: 670000000 cycles: 1220272372 heartbeat IPC: 0.438052 cumulative IPC: 0.430726 (Simulation time: 3 hr 50 min 49 sec) 
Heartbeat CPU 3 instructions: 730000001 cycles: 1222047768 heartbeat IPC: 0.724349 cumulative IPC: 0.46236 (Simulation time: 3 hr 51 min 8 sec) 
Heartbeat CPU 2 instructions: 1960000000 cycles: 1224377728 heartbeat IPC: 1.58465 cumulative IPC: 1.51424 (Simulation time: 3 hr 51 min 33 sec) 
Heartbeat CPU 2 instructions: 1970000003 cycles: 1230670142 heartbeat IPC: 1.58922 cumulative IPC: 1.51467 (Simulation time: 3 hr 52 min 38 sec) 
Heartbeat CPU 3 instructions: 740000000 cycles: 1236024788 heartbeat IPC: 0.71546 cumulative IPC: 0.465555 (Simulation time: 3 hr 53 min 33 sec) 
Heartbeat CPU 1 instructions: 870000003 cycles: 1236263220 heartbeat IPC: 0.567225 cumulative IPC: 0.535306 (Simulation time: 3 hr 53 min 35 sec) 
Heartbeat CPU 2 instructions: 1980000000 cycles: 1237597764 heartbeat IPC: 1.4435 cumulative IPC: 1.51423 (Simulation time: 3 hr 53 min 47 sec) 
Heartbeat CPU 0 instructions: 680000000 cycles: 1243070632 heartbeat IPC: 0.43863 cumulative IPC: 0.430888 (Simulation time: 3 hr 54 min 42 sec) 
Heartbeat CPU 2 instructions: 1990000003 cycles: 1244036518 heartbeat IPC: 1.5531 cumulative IPC: 1.51445 (Simulation time: 3 hr 54 min 52 sec) 
Heartbeat CPU 3 instructions: 750000002 cycles: 1250377891 heartbeat IPC: 0.696714 cumulative IPC: 0.468514 (Simulation time: 3 hr 55 min 56 sec) 
*** Reached end of trace for Core: 2 Repeating trace: /scratch/user/djimenez/champsim-traces/speccpu2017/xz/648.exchange2_s/648.exchange2_s-72B.champsimtrace.xz
Heartbeat CPU 2 instructions: 2000000000 cycles: 1250510816 heartbeat IPC: 1.54457 cumulative IPC: 1.51463 (Simulation time: 3 hr 55 min 58 sec) 
Heartbeat CPU 1 instructions: 880000000 cycles: 1254106749 heartbeat IPC: 0.560427 cumulative IPC: 0.535705 (Simulation time: 3 hr 56 min 34 sec) 
Heartbeat CPU 2 instructions: 2010000001 cycles: 1256969310 heartbeat IPC: 1.54835 cumulative IPC: 1.51482 (Simulation time: 3 hr 57 min 2 sec) 
Heartbeat CPU 2 instructions: 2020000000 cycles: 1263421974 heartbeat IPC: 1.54975 cumulative IPC: 1.51502 (Simulation time: 3 hr 58 min 8 sec) 
Heartbeat CPU 3 instructions: 760000000 cycles: 1264848302 heartbeat IPC: 0.691065 cumulative IPC: 0.47135 (Simulation time: 3 hr 58 min 23 sec) 
Heartbeat CPU 0 instructions: 690000000 cycles: 1265806497 heartbeat IPC: 0.439834 cumulative IPC: 0.431067 (Simulation time: 3 hr 58 min 33 sec) 
Heartbeat CPU 2 instructions: 2030000001 cycles: 1269903665 heartbeat IPC: 1.54281 cumulative IPC: 1.51518 (Simulation time: 3 hr 59 min 16 sec) 
Heartbeat CPU 1 instructions: 890000001 cycles: 1271755753 heartbeat IPC: 0.566604 cumulative IPC: 0.536182 (Simulation time: 3 hr 59 min 36 sec) 
Heartbeat CPU 2 instructions: 2040000000 cycles: 1276331723 heartbeat IPC: 1.55568 cumulative IPC: 1.5154 (Simulation time: 4 hr 0 min 24 sec) 
Heartbeat CPU 3 instructions: 770000000 cycles: 1279998676 heartbeat IPC: 0.66005 cumulative IPC: 0.473834 (Simulation time: 4 hr 1 min 2 sec) 
Heartbeat CPU 2 instructions: 2050000001 cycles: 1283391989 heartbeat IPC: 1.41638 cumulative IPC: 1.5148 (Simulation time: 4 hr 1 min 36 sec) 
Heartbeat CPU 0 instructions: 700000000 cycles: 1288528578 heartbeat IPC: 0.440101 cumulative IPC: 0.431244 (Simulation time: 4 hr 2 min 30 sec) 
Heartbeat CPU 1 instructions: 900000000 cycles: 1289664265 heartbeat IPC: 0.558394 cumulative IPC: 0.536525 (Simulation time: 4 hr 2 min 42 sec) 
Heartbeat CPU 2 instructions: 2060000000 cycles: 1289900363 heartbeat IPC: 1.53648 cumulative IPC: 1.51492 (Simulation time: 4 hr 2 min 45 sec) 
Heartbeat CPU 3 instructions: 780000000 cycles: 1295305924 heartbeat IPC: 0.653285 cumulative IPC: 0.476189 (Simulation time: 4 hr 3 min 41 sec) 
Heartbeat CPU 2 instructions: 2070000003 cycles: 1296300518 heartbeat IPC: 1.56246 cumulative IPC: 1.51518 (Simulation time: 4 hr 3 min 52 sec) 
Heartbeat CPU 2 instructions: 2080000000 cycles: 1302816439 heartbeat IPC: 1.5347 cumulative IPC: 1.51529 (Simulation time: 4 hr 4 min 57 sec) 
Heartbeat CPU 1 instructions: 910000002 cycles: 1307707221 heartbeat IPC: 0.554233 cumulative IPC: 0.536796 (Simulation time: 4 hr 5 min 48 sec) 
Heartbeat CPU 2 instructions: 2090000002 cycles: 1309259098 heartbeat IPC: 1.55215 cumulative IPC: 1.51549 (Simulation time: 4 hr 6 min 5 sec) 
Heartbeat CPU 3 instructions: 790000001 cycles: 1311000909 heartbeat IPC: 0.637146 cumulative IPC: 0.478327 (Simulation time: 4 hr 6 min 23 sec) 
Heartbeat CPU 0 instructions: 710000000 cycles: 1311137756 heartbeat IPC: 0.442298 cumulative IPC: 0.431456 (Simulation time: 4 hr 6 min 24 sec) 
Heartbeat CPU 2 instructions: 2100000000 cycles: 1315685009 heartbeat IPC: 1.5562 cumulative IPC: 1.51571 (Simulation time: 4 hr 7 min 12 sec) 
Heartbeat CPU 2 instructions: 2110000003 cycles: 1322633407 heartbeat IPC: 1.43918 cumulative IPC: 1.51526 (Simulation time: 4 hr 8 min 23 sec) 
Heartbeat CPU 1 instructions: 920000000 cycles: 1325395707 heartbeat IPC: 0.565339 cumulative IPC: 0.537218 (Simulation time: 4 hr 8 min 51 sec) 
Heartbeat CPU 3 instructions: 800000000 cycles: 1327172196 heartbeat IPC: 0.61838 cumulative IPC: 0.480217 (Simulation time: 4 hr 9 min 10 sec) 
Heartbeat CPU 2 instructions: 2120000000 cycles: 1328861508 heartbeat IPC: 1.60563 cumulative IPC: 1.51573 (Simulation time: 4 hr 9 min 28 sec) 
Heartbeat CPU 0 instructions: 720000000 cycles: 1333771050 heartbeat IPC: 0.441827 cumulative IPC: 0.43165 (Simulation time: 4 hr 10 min 20 sec) 
Heartbeat CPU 2 instructions: 2130000002 cycles: 1335015503 heartbeat IPC: 1.62496 cumulative IPC: 1.51629 (Simulation time: 4 hr 10 min 33 sec) 
Heartbeat CPU 2 instructions: 2140000000 cycles: 1341311325 heartbeat IPC: 1.58835 cumulative IPC: 1.51666 (Simulation time: 4 hr 11 min 38 sec) 
Heartbeat CPU 1 instructions: 930000002 cycles: 1343519065 heartbeat IPC: 0.551774 cumulative IPC: 0.537435 (Simulation time: 4 hr 12 min 1 sec) 
Heartbeat CPU 3 instructions: 810000000 cycles: 1343813345 heartbeat IPC: 0.60092 cumulative IPC: 0.481871 (Simulation time: 4 hr 12 min 5 sec) 
Heartbeat CPU 2 instructions: 2150000000 cycles: 1347416501 heartbeat IPC: 1.63795 cumulative IPC: 1.51727 (Simulation time: 4 hr 12 min 42 sec) 
Heartbeat CPU 2 instructions: 2160000000 cycles: 1353782541 heartbeat IPC: 1.57084 cumulative IPC: 1.51755 (Simulation time: 4 hr 13 min 47 sec) 
Heartbeat CPU 0 instructions: 730000003 cycles: 1356279252 heartbeat IPC: 0.444283 cumulative IPC: 0.431882 (Simulation time: 4 hr 14 min 13 sec) 
Heartbeat CPU 2 instructions: 2170000003 cycles: 1360081428 heartbeat IPC: 1.58758 cumulative IPC: 1.51791 (Simulation time: 4 hr 14 min 52 sec) 
Heartbeat CPU 1 instructions: 940000000 cycles: 1361244444 heartbeat IPC: 0.564163 cumulative IPC: 0.53782 (Simulation time: 4 hr 15 min 4 sec) 
Heartbeat CPU 3 instructions: 820000000 cycles: 1361493289 heartbeat IPC: 0.565613 cumulative IPC: 0.483072 (Simulation time: 4 hr 15 min 6 sec) 
Heartbeat CPU 2 instructions: 2180000000 cycles: 1366240968 heartbeat IPC: 1.6235 cumulative IPC: 1.51844 (Simulation time: 4 hr 15 min 56 sec) 
Heartbeat CPU 2 instructions: 2190000000 cycles: 1372361378 heartbeat IPC: 1.63388 cumulative IPC: 1.519 (Simulation time: 4 hr 17 min 0 sec) 
Heartbeat CPU 0 instructions: 740000000 cycles: 1378772510 heartbeat IPC: 0.444578 cumulative IPC: 0.432111 (Simulation time: 4 hr 18 min 5 sec) 
Heartbeat CPU 2 instructions: 2200000000 cycles: 1378793295 heartbeat IPC: 1.55475 cumulative IPC: 1.51919 (Simulation time: 4 hr 18 min 5 sec) 
Heartbeat CPU 3 instructions: 830000001 cycles: 1379346291 heartbeat IPC: 0.56013 cumulative IPC: 0.484172 (Simulation time: 4 hr 18 min 11 sec) 
Heartbeat CPU 1 instructions: 950000003 cycles: 1379604176 heartbeat IPC: 0.54467 cumulative IPC: 0.53792 (Simulation time: 4 hr 18 min 13 sec) 
Heartbeat CPU 2 instructions: 2210000001 cycles: 1385178287 heartbeat IPC: 1.56617 cumulative IPC: 1.51943 (Simulation time: 4 hr 19 min 10 sec) 
Heartbeat CPU 2 instructions: 2220000000 cycles: 1391579623 heartbeat IPC: 1.56217 cumulative IPC: 1.51964 (Simulation time: 4 hr 20 min 15 sec) 
Heartbeat CPU 1 instructions: 960000000 cycles: 1397858303 heartbeat IPC: 0.547821 cumulative IPC: 0.538063 (Simulation time: 4 hr 21 min 18 sec) 
Heartbeat CPU 2 instructions: 2230000003 cycles: 1397968747 heartbeat IPC: 1.56516 cumulative IPC: 1.51987 (Simulation time: 4 hr 21 min 19 sec) 
Heartbeat CPU 3 instructions: 840000000 cycles: 1398129595 heartbeat IPC: 0.532388 cumulative IPC: 0.484886 (Simulation time: 4 hr 21 min 21 sec) 
Heartbeat CPU 0 instructions: 750000000 cycles: 1401301776 heartbeat IPC: 0.443867 cumulative IPC: 0.432319 (Simulation time: 4 hr 21 min 53 sec) 
Heartbeat CPU 2 instructions: 2240000000 cycles: 1404390095 heartbeat IPC: 1.5573 cumulative IPC: 1.52006 (Simulation time: 4 hr 22 min 24 sec) 
Heartbeat CPU 2 instructions: 2250000003 cycles: 1410760159 heartbeat IPC: 1.56984 cumulative IPC: 1.52031 (Simulation time: 4 hr 23 min 28 sec) 
Heartbeat CPU 1 instructions: 970000002 cycles: 1416367465 heartbeat IPC: 0.540273 cumulative IPC: 0.538094 (Simulation time: 4 hr 24 min 23 sec) 
Heartbeat CPU 2 instructions: 2260000000 cycles: 1417169681 heartbeat IPC: 1.56018 cumulative IPC: 1.52051 (Simulation time: 4 hr 24 min 31 sec) 
Heartbeat CPU 3 instructions: 850000001 cycles: 1417971970 heartbeat IPC: 0.503972 cumulative IPC: 0.48518 (Simulation time: 4 hr 24 min 39 sec) 
Heartbeat CPU 2 instructions: 2270000000 cycles: 1423541646 heartbeat IPC: 1.56937 cumulative IPC: 1.52075 (Simulation time: 4 hr 25 min 35 sec) 
Heartbeat CPU 0 instructions: 760000000 cycles: 1423589933 heartbeat IPC: 0.448669 cumulative IPC: 0.4326 (Simulation time: 4 hr 25 min 35 sec) 
Heartbeat CPU 2 instructions: 2280000000 cycles: 1430052038 heartbeat IPC: 1.53601 cumulative IPC: 1.52082 (Simulation time: 4 hr 26 min 38 sec) 
Heartbeat CPU 1 instructions: 980000000 cycles: 1434740440 heartbeat IPC: 0.544278 cumulative IPC: 0.538181 (Simulation time: 4 hr 27 min 25 sec) 
Heartbeat CPU 2 instructions: 2290000003 cycles: 1436533872 heartbeat IPC: 1.54277 cumulative IPC: 1.52093 (Simulation time: 4 hr 27 min 42 sec) 
Heartbeat CPU 3 instructions: 860000000 cycles: 1439287612 heartbeat IPC: 0.469139 cumulative IPC: 0.484919 (Simulation time: 4 hr 28 min 9 sec) 
Heartbeat CPU 2 instructions: 2300000000 cycles: 1443002456 heartbeat IPC: 1.54593 cumulative IPC: 1.52106 (Simulation time: 4 hr 28 min 45 sec) 
Heartbeat CPU 0 instructions: 770000001 cycles: 1446003967 heartbeat IPC: 0.446149 cumulative IPC: 0.432831 (Simulation time: 4 hr 29 min 13 sec) 
Heartbeat CPU 2 instructions: 2310000000 cycles: 1449399462 heartbeat IPC: 1.56323 cumulative IPC: 1.52126 (Simulation time: 4 hr 29 min 47 sec) 
Heartbeat CPU 1 instructions: 990000003 cycles: 1453005317 heartbeat IPC: 0.547499 cumulative IPC: 0.53831 (Simulation time: 4 hr 30 min 23 sec) 
Heartbeat CPU 2 instructions: 2320000000 cycles: 1455758745 heartbeat IPC: 1.5725 cumulative IPC: 1.52151 (Simulation time: 4 hr 30 min 50 sec) 
Heartbeat CPU 2 instructions: 2330000002 cycles: 1462034173 heartbeat IPC: 1.59352 cumulative IPC: 1.52184 (Simulation time: 4 hr 31 min 51 sec) 
Heartbeat CPU 3 instructions: 870000000 cycles: 1462349394 heartbeat IPC: 0.433618 cumulative IPC: 0.484031 (Simulation time: 4 hr 31 min 54 sec) 
Heartbeat CPU 2 instructions: 2340000000 cycles: 1468117353 heartbeat IPC: 1.64388 cumulative IPC: 1.5224 (Simulation time: 4 hr 32 min 50 sec) 
Heartbeat CPU 0 instructions: 780000000 cycles: 1468389343 heartbeat IPC: 0.44672 cumulative IPC: 0.433063 (Simulation time: 4 hr 32 min 53 sec) 
Heartbeat CPU 1 instructions: 1000000000 cycles: 1471752187 heartbeat IPC: 0.533422 cumulative IPC: 0.538242 (Simulation time: 4 hr 33 min 25 sec) 
Heartbeat CPU 2 instructions: 2350000003 cycles: 1474123582 heartbeat IPC: 1.66494 cumulative IPC: 1.52304 (Simulation time: 4 hr 33 min 48 sec) 
Heartbeat CPU 2 instructions: 2360000000 cycles: 1480124173 heartbeat IPC: 1.6665 cumulative IPC: 1.52367 (Simulation time: 4 hr 34 min 47 sec) 
Heartbeat CPU 2 instructions: 2370000000 cycles: 1486229090 heartbeat IPC: 1.63802 cumulative IPC: 1.52419 (Simulation time: 4 hr 35 min 42 sec) 
Heartbeat CPU 3 instructions: 880000000 cycles: 1488739343 heartbeat IPC: 0.378932 cumulative IPC: 0.481992 (Simulation time: 4 hr 36 min 6 sec) 
Heartbeat CPU 1 instructions: 1010000001 cycles: 1490113289 heartbeat IPC: 0.54463 cumulative IPC: 0.538328 (Simulation time: 4 hr 36 min 19 sec) 
Heartbeat CPU 0 instructions: 790000000 cycles: 1490821538 heartbeat IPC: 0.445788 cumulative IPC: 0.433273 (Simulation time: 4 hr 36 min 26 sec) 
Heartbeat CPU 2 instructions: 2380000000 cycles: 1492315710 heartbeat IPC: 1.64295 cumulative IPC: 1.52472 (Simulation time: 4 hr 36 min 40 sec) 
Heartbeat CPU 2 instructions: 2390000002 cycles: 1498282196 heartbeat IPC: 1.67603 cumulative IPC: 1.52538 (Simulation time: 4 hr 37 min 38 sec) 
Heartbeat CPU 2 instructions: 2400000000 cycles: 1504512764 heartbeat IPC: 1.60499 cumulative IPC: 1.52574 (Simulation time: 4 hr 38 min 36 sec) 
Heartbeat CPU 1 instructions: 1020000000 cycles: 1508774246 heartbeat IPC: 0.535878 cumulative IPC: 0.538295 (Simulation time: 4 hr 39 min 16 sec) 
Heartbeat CPU 2 instructions: 2410000000 cycles: 1510747094 heartbeat IPC: 1.60402 cumulative IPC: 1.52609 (Simulation time: 4 hr 39 min 35 sec) 
Heartbeat CPU 0 instructions: 800000000 cycles: 1513011825 heartbeat IPC: 0.450648 cumulative IPC: 0.433551 (Simulation time: 4 hr 39 min 56 sec) 
Heartbeat CPU 2 instructions: 2420000000 cycles: 1517029006 heartbeat IPC: 1.59187 cumulative IPC: 1.52639 (Simulation time: 4 hr 40 min 32 sec) 
Heartbeat CPU 3 instructions: 890000000 cycles: 1520289037 heartbeat IPC: 0.31696 cumulative IPC: 0.478249 (Simulation time: 4 hr 41 min 2 sec) 
Heartbeat CPU 2 instructions: 2430000000 cycles: 1523050080 heartbeat IPC: 1.66083 cumulative IPC: 1.52697 (Simulation time: 4 hr 41 min 28 sec) 
Heartbeat CPU 1 instructions: 1030000003 cycles: 1527403402 heartbeat IPC: 0.536793 cumulative IPC: 0.538275 (Simulation time: 4 hr 42 min 8 sec) 
Heartbeat CPU 2 instructions: 2440000000 cycles: 1529265340 heartbeat IPC: 1.60894 cumulative IPC: 1.52733 (Simulation time: 4 hr 42 min 26 sec) 
Heartbeat CPU 2 instructions: 2450000000 cycles: 1535415663 heartbeat IPC: 1.62593 cumulative IPC: 1.52776 (Simulation time: 4 hr 43 min 22 sec) 
Heartbeat CPU 0 instructions: 810000000 cycles: 1535732931 heartbeat IPC: 0.440119 cumulative IPC: 0.433657 (Simulation time: 4 hr 43 min 25 sec) 
Heartbeat CPU 2 instructions: 2460000000 cycles: 1541610502 heartbeat IPC: 1.61425 cumulative IPC: 1.52814 (Simulation time: 4 hr 44 min 22 sec) 
Heartbeat CPU 1 instructions: 1040000000 cycles: 1546118756 heartbeat IPC: 0.53432 cumulative IPC: 0.538222 (Simulation time: 4 hr 45 min 5 sec) 
Heartbeat CPU 2 instructions: 2470000003 cycles: 1547836206 heartbeat IPC: 1.60624 cumulative IPC: 1.52849 (Simulation time: 4 hr 45 min 22 sec) 
Heartbeat CPU 2 instructions: 2480000000 cycles: 1553999296 heartbeat IPC: 1.62256 cumulative IPC: 1.52889 (Simulation time: 4 hr 46 min 22 sec) 
Heartbeat CPU 3 instructions: 900000000 cycles: 1554007047 heartbeat IPC: 0.296577 cumulative IPC: 0.47395 (Simulation time: 4 hr 46 min 22 sec) 
Heartbeat CPU 0 instructions: 820000000 cycles: 1558710044 heartbeat IPC: 0.435216 cumulative IPC: 0.433682 (Simulation time: 4 hr 47 min 6 sec) 
Heartbeat CPU 2 instructions: 2490000000 cycles: 1561180300 heartbeat IPC: 1.39256 cumulative IPC: 1.52821 (Simulation time: 4 hr 47 min 28 sec) 
Heartbeat CPU 1 instructions: 1050000000 cycles: 1564740648 heartbeat IPC: 0.537002 cumulative IPC: 0.538207 (Simulation time: 4 hr 48 min 2 sec) 
Heartbeat CPU 2 instructions: 2500000000 cycles: 1567741333 heartbeat IPC: 1.52415 cumulative IPC: 1.52819 (Simulation time: 4 hr 48 min 30 sec) 
Heartbeat CPU 2 instructions: 2510000002 cycles: 1574250036 heartbeat IPC: 1.5364 cumulative IPC: 1.52823 (Simulation time: 4 hr 49 min 32 sec) 
Heartbeat CPU 2 instructions: 2520000000 cycles: 1580708566 heartbeat IPC: 1.54834 cumulative IPC: 1.52832 (Simulation time: 4 hr 50 min 35 sec) 
Heartbeat CPU 0 instructions: 830000000 cycles: 1581893145 heartbeat IPC: 0.431349 cumulative IPC: 0.433645 (Simulation time: 4 hr 50 min 46 sec) 
Heartbeat CPU 3 instructions: 910000001 cycles: 1582101046 heartbeat IPC: 0.355948 cumulative IPC: 0.471668 (Simulation time: 4 hr 50 min 48 sec) 
Heartbeat CPU 1 instructions: 1060000000 cycles: 1583952228 heartbeat IPC: 0.520519 cumulative IPC: 0.537973 (Simulation time: 4 hr 51 min 6 sec) 
Heartbeat CPU 2 instructions: 2530000001 cycles: 1587275553 heartbeat IPC: 1.52277 cumulative IPC: 1.52829 (Simulation time: 4 hr 51 min 38 sec) 
Heartbeat CPU 2 instructions: 2540000000 cycles: 1593768285 heartbeat IPC: 1.54018 cumulative IPC: 1.52834 (Simulation time: 4 hr 52 min 39 sec) 
Heartbeat CPU 2 instructions: 2550000002 cycles: 1600229051 heartbeat IPC: 1.5478 cumulative IPC: 1.52843 (Simulation time: 4 hr 53 min 38 sec) 
Heartbeat CPU 1 instructions: 1070000000 cycles: 1603208228 heartbeat IPC: 0.519319 cumulative IPC: 0.537729 (Simulation time: 4 hr 54 min 5 sec) 
Heartbeat CPU 0 instructions: 840000000 cycles: 1605147493 heartbeat IPC: 0.430027 cumulative IPC: 0.433588 (Simulation time: 4 hr 54 min 22 sec) 
Heartbeat CPU 2 instructions: 2560000000 cycles: 1607237434 heartbeat IPC: 1.42686 cumulative IPC: 1.52795 (Simulation time: 4 hr 54 min 41 sec) 
Heartbeat CPU 2 instructions: 2570000000 cycles: 1613561557 heartbeat IPC: 1.58125 cumulative IPC: 1.52818 (Simulation time: 4 hr 55 min 41 sec) 
Heartbeat CPU 3 instructions: 920000000 cycles: 1615481924 heartbeat IPC: 0.299573 cumulative IPC: 0.467804 (Simulation time: 4 hr 55 min 59 sec) 
Heartbeat CPU 2 instructions: 2580000000 cycles: 1619963725 heartbeat IPC: 1.56197 cumulative IPC: 1.52832 (Simulation time: 4 hr 56 min 41 sec) 
Heartbeat CPU 1 instructions: 1080000000 cycles: 1622329190 heartbeat IPC: 0.522986 cumulative IPC: 0.537541 (Simulation time: 4 hr 57 min 1 sec) 
[...]
Heartbeat CPU 3 instructions: 1180000000 cycles: 2332166344 heartbeat IPC: 0.360916 cumulative IPC: 0.433639 (Simulation time: 6 hr 46 min 42 sec) 
Heartbeat CPU 2 instructions: 3650000001 cycles: 2334927430 heartbeat IPC: 1.40828 cumulative IPC: 1.51803 (Simulation time: 6 hr 47 min 7 sec) 
Heartbeat CPU 0 instructions: 1160000000 cycles: 2337817516 heartbeat IPC: 0.437547 cumulative IPC: 0.43464 (Simulation time: 6 hr 47 min 33 sec) 
Heartbeat CPU 2 instructions: 3660000000 cycles: 2341470661 heartbeat IPC: 1.5283 cumulative IPC: 1.51806 (Simulation time: 6 hr 48 min 7 sec) 
Heartbeat CPU 1 instructions: 1470000001 cycles: 2346969968 heartbeat IPC: 0.55376 cumulative IPC: 0.537755 (Simulation time: 6 hr 48 min 58 sec) 
Heartbeat CPU 2 instructions: 3670000000 cycles: 2347934791 heartbeat IPC: 1.547 cumulative IPC: 1.51815 (Simulation time: 6 hr 49 min 7 sec) 
Heartbeat CPU 3 instructions: 1190000000 cycles: 2352736505 heartbeat IPC: 0.486141 cumulative IPC: 0.434124 (Simulation time: 6 hr 49 min 50 sec) 
Heartbeat CPU 2 instructions: 3680000000 cycles: 2354429533 heartbeat IPC: 1.53971 cumulative IPC: 1.51821 (Simulation time: 6 hr 50 min 5 sec) 
Heartbeat CPU 0 instructions: 1170000002 cycles: 2360580866 heartbeat IPC: 0.439303 cumulative IPC: 0.434687 (Simulation time: 6 hr 51 min 0 sec) 
Heartbeat CPU 2 instructions: 3690000001 cycles: 2360926218 heartbeat IPC: 1.53925 cumulative IPC: 1.51827 (Simulation time: 6 hr 51 min 3 sec) 
Heartbeat CPU 1 instructions: 1480000000 cycles: 2365988893 heartbeat IPC: 0.525792 cumulative IPC: 0.537654 (Simulation time: 6 hr 51 min 47 sec) 
Heartbeat CPU 2 instructions: 3700000000 cycles: 2367379546 heartbeat IPC: 1.54959 cumulative IPC: 1.51836 (Simulation time: 6 hr 51 min 59 sec) 
Heartbeat CPU 2 instructions: 3710000001 cycles: 2373807908 heartbeat IPC: 1.55561 cumulative IPC: 1.51847 (Simulation time: 6 hr 52 min 52 sec) 
Heartbeat CPU 2 instructions: 3720000000 cycles: 2380282722 heartbeat IPC: 1.54445 cumulative IPC: 1.51854 (Simulation time: 6 hr 53 min 49 sec) 
Heartbeat CPU 3 instructions: 1200000000 cycles: 2382531188 heartbeat IPC: 0.33563 cumulative IPC: 0.432822 (Simulation time: 6 hr 54 min 8 sec) 
Heartbeat CPU 0 instructions: 1180000000 cycles: 2383432198 heartbeat IPC: 0.437611 cumulative IPC: 0.434717 (Simulation time: 6 hr 54 min 15 sec) 
Heartbeat CPU 1 instructions: 1490000000 cycles: 2384551240 heartbeat IPC: 0.538725 cumulative IPC: 0.537662 (Simulation time: 6 hr 54 min 24 sec) 
Heartbeat CPU 2 instructions: 3730000001 cycles: 2387400469 heartbeat IPC: 1.40494 cumulative IPC: 1.51819 (Simulation time: 6 hr 54 min 49 sec) 
Heartbeat CPU 2 instructions: 3740000000 cycles: 2393904780 heartbeat IPC: 1.53744 cumulative IPC: 1.51824 (Simulation time: 6 hr 55 min 45 sec) 
Heartbeat CPU 2 instructions: 3750000003 cycles: 2400178159 heartbeat IPC: 1.59404 cumulative IPC: 1.51845 (Simulation time: 6 hr 56 min 38 sec) 
Heartbeat CPU 1 instructions: 1500000000 cycles: 2402746764 heartbeat IPC: 0.549586 cumulative IPC: 0.537758 (Simulation time: 6 hr 57 min 1 sec) 
Heartbeat CPU 0 instructions: 1190000000 cycles: 2406062157 heartbeat IPC: 0.441892 cumulative IPC: 0.434788 (Simulation time: 6 hr 57 min 30 sec) 
Heartbeat CPU 2 instructions: 3760000000 cycles: 2406570511 heartbeat IPC: 1.56437 cumulative IPC: 1.51858 (Simulation time: 6 hr 57 min 35 sec) 
Heartbeat CPU 2 instructions: 3770000001 cycles: 2414180438 heartbeat IPC: 1.31407 cumulative IPC: 1.5179 (Simulation time: 6 hr 58 min 38 sec) 
Heartbeat CPU 3 instructions: 1210000000 cycles: 2415424479 heartbeat IPC: 0.304013 cumulative IPC: 0.430969 (Simulation time: 6 hr 58 min 49 sec) 
Heartbeat CPU 2 instructions: 3780000000 cycles: 2420703808 heartbeat IPC: 1.53295 cumulative IPC: 1.51794 (Simulation time: 6 hr 59 min 34 sec) 
Heartbeat CPU 1 instructions: 1510000002 cycles: 2421039542 heartbeat IPC: 0.546664 cumulative IPC: 0.537829 (Simulation time: 6 hr 59 min 37 sec) 
Heartbeat CPU 2 instructions: 3790000000 cycles: 2427116804 heartbeat IPC: 1.55933 cumulative IPC: 1.51806 (Simulation time: 7 hr 0 min 31 sec) 
Heartbeat CPU 0 instructions: 1200000000 cycles: 2428559978 heartbeat IPC: 0.444487 cumulative IPC: 0.434883 (Simulation time: 7 hr 0 min 42 sec) 
Finished CPU 0 instructions: 1000000000 cycles: 2299467522 cumulative IPC: 0.434883 (Simulation time: 7 hr 0 min 42 sec) 
Heartbeat CPU 2 instructions: 3800000000 cycles: 2433609630 heartbeat IPC: 1.54016 cumulative IPC: 1.51812 (Simulation time: 7 hr 1 min 25 sec) 
Heartbeat CPU 1 instructions: 1520000000 cycles: 2439092849 heartbeat IPC: 0.553915 cumulative IPC: 0.537955 (Simulation time: 7 hr 2 min 13 sec) 
Heartbeat CPU 2 instructions: 3810000002 cycles: 2439971475 heartbeat IPC: 1.57187 cumulative IPC: 1.51827 (Simulation time: 7 hr 2 min 21 sec) 
Heartbeat CPU 2 instructions: 3820000000 cycles: 2446440010 heartbeat IPC: 1.54594 cumulative IPC: 1.51834 (Simulation time: 7 hr 3 min 17 sec) 
Heartbeat CPU 3 instructions: 1220000000 cycles: 2447808235 heartbeat IPC: 0.308797 cumulative IPC: 0.429263 (Simulation time: 7 hr 3 min 29 sec) 
Heartbeat CPU 0 instructions: 1210000000 cycles: 2450714260 heartbeat IPC: 0.45138 cumulative IPC: 0.435041 (Simulation time: 7 hr 3 min 55 sec) 
Heartbeat CPU 2 instructions: 3830000002 cycles: 2452789408 heartbeat IPC: 1.57495 cumulative IPC: 1.5185 (Simulation time: 7 hr 4 min 13 sec) 
Heartbeat CPU 1 instructions: 1530000001 cycles: 2457796880 heartbeat IPC: 0.534644 cumulative IPC: 0.537928 (Simulation time: 7 hr 4 min 57 sec) 
Heartbeat CPU 2 instructions: 3840000000 cycles: 2459254099 heartbeat IPC: 1.54686 cumulative IPC: 1.51858 (Simulation time: 7 hr 5 min 10 sec) 
Finished CPU 3 instructions: 1000000000 cycles: 2332831142 cumulative IPC: 0.428664 (Simulation time: 7 hr 5 min 33 sec) 

CPU 0 Branch Prediction Accuracy: 84.9435% MPKI: 16.3149

CPU 1 Branch Prediction Accuracy: 97.1043% MPKI: 0.488512

CPU 2 Branch Prediction Accuracy: 96.7746% MPKI: 4.34864

CPU 3 Branch Prediction Accuracy: 99.3572% MPKI: 1.77836

ChampSim completed all CPUs

Total Simulation Statistics (not including warmup)

CPU 0 cumulative IPC: 0.435108 instructions: 1015033213 cycles: 2332831141
L1D TOTAL     ACCESS:  324631675  HIT:  320560966  MISS:    4070709
L1D LOAD      ACCESS:  207940124  HIT:  204618037  MISS:    3322087
L1D RFO       ACCESS:  116691551  HIT:  115942929  MISS:     748622
L1D PREFETCH  ACCESS:          0  HIT:          0  MISS:          0
L1D WRITEBACK ACCESS:          0  HIT:          0  MISS:          0
L1I TOTAL     ACCESS:  236672554  HIT:  236468225  MISS:     204329
L1I LOAD      ACCESS:  236672554  HIT:  236468225  MISS:     204329
L1I RFO       ACCESS:          0  HIT:          0  MISS:          0
L1I PREFETCH  ACCESS:          0  HIT:          0  MISS:          0
L1I WRITEBACK ACCESS:          0  HIT:          0  MISS:          0
L2C TOTAL     ACCESS:    5681242  HIT:    5584142  MISS:      97100
L2C LOAD      ACCESS:    3526406  HIT:    3469790  MISS:      56616
L2C RFO       ACCESS:     748621  HIT:     731587  MISS:      17034
L2C PREFETCH  ACCESS:      33965  HIT:      10970  MISS:      22995
L2C WRITEBACK ACCESS:    1372250  HIT:    1371795  MISS:        455

L2C DA-AMPM prefetcher final stats
LLC TOTAL     ACCESS:     123981  HIT:      22628  MISS:     101353
LLC LOAD      ACCESS:      55122  HIT:       4141  MISS:      50981
LLC RFO       ACCESS:      17034  HIT:        648  MISS:      16386
LLC PREFETCH  ACCESS:      24489  HIT:       6059  MISS:      18430
LLC WRITEBACK ACCESS:      27336  HIT:      11780  MISS:      15556

CPU 1 cumulative IPC: 0.53796 instructions: 1254970981 cycles: 2332831142
L1D TOTAL     ACCESS:  357151613  HIT:  258906165  MISS:   98245448
L1D LOAD      ACCESS:  127821033  HIT:  112923990  MISS:   14897043
L1D RFO       ACCESS:  229330580  HIT:  145982175  MISS:   83348405
L1D PREFETCH  ACCESS:          0  HIT:          0  MISS:          0
L1D WRITEBACK ACCESS:          0  HIT:          0  MISS:          0
L1I TOTAL     ACCESS:  300885870  HIT:  300885870  MISS:          0
L1I LOAD      ACCESS:  300885870  HIT:  300885870  MISS:          0
L1I RFO       ACCESS:          0  HIT:          0  MISS:          0
L1I PREFETCH  ACCESS:          0  HIT:          0  MISS:          0
L1I WRITEBACK ACCESS:          0  HIT:          0  MISS:          0
L2C TOTAL     ACCESS:  193849466  HIT:  117794108  MISS:   76055358
L2C LOAD      ACCESS:   14897043  HIT:   12178512  MISS:    2718531
L2C RFO       ACCESS:   83348285  HIT:   22203118  MISS:   61145167
L2C PREFETCH  ACCESS:   12255731  HIT:      85880  MISS:   12169851
L2C WRITEBACK ACCESS:   83348407  HIT:   83326598  MISS:      21809

L2C DA-AMPM prefetcher final stats
LLC TOTAL     ACCESS:  137179203  HIT:   77669935  MISS:   59509268
LLC LOAD      ACCESS:    2124578  HIT:      11568  MISS:    2113010
LLC RFO       ACCESS:   61124788  HIT:   16494531  MISS:   44630257
LLC PREFETCH  ACCESS:   12763804  HIT:          3  MISS:   12763801
LLC WRITEBACK ACCESS:   61166033  HIT:   61163833  MISS:       2200

CPU 2 cumulative IPC: 1.51831 instructions: 3541971915 cycles: 2332831142
L1D TOTAL     ACCESS:  991799247  HIT:  991799204  MISS:         43
L1D LOAD      ACCESS:  431587665  HIT:  431587640  MISS:         25
L1D RFO       ACCESS:  560211582  HIT:  560211564  MISS:         18
L1D PREFETCH  ACCESS:          0  HIT:          0  MISS:          0
L1D WRITEBACK ACCESS:          0  HIT:          0  MISS:          0
L1I TOTAL     ACCESS:  775798192  HIT:  775659137  MISS:     139055
L1I LOAD      ACCESS:  775798192  HIT:  775659137  MISS:     139055
L1I RFO       ACCESS:          0  HIT:          0  MISS:          0
L1I PREFETCH  ACCESS:          0  HIT:          0  MISS:          0
L1I WRITEBACK ACCESS:          0  HIT:          0  MISS:          0
L2C TOTAL     ACCESS:     139166  HIT:     139054  MISS:        112
L2C LOAD      ACCESS:     139080  HIT:     139054  MISS:         26
L2C RFO       ACCESS:         18  HIT:          0  MISS:         18
L2C PREFETCH  ACCESS:         68  HIT:          0  MISS:         68
L2C WRITEBACK ACCESS:          0  HIT:          0  MISS:          0

L2C DA-AMPM prefetcher final stats
LLC TOTAL     ACCESS:        112  HIT:          0  MISS:        112
LLC LOAD      ACCESS:         26  HIT:          0  MISS:         26
LLC RFO       ACCESS:         18  HIT:          0  MISS:         18
LLC PREFETCH  ACCESS:         68  HIT:          0  MISS:         68
LLC WRITEBACK ACCESS:          0  HIT:          0  MISS:          0

CPU 3 cumulative IPC: 0.428664 instructions: 1000000000 cycles: 2332831142
L1D TOTAL     ACCESS:  200766304  HIT:  145046566  MISS:   55719738
L1D LOAD      ACCESS:  150370382  HIT:   96675255  MISS:   53695127
L1D RFO       ACCESS:   50395922  HIT:   48371311  MISS:    2024611
L1D PREFETCH  ACCESS:          0  HIT:          0  MISS:          0
L1D WRITEBACK ACCESS:          0  HIT:          0  MISS:          0
L1I TOTAL     ACCESS:  450428064  HIT:  448660508  MISS:    1767556
L1I LOAD      ACCESS:  450428064  HIT:  448660508  MISS:    1767556
L1I RFO       ACCESS:          0  HIT:          0  MISS:          0
L1I PREFETCH  ACCESS:          0  HIT:          0  MISS:          0
L1I WRITEBACK ACCESS:          0  HIT:          0  MISS:          0
L2C TOTAL     ACCESS:   71323704  HIT:   47056660  MISS:   24267044
L2C LOAD      ACCESS:   55462550  HIT:   37055292  MISS:   18407258
L2C RFO       ACCESS:    2024586  HIT:     357059  MISS:    1667527
L2C PREFETCH  ACCESS:   10709652  HIT:    6518129  MISS:    4191523
L2C WRITEBACK ACCESS:    3126916  HIT:    3126180  MISS:        736

L2C DA-AMPM prefetcher final stats
LLC TOTAL     ACCESS:   26384939  HIT:   24235177  MISS:    2149762
LLC LOAD      ACCESS:   18251638  HIT:   17907612  MISS:     344026
LLC RFO       ACCESS:    1664785  HIT:      94253  MISS:    1570532
LLC PREFETCH  ACCESS:    4349792  HIT:    4154111  MISS:     195681
LLC WRITEBACK ACCESS:    2118724  HIT:    2079201  MISS:      39523

Region of Interest Statistics

CPU 0 cumulative IPC: 0.434883 instructions: 1000000000 cycles: 2299467522
L1D TOTAL     ACCESS:  320003795  HIT:  316017997  MISS:    3985798
L1D LOAD      ACCESS:  204971905  HIT:  201721709  MISS:    3250196
L1D RFO       ACCESS:  115031890  HIT:  114296288  MISS:     735602
L1D PREFETCH  ACCESS:          0  HIT:          0  MISS:          0
L1D WRITEBACK ACCESS:          0  HIT:          0  MISS:          0
L1D PREFETCH  REQUESTED:          0  ISSUED:          0  USEFUL:          0  USELESS:          0
L1I TOTAL     ACCESS:  233110353  HIT:  232908716  MISS:     201637
L1I LOAD      ACCESS:  233110353  HIT:  232908716  MISS:     201637
L1I RFO       ACCESS:          0  HIT:          0  MISS:          0
L1I PREFETCH  ACCESS:          0  HIT:          0  MISS:          0
L1I WRITEBACK ACCESS:          0  HIT:          0  MISS:          0
L1I PREFETCH  REQUESTED:          0  ISSUED:          0  USEFUL:          0  USELESS:          0
L2C TOTAL     ACCESS:    5564635  HIT:    5468601  MISS:      96034
L2C LOAD      ACCESS:    3451823  HIT:    3396088  MISS:      55735
L2C RFO       ACCESS:     735601  HIT:     718615  MISS:      16986
L2C PREFETCH  ACCESS:      33537  HIT:      10674  MISS:      22863
L2C WRITEBACK ACCESS:    1343674  HIT:    1343224  MISS:        450
L2C PREFETCH  REQUESTED:      87207  ISSUED:      87207  USEFUL:      56783  USELESS:      13272
LLC TOTAL     ACCESS:     122738  HIT:      22517  MISS:     100221
LLC LOAD      ACCESS:      54254  HIT:       4056  MISS:      50198
LLC RFO       ACCESS:      16986  HIT:        642  MISS:      16344
LLC PREFETCH  ACCESS:      24344  HIT:       6056  MISS:      18288
LLC WRITEBACK ACCESS:      27154  HIT:      11763  MISS:      15391
LLC PREFETCH  REQUESTED:          0  ISSUED:          0  USEFUL:      32076  USELESS:   15255546
Major fault: 0 Minor fault: 1495

CPU 1 cumulative IPC: 0.537176 instructions: 1000000001 cycles: 1861586041
L1D TOTAL     ACCESS:  284643157  HIT:  206262297  MISS:   78380860
L1D LOAD      ACCESS:  101833468  HIT:   89948420  MISS:   11885048
L1D RFO       ACCESS:  182809689  HIT:  116313877  MISS:   66495812
L1D PREFETCH  ACCESS:          0  HIT:          0  MISS:          0
L1D WRITEBACK ACCESS:          0  HIT:          0  MISS:          0
L1D PREFETCH  REQUESTED:          0  ISSUED:          0  USEFUL:          0  USELESS:          0
L1I TOTAL     ACCESS:  239756968  HIT:  239756968  MISS:          0
L1I LOAD      ACCESS:  239756968  HIT:  239756968  MISS:          0
L1I RFO       ACCESS:          0  HIT:          0  MISS:          0
L1I PREFETCH  ACCESS:          0  HIT:          0  MISS:          0
L1I WRITEBACK ACCESS:          0  HIT:          0  MISS:          0
L1I PREFETCH  REQUESTED:          0  ISSUED:          0  USEFUL:          0  USELESS:          0
L2C TOTAL     ACCESS:  154664417  HIT:   94203036  MISS:   60461381
L2C LOAD      ACCESS:   11885048  HIT:    9726271  MISS:    2158777
L2C RFO       ACCESS:   66495713  HIT:   17929842  MISS:   48565871
L2C PREFETCH  ACCESS:    9787843  HIT:      68605  MISS:    9719238
L2C WRITEBACK ACCESS:   66495813  HIT:   66478318  MISS:      17495
L2C PREFETCH  REQUESTED:   15607374  ISSUED:   15607374  USEFUL:   14411297  USELESS:         74
LLC TOTAL     ACCESS:  109010255  HIT:   61533720  MISS:   47476535
LLC LOAD      ACCESS:    1685055  HIT:       9279  MISS:    1675776
LLC RFO       ACCESS:   48548122  HIT:   12942062  MISS:   35606060
LLC PREFETCH  ACCESS:   10192960  HIT:          1  MISS:   10192959
LLC WRITEBACK ACCESS:   48584118  HIT:   48582378  MISS:       1740
LLC PREFETCH  REQUESTED:          0  ISSUED:          0  USEFUL:      32076  USELESS:   15255546
Major fault: 0 Minor fault: 547450

CPU 2 cumulative IPC: 1.5097 instructions: 1000000003 cycles: 662382606
L1D TOTAL     ACCESS:  277451809  HIT:  277451772  MISS:         37
L1D LOAD      ACCESS:  121465359  HIT:  121465340  MISS:         19
L1D RFO       ACCESS:  155986450  HIT:  155986432  MISS:         18
L1D PREFETCH  ACCESS:          0  HIT:          0  MISS:          0
L1D WRITEBACK ACCESS:          0  HIT:          0  MISS:          0
L1D PREFETCH  REQUESTED:          0  ISSUED:          0  USEFUL:          0  USELESS:          0
L1I TOTAL     ACCESS:  219591956  HIT:  219538700  MISS:      53256
L1I LOAD      ACCESS:  219591956  HIT:  219538700  MISS:      53256
L1I RFO       ACCESS:          0  HIT:          0  MISS:          0
L1I PREFETCH  ACCESS:          0  HIT:          0  MISS:          0
L1I WRITEBACK ACCESS:          0  HIT:          0  MISS:          0
L1I PREFETCH  REQUESTED:          0  ISSUED:          0  USEFUL:          0  USELESS:          0
L2C TOTAL     ACCESS:      53357  HIT:      53254  MISS:        103
L2C LOAD      ACCESS:      53275  HIT:      53254  MISS:         21
L2C RFO       ACCESS:         18  HIT:          0  MISS:         18
L2C PREFETCH  ACCESS:         64  HIT:          0  MISS:         64
L2C WRITEBACK ACCESS:          0  HIT:          0  MISS:          0
L2C PREFETCH  REQUESTED:       1405  ISSUED:       1405  USEFUL:       1062  USELESS:          0
LLC TOTAL     ACCESS:        103  HIT:          0  MISS:        103
LLC LOAD      ACCESS:         21  HIT:          0  MISS:         21
LLC RFO       ACCESS:         18  HIT:          0  MISS:         18
LLC PREFETCH  ACCESS:         64  HIT:          0  MISS:         64
LLC WRITEBACK ACCESS:          0  HIT:          0  MISS:          0
LLC PREFETCH  REQUESTED:          0  ISSUED:          0  USEFUL:      32076  USELESS:   15255546
Major fault: 0 Minor fault: 49

CPU 3 cumulative IPC: 0.428664 instructions: 1000000000 cycles: 2332831142
L1D TOTAL     ACCESS:  200766304  HIT:  145046566  MISS:   55719738
L1D LOAD      ACCESS:  150370382  HIT:   96675255  MISS:   53695127
L1D RFO       ACCESS:   50395922  HIT:   48371311  MISS:    2024611
L1D PREFETCH  ACCESS:          0  HIT:          0  MISS:          0
L1D WRITEBACK ACCESS:          0  HIT:          0  MISS:          0
L1D PREFETCH  REQUESTED:          0  ISSUED:          0  USEFUL:          0  USELESS:          0
L1I TOTAL     ACCESS:  450428064  HIT:  448660508  MISS:    1767556
L1I LOAD      ACCESS:  450428064  HIT:  448660508  MISS:    1767556
L1I RFO       ACCESS:          0  HIT:          0  MISS:          0
L1I PREFETCH  ACCESS:          0  HIT:          0  MISS:          0
L1I WRITEBACK ACCESS:          0  HIT:          0  MISS:          0
L1I PREFETCH  REQUESTED:          0  ISSUED:          0  USEFUL:          0  USELESS:          0
L2C TOTAL     ACCESS:   71323704  HIT:   47056660  MISS:   24267044
L2C LOAD      ACCESS:   55462550  HIT:   37055292  MISS:   18407258
L2C RFO       ACCESS:    2024586  HIT:     357059  MISS:    1667527
L2C PREFETCH  ACCESS:   10709652  HIT:    6518129  MISS:    4191523
L2C WRITEBACK ACCESS:    3126916  HIT:    3126180  MISS:        736
L2C PREFETCH  REQUESTED:   13311597  ISSUED:   13311597  USEFUL:    2261052  USELESS:    2875086
LLC TOTAL     ACCESS:   26384939  HIT:   24235177  MISS:    2149762
LLC LOAD      ACCESS:   18251638  HIT:   17907612  MISS:     344026
LLC RFO       ACCESS:    1664785  HIT:      94253  MISS:    1570532
LLC PREFETCH  ACCESS:    4349792  HIT:    4154111  MISS:     195681
LLC WRITEBACK ACCESS:    2118724  HIT:    2079201  MISS:      39523
LLC PREFETCH  REQUESTED:          0  ISSUED:          0  USEFUL:      32076  USELESS:   15255546
Major fault: 0 Minor fault: 16881

L2C DA-AMPM prefetcher final stats

L2C DA-AMPM prefetcher final stats

L2C DA-AMPM prefetcher final stats

L2C DA-AMPM prefetcher final stats

DRAM Statistics
 CHANNEL 0
 RQ ROW_BUFFER_HIT:    7020983  ROW_BUFFER_MISS:   23829601
 DBUS_CONGESTED:   68231208
 WQ ROW_BUFFER_HIT:    2943853  ROW_BUFFER_MISS:   20271945  FULL:          0

 CHANNEL 1
 RQ ROW_BUFFER_HIT:    7048723  ROW_BUFFER_MISS:   23803881
 DBUS_CONGESTED:   68231208
 WQ ROW_BUFFER_HIT:    2951471  ROW_BUFFER_MISS:   20264225  FULL:          0

 AVG_CONGESTED_CYCLE: 14
