
*** ChampSim Multicore Out-of-Order Simulator ***

Warmup Instructions: 200000000
Simulation Instructions: 1000000000
Number of CPUs: 4
LLC sets: 8192
LLC ways: 16
Off-chip DRAM Size: 8192 MB Channels: 2 Width: 64-bit Data Rate: 1600 MT/s

CPU 0 runs /scratch/user/djimenez/champsim-traces/speccpu2017/xz/603.bwaves_s/603.bwaves_s-2931B.champsimtrace.xz
CPU 1 runs /scratch/user/djimenez/champsim-traces/speccpu2017/xz/605.mcf_s/605.mcf_s-484B.champsimtrace.xz
CPU 2 runs /scratch/user/djimenez/champsim-traces/speccpu2017/xz/619.lbm_s/619.lbm_s-3766B.champsimtrace.xz
CPU 3 runs /scratch/user/djimenez/champsim-traces/speccpu2017/xz/648.exchange2_s/648.exchange2_s-1511B.champsimtrace.xz
L2C DA-AMPM prefetcher
L2C DA-AMPM prefetcher
L2C DA-AMPM prefetcher
L2C DA-AMPM prefetcher
Heartbeat CPU 2 instructions: 10000000 cycles: 4278787 heartbeat IPC: 2.33711 cumulative IPC: 2.33711 (Simulation time: 0 hr 2 min 11 sec) 
Heartbeat CPU 3 instructions: 10000001 cycles: 4340339 heartbeat IPC: 2.30397 cumulative IPC: 2.30397 (Simulation time: 0 hr 2 min 13 sec) 
Heartbeat CPU 0 instructions: 10000000 cycles: 5227757 heartbeat IPC: 1.91287 cumulative IPC: 1.91287 (Simulation time: 0 hr 2 min 36 sec) 
Heartbeat CPU 1 instructions: 10000000 cycles: 6853966 heartbeat IPC: 1.45901 cumulative IPC: 1.45901 (Simulation time: 0 hr 3 min 19 sec) 
Heartbeat CPU 2 instructions: 20000000 cycles: 8566731 heartbeat IPC: 2.33212 cumulative IPC: 2.33461 (Simulation time: 0 hr 4 min 6 sec) 
Heartbeat CPU 3 instructions: 20000000 cycles: 8622901 heartbeat IPC: 2.33505 cumulative IPC: 2.31941 (Simulation time: 0 hr 4 min 7 sec) 
Heartbeat CPU 0 instructions: 20000000 cycles: 10454961 heartbeat IPC: 1.91307 cumulative IPC: 1.91297 (Simulation time: 0 hr 4 min 59 sec) 
Heartbeat CPU 3 instructions: 30000000 cycles: 12762258 heartbeat IPC: 2.41583 cumulative IPC: 2.35068 (Simulation time: 0 hr 5 min 58 sec) 
Heartbeat CPU 2 instructions: 30000001 cycles: 12845522 heartbeat IPC: 2.33711 cumulative IPC: 2.33544 (Simulation time: 0 hr 6 min 0 sec) 
Heartbeat CPU 1 instructions: 20000000 cycles: 13616161 heartbeat IPC: 1.47881 cumulative IPC: 1.46884 (Simulation time: 0 hr 6 min 19 sec) 
Heartbeat CPU 0 instructions: 30000002 cycles: 15682431 heartbeat IPC: 1.91297 cumulative IPC: 1.91297 (Simulation time: 0 hr 7 min 9 sec) 
Heartbeat CPU 3 instructions: 40000000 cycles: 16908487 heartbeat IPC: 2.41183 cumulative IPC: 2.36568 (Simulation time: 0 hr 7 min 39 sec) 
Heartbeat CPU 2 instructions: 40000000 cycles: 17133325 heartbeat IPC: 2.3322 cumulative IPC: 2.33463 (Simulation time: 0 hr 7 min 44 sec) 
Heartbeat CPU 1 instructions: 30000000 cycles: 20311529 heartbeat IPC: 1.49357 cumulative IPC: 1.47699 (Simulation time: 0 hr 9 min 1 sec) 
Heartbeat CPU 0 instructions: 40000000 cycles: 20909572 heartbeat IPC: 1.91309 cumulative IPC: 1.913 (Simulation time: 0 hr 9 min 15 sec) 
Heartbeat CPU 3 instructions: 50000003 cycles: 21128647 heartbeat IPC: 2.36958 cumulative IPC: 2.36646 (Simulation time: 0 hr 9 min 21 sec) 
Heartbeat CPU 2 instructions: 50000001 cycles: 21421460 heartbeat IPC: 2.33202 cumulative IPC: 2.33411 (Simulation time: 0 hr 9 min 28 sec) 
Heartbeat CPU 3 instructions: 60000000 cycles: 25365658 heartbeat IPC: 2.36015 cumulative IPC: 2.3654 (Simulation time: 0 hr 11 min 3 sec) 
Heartbeat CPU 2 instructions: 60000000 cycles: 25699995 heartbeat IPC: 2.33725 cumulative IPC: 2.33463 (Simulation time: 0 hr 11 min 11 sec) 
Heartbeat CPU 0 instructions: 50000002 cycles: 26137200 heartbeat IPC: 1.91291 cumulative IPC: 1.91298 (Simulation time: 0 hr 11 min 21 sec) 
Heartbeat CPU 1 instructions: 40000000 cycles: 27166264 heartbeat IPC: 1.45885 cumulative IPC: 1.47241 (Simulation time: 0 hr 11 min 45 sec) 
Heartbeat CPU 3 instructions: 70000003 cycles: 29715624 heartbeat IPC: 2.29887 cumulative IPC: 2.35566 (Simulation time: 0 hr 12 min 43 sec) 
Heartbeat CPU 2 instructions: 70000003 cycles: 29988128 heartbeat IPC: 2.33202 cumulative IPC: 2.33426 (Simulation time: 0 hr 12 min 49 sec) 
Heartbeat CPU 0 instructions: 60000000 cycles: 31364517 heartbeat IPC: 1.91303 cumulative IPC: 1.91299 (Simulation time: 0 hr 13 min 21 sec) 
Heartbeat CPU 1 instructions: 50000003 cycles: 33922248 heartbeat IPC: 1.48017 cumulative IPC: 1.47396 (Simulation time: 0 hr 14 min 18 sec) 
Heartbeat CPU 3 instructions: 80000000 cycles: 33974768 heartbeat IPC: 2.34789 cumulative IPC: 2.35469 (Simulation time: 0 hr 14 min 19 sec) 
Heartbeat CPU 2 instructions: 80000000 cycles: 34266891 heartbeat IPC: 2.33712 cumulative IPC: 2.33461 (Simulation time: 0 hr 14 min 26 sec) 
Heartbeat CPU 0 instructions: 70000001 cycles: 36591969 heartbeat IPC: 1.91298 cumulative IPC: 1.91299 (Simulation time: 0 hr 15 min 19 sec) 
Heartbeat CPU 3 instructions: 90000000 cycles: 38244992 heartbeat IPC: 2.3418 cumulative IPC: 2.35325 (Simulation time: 0 hr 15 min 56 sec) 
Heartbeat CPU 2 instructions: 90000001 cycles: 38554548 heartbeat IPC: 2.33228 cumulative IPC: 2.33435 (Simulation time: 0 hr 16 min 3 sec) 
Heartbeat CPU 1 instructions: 60000000 cycles: 40699283 heartbeat IPC: 1.47557 cumulative IPC: 1.47423 (Simulation time: 0 hr 16 min 52 sec) 
Heartbeat CPU 0 instructions: 80000000 cycles: 41819291 heartbeat IPC: 1.91303 cumulative IPC: 1.91299 (Simulation time: 0 hr 17 min 18 sec) 
Heartbeat CPU 3 instructions: 100000000 cycles: 42475309 heartbeat IPC: 2.36389 cumulative IPC: 2.35431 (Simulation time: 0 hr 17 min 33 sec) 
Heartbeat CPU 2 instructions: 100000000 cycles: 42833392 heartbeat IPC: 2.33708 cumulative IPC: 2.33463 (Simulation time: 0 hr 17 min 41 sec) 
Heartbeat CPU 3 instructions: 110000001 cycles: 46687147 heartbeat IPC: 2.37426 cumulative IPC: 2.35611 (Simulation time: 0 hr 19 min 8 sec) 
Heartbeat CPU 0 instructions: 90000002 cycles: 47046979 heartbeat IPC: 1.91289 cumulative IPC: 1.91298 (Simulation time: 0 hr 19 min 17 sec) 
Heartbeat CPU 2 instructions: 110000001 cycles: 47147264 heartbeat IPC: 2.3181 cumulative IPC: 2.33312 (Simulation time: 0 hr 19 min 19 sec) 
Heartbeat CPU 1 instructions: 70000002 cycles: 47278134 heartbeat IPC: 1.52002 cumulative IPC: 1.4806 (Simulation time: 0 hr 19 min 22 sec) 
Heartbeat CPU 3 instructions: 120000000 cycles: 50908775 heartbeat IPC: 2.36875 cumulative IPC: 2.35716 (Simulation time: 0 hr 20 min 44 sec) 
Heartbeat CPU 2 instructions: 120000000 cycles: 51479252 heartbeat IPC: 2.30841 cumulative IPC: 2.33104 (Simulation time: 0 hr 20 min 56 sec) 
Heartbeat CPU 0 instructions: 100000000 cycles: 52274093 heartbeat IPC: 1.9131 cumulative IPC: 1.91299 (Simulation time: 0 hr 21 min 15 sec) 
Heartbeat CPU 1 instructions: 80000000 cycles: 54054592 heartbeat IPC: 1.4757 cumulative IPC: 1.47999 (Simulation time: 0 hr 21 min 55 sec) 
Heartbeat CPU 3 instructions: 130000000 cycles: 55083867 heartbeat IPC: 2.39516 cumulative IPC: 2.36004 (Simulation time: 0 hr 22 min 17 sec) 
Heartbeat CPU 2 instructions: 130000003 cycles: 55931171 heartbeat IPC: 2.24622 cumulative IPC: 2.32429 (Simulation time: 0 hr 22 min 36 sec) 
Heartbeat CPU 0 instructions: 110000000 cycles: 57501363 heartbeat IPC: 1.91304 cumulative IPC: 1.913 (Simulation time: 0 hr 23 min 13 sec) 
Heartbeat CPU 3 instructions: 140000000 cycles: 59309548 heartbeat IPC: 2.36648 cumulative IPC: 2.3605 (Simulation time: 0 hr 23 min 53 sec) 
Heartbeat CPU 2 instructions: 140000000 cycles: 60463752 heartbeat IPC: 2.20625 cumulative IPC: 2.31544 (Simulation time: 0 hr 24 min 19 sec) 
Heartbeat CPU 1 instructions: 90000000 cycles: 60718715 heartbeat IPC: 1.50057 cumulative IPC: 1.48224 (Simulation time: 0 hr 24 min 24 sec) 
Heartbeat CPU 0 instructions: 120000000 cycles: 62728800 heartbeat IPC: 1.91298 cumulative IPC: 1.913 (Simulation time: 0 hr 25 min 9 sec) 
Heartbeat CPU 3 instructions: 150000000 cycles: 63623801 heartbeat IPC: 2.3179 cumulative IPC: 2.35761 (Simulation time: 0 hr 25 min 30 sec) 
Heartbeat CPU 2 instructions: 150000001 cycles: 65125716 heartbeat IPC: 2.14502 cumulative IPC: 2.30324 (Simulation time: 0 hr 26 min 3 sec) 
Heartbeat CPU 1 instructions: 100000000 cycles: 67471001 heartbeat IPC: 1.48098 cumulative IPC: 1.48212 (Simulation time: 0 hr 26 min 55 sec) 
Heartbeat CPU 3 instructions: 160000000 cycles: 67805068 heartbeat IPC: 2.39162 cumulative IPC: 2.35971 (Simulation time: 0 hr 27 min 2 sec) 
Heartbeat CPU 0 instructions: 130000001 cycles: 67956238 heartbeat IPC: 1.91298 cumulative IPC: 1.913 (Simulation time: 0 hr 27 min 6 sec) 
Heartbeat CPU 2 instructions: 160000000 cycles: 70012230 heartbeat IPC: 2.04645 cumulative IPC: 2.28532 (Simulation time: 0 hr 28 min 1 sec) 
Heartbeat CPU 3 instructions: 170000001 cycles: 72032296 heartbeat IPC: 2.36562 cumulative IPC: 2.36005 (Simulation time: 0 hr 28 min 59 sec) 
Heartbeat CPU 0 instructions: 140000000 cycles: 73183426 heartbeat IPC: 1.91307 cumulative IPC: 1.913 (Simulation time: 0 hr 29 min 30 sec) 
Heartbeat CPU 1 instructions: 110000001 cycles: 74165309 heartbeat IPC: 1.49381 cumulative IPC: 1.48317 (Simulation time: 0 hr 29 min 55 sec) 
Heartbeat CPU 2 instructions: 170000002 cycles: 75149778 heartbeat IPC: 1.94645 cumulative IPC: 2.26215 (Simulation time: 0 hr 30 min 21 sec) 
Heartbeat CPU 3 instructions: 180000000 cycles: 76248196 heartbeat IPC: 2.37197 cumulative IPC: 2.36071 (Simulation time: 0 hr 30 min 52 sec) 
Heartbeat CPU 0 instructions: 150000000 cycles: 78410761 heartbeat IPC: 1.91302 cumulative IPC: 1.913 (Simulation time: 0 hr 31 min 53 sec) 
Heartbeat CPU 2 instructions: 180000000 cycles: 80402871 heartbeat IPC: 1.90364 cumulative IPC: 2.23873 (Simulation time: 0 hr 32 min 47 sec) 
Heartbeat CPU 3 instructions: 190000000 cycles: 80462867 heartbeat IPC: 2.37266 cumulative IPC: 2.36134 (Simulation time: 0 hr 32 min 49 sec) 
Heartbeat CPU 1 instructions: 120000000 cycles: 81005693 heartbeat IPC: 1.46191 cumulative IPC: 1.48138 (Simulation time: 0 hr 33 min 1 sec) 
Heartbeat CPU 0 instructions: 160000000 cycles: 83638040 heartbeat IPC: 1.91304 cumulative IPC: 1.91301 (Simulation time: 0 hr 34 min 4 sec) 
Heartbeat CPU 3 instructions: 200000000 cycles: 84677901 heartbeat IPC: 2.37246 cumulative IPC: 2.36189 (Simulation time: 0 hr 34 min 28 sec) 
Heartbeat CPU 2 instructions: 190000001 cycles: 85735520 heartbeat IPC: 1.87524 cumulative IPC: 2.21612 (Simulation time: 0 hr 34 min 53 sec) 
Heartbeat CPU 1 instructions: 130000000 cycles: 87849196 heartbeat IPC: 1.46124 cumulative IPC: 1.47981 (Simulation time: 0 hr 35 min 43 sec) 
Heartbeat CPU 0 instructions: 170000002 cycles: 88865304 heartbeat IPC: 1.91305 cumulative IPC: 1.91301 (Simulation time: 0 hr 36 min 7 sec) 
Heartbeat CPU 3 instructions: 210000003 cycles: 88896102 heartbeat IPC: 2.37068 cumulative IPC: 0.112491 (Simulation time: 0 hr 36 min 8 sec) 
Heartbeat CPU 2 instructions: 200000000 cycles: 90932036 heartbeat IPC: 1.92437 cumulative IPC: 2.19944 (Simulation time: 0 hr 36 min 56 sec) 
Heartbeat CPU 3 instructions: 220000000 cycles: 93147547 heartbeat IPC: 2.35214 cumulative IPC: 0.214713 (Simulation time: 0 hr 37 min 48 sec) 
Heartbeat CPU 0 instructions: 180000000 cycles: 94093083 heartbeat IPC: 1.91286 cumulative IPC: 1.913 (Simulation time: 0 hr 38 min 11 sec) 
Heartbeat CPU 1 instructions: 140000000 cycles: 94537654 heartbeat IPC: 1.49511 cumulative IPC: 1.48089 (Simulation time: 0 hr 38 min 21 sec) 
Heartbeat CPU 2 instructions: 210000001 cycles: 96032950 heartbeat IPC: 1.96043 cumulative IPC: 0.104131 (Simulation time: 0 hr 38 min 56 sec) 
Heartbeat CPU 3 instructions: 230000001 cycles: 97298436 heartbeat IPC: 2.40912 cumulative IPC: 0.30833 (Simulation time: 0 hr 39 min 26 sec) 
Heartbeat CPU 0 instructions: 190000003 cycles: 99320590 heartbeat IPC: 1.91296 cumulative IPC: 1.913 (Simulation time: 0 hr 40 min 14 sec) 
Heartbeat CPU 2 instructions: 220000000 cycles: 101008869 heartbeat IPC: 2.00968 cumulative IPC: 0.198002 (Simulation time: 0 hr 41 min 10 sec) 
Heartbeat CPU 1 instructions: 150000000 cycles: 101383995 heartbeat IPC: 1.46063 cumulative IPC: 1.47952 (Simulation time: 0 hr 41 min 19 sec) 
Heartbeat CPU 3 instructions: 240000000 cycles: 101522908 heartbeat IPC: 2.36716 cumulative IPC: 0.394 (Simulation time: 0 hr 41 min 22 sec) 
Heartbeat CPU 0 instructions: 200000000 cycles: 104547529 heartbeat IPC: 1.91317 cumulative IPC: 1.91301 (Simulation time: 0 hr 42 min 40 sec) 
Heartbeat CPU 3 instructions: 250000002 cycles: 105786674 heartbeat IPC: 2.34535 cumulative IPC: 0.472649 (Simulation time: 0 hr 43 min 16 sec) 
Heartbeat CPU 2 instructions: 230000003 cycles: 105964186 heartbeat IPC: 2.01803 cumulative IPC: 0.283115 (Simulation time: 0 hr 43 min 20 sec) 
Heartbeat CPU 1 instructions: 160000000 cycles: 108237432 heartbeat IPC: 1.45912 cumulative IPC: 1.47823 (Simulation time: 0 hr 44 min 19 sec) 
Heartbeat CPU 0 instructions: 210000003 cycles: 109775062 heartbeat IPC: 1.91295 cumulative IPC: 0.0910954 (Simulation time: 0 hr 44 min 58 sec) 
Heartbeat CPU 3 instructions: 260000000 cycles: 110006296 heartbeat IPC: 2.36988 cumulative IPC: 0.545423 (Simulation time: 0 hr 45 min 3 sec) 
Heartbeat CPU 2 instructions: 240000000 cycles: 110861223 heartbeat IPC: 2.04205 cumulative IPC: 0.360811 (Simulation time: 0 hr 45 min 25 sec) 
Heartbeat CPU 3 instructions: 270000002 cycles: 114188294 heartbeat IPC: 2.3912 cumulative IPC: 0.613023 (Simulation time: 0 hr 46 min 54 sec) 
Heartbeat CPU 1 instructions: 170000000 cycles: 114933727 heartbeat IPC: 1.49336 cumulative IPC: 1.47911 (Simulation time: 0 hr 47 min 14 sec) 
Heartbeat CPU 0 instructions: 220000000 cycles: 115002666 heartbeat IPC: 1.91292 cumulative IPC: 0.173909 (Simulation time: 0 hr 47 min 16 sec) 
Heartbeat CPU 2 instructions: 250000003 cycles: 115759726 heartbeat IPC: 2.04144 cumulative IPC: 0.431929 (Simulation time: 0 hr 47 min 35 sec) 
Heartbeat CPU 3 instructions: 280000000 cycles: 118341840 heartbeat IPC: 2.40758 cumulative IPC: 0.676008 (Simulation time: 0 hr 48 min 35 sec) 
Heartbeat CPU 0 instructions: 230000003 cycles: 120229805 heartbeat IPC: 1.91309 cumulative IPC: 0.249522 (Simulation time: 0 hr 49 min 19 sec) 
Heartbeat CPU 2 instructions: 260000000 cycles: 120654633 heartbeat IPC: 2.04294 cumulative IPC: 0.497287 (Simulation time: 0 hr 49 min 29 sec) 
Heartbeat CPU 1 instructions: 180000000 cycles: 121696771 heartbeat IPC: 1.47862 cumulative IPC: 1.47909 (Simulation time: 0 hr 49 min 53 sec) 
Heartbeat CPU 3 instructions: 290000003 cycles: 122628080 heartbeat IPC: 2.33305 cumulative IPC: 0.733927 (Simulation time: 0 hr 50 min 15 sec) 
Heartbeat CPU 0 instructions: 240000000 cycles: 125457045 heartbeat IPC: 1.91305 cumulative IPC: 0.318834 (Simulation time: 0 hr 51 min 22 sec) 
Heartbeat CPU 2 instructions: 270000003 cycles: 125511283 heartbeat IPC: 2.05903 cumulative IPC: 0.557719 (Simulation time: 0 hr 51 min 23 sec) 
Heartbeat CPU 3 instructions: 300000000 cycles: 126805571 heartbeat IPC: 2.39378 cumulative IPC: 0.788609 (Simulation time: 0 hr 51 min 53 sec) 
Heartbeat CPU 1 instructions: 190000002 cycles: 128453192 heartbeat IPC: 1.48007 cumulative IPC: 1.47914 (Simulation time: 0 hr 52 min 30 sec) 
Heartbeat CPU 2 instructions: 280000000 cycles: 130371308 heartbeat IPC: 2.0576 cumulative IPC: 0.613632 (Simulation time: 0 hr 53 min 17 sec) 
Heartbeat CPU 0 instructions: 250000003 cycles: 130684896 heartbeat IPC: 1.91283 cumulative IPC: 0.3826 (Simulation time: 0 hr 53 min 24 sec) 
Heartbeat CPU 3 instructions: 310000003 cycles: 131060804 heartbeat IPC: 2.35005 cumulative IPC: 0.839305 (Simulation time: 0 hr 53 min 33 sec) 
Heartbeat CPU 1 instructions: 200000000 cycles: 134926238 heartbeat IPC: 1.54487 cumulative IPC: 1.48229 (Simulation time: 0 hr 55 min 2 sec) 

Warmup complete CPU 0 instructions: 258113798 cycles: 134926239 (Simulation time: 0 hr 55 min 2 sec) 
Warmup complete CPU 1 instructions: 200000003 cycles: 134926239 (Simulation time: 0 hr 55 min 2 sec) 
Warmup complete CPU 2 instructions: 289327986 cycles: 134926238 (Simulation time: 0 hr 55 min 2 sec) 
Warmup complete CPU 3 instructions: 319073284 cycles: 134926238 (Simulation time: 0 hr 55 min 2 sec) 

Heartbeat CPU 3 instructions: 320000000 cycles: 135519394 heartbeat IPC: 2.24286 cumulative IPC: 1.56235 (Simulation time: 0 hr 55 min 9 sec) 
Heartbeat CPU 2 instructions: 290000002 cycles: 136101911 heartbeat IPC: 1.74502 cumulative IPC: 0.571601 (Simulation time: 0 hr 55 min 16 sec) 
Heartbeat CPU 0 instructions: 260000000 cycles: 136847774 heartbeat IPC: 1.62262 cumulative IPC: 0.981612 (Simulation time: 0 hr 55 min 24 sec) 
Heartbeat CPU 3 instructions: 330000003 cycles: 142424592 heartbeat IPC: 1.44818 cumulative IPC: 1.45722 (Simulation time: 0 hr 56 min 30 sec) 
Heartbeat CPU 0 instructions: 270000000 cycles: 146577263 heartbeat IPC: 1.0278 cumulative IPC: 1.02019 (Simulation time: 0 hr 57 min 21 sec) 
Heartbeat CPU 3 instructions: 340000000 cycles: 148799386 heartbeat IPC: 1.56868 cumulative IPC: 1.50843 (Simulation time: 0 hr 57 min 47 sec) 
Heartbeat CPU 3 instructions: 350000000 cycles: 154897706 heartbeat IPC: 1.6398 cumulative IPC: 1.54855 (Simulation time: 0 hr 59 min 1 sec) 
Heartbeat CPU 2 instructions: 300000000 cycles: 156148336 heartbeat IPC: 0.498842 cumulative IPC: 0.502873 (Simulation time: 0 hr 59 min 15 sec) 
Heartbeat CPU 0 instructions: 280000000 cycles: 156386573 heartbeat IPC: 1.01944 cumulative IPC: 1.01984 (Simulation time: 0 hr 59 min 18 sec) 
Heartbeat CPU 3 instructions: 360000000 cycles: 161767352 heartbeat IPC: 1.45568 cumulative IPC: 1.52478 (Simulation time: 1 hr 0 min 22 sec) 
Heartbeat CPU 0 instructions: 290000002 cycles: 166594908 heartbeat IPC: 0.979592 cumulative IPC: 1.00687 (Simulation time: 1 hr 1 min 20 sec) 
Heartbeat CPU 3 instructions: 370000001 cycles: 167972780 heartbeat IPC: 1.61149 cumulative IPC: 1.54106 (Simulation time: 1 hr 1 min 36 sec) 
Heartbeat CPU 3 instructions: 380000000 cycles: 174074216 heartbeat IPC: 1.63896 cumulative IPC: 1.55632 (Simulation time: 1 hr 2 min 56 sec) 
Heartbeat CPU 1 instructions: 210000001 cycles: 174769638 heartbeat IPC: 0.250983 cumulative IPC: 0.250983 (Simulation time: 1 hr 3 min 5 sec) 
Heartbeat CPU 0 instructions: 300000000 cycles: 176494536 heartbeat IPC: 1.01014 cumulative IPC: 1.00765 (Simulation time: 1 hr 3 min 29 sec) 
Heartbeat CPU 2 instructions: 310000002 cycles: 177592924 heartbeat IPC: 0.466318 cumulative IPC: 0.4845 (Simulation time: 1 hr 3 min 46 sec) 
Heartbeat CPU 3 instructions: 390000002 cycles: 180172445 heartbeat IPC: 1.63982 cumulative IPC: 1.56757 (Simulation time: 1 hr 4 min 24 sec) 
Heartbeat CPU 0 instructions: 310000003 cycles: 186268047 heartbeat IPC: 1.02317 cumulative IPC: 1.0106 (Simulation time: 1 hr 5 min 54 sec) 
Heartbeat CPU 3 instructions: 400000000 cycles: 186570749 heartbeat IPC: 1.56291 cumulative IPC: 1.567 (Simulation time: 1 hr 5 min 57 sec) 
Heartbeat CPU 3 instructions: 410000002 cycles: 193298209 heartbeat IPC: 1.48645 cumulative IPC: 1.55771 (Simulation time: 1 hr 7 min 24 sec) 
Heartbeat CPU 0 instructions: 320000000 cycles: 196490665 heartbeat IPC: 0.978223 cumulative IPC: 1.00523 (Simulation time: 1 hr 8 min 7 sec) 
Heartbeat CPU 2 instructions: 320000000 cycles: 198852158 heartbeat IPC: 0.470384 cumulative IPC: 0.479806 (Simulation time: 1 hr 8 min 40 sec) 
Heartbeat CPU 3 instructions: 420000000 cycles: 199488367 heartbeat IPC: 1.61547 cumulative IPC: 1.56325 (Simulation time: 1 hr 8 min 48 sec) 
Heartbeat CPU 1 instructions: 220000000 cycles: 201889140 heartbeat IPC: 0.368738 cumulative IPC: 0.298673 (Simulation time: 1 hr 9 min 24 sec) 
Heartbeat CPU 3 instructions: 430000000 cycles: 205721973 heartbeat IPC: 1.60421 cumulative IPC: 1.56686 (Simulation time: 1 hr 10 min 20 sec) 
Heartbeat CPU 0 instructions: 330000000 cycles: 206209644 heartbeat IPC: 1.02891 cumulative IPC: 1.00846 (Simulation time: 1 hr 10 min 27 sec) 
Heartbeat CPU 3 instructions: 440000000 cycles: 212026658 heartbeat IPC: 1.58612 cumulative IPC: 1.56843 (Simulation time: 1 hr 11 min 48 sec) 
Heartbeat CPU 0 instructions: 340000000 cycles: 216219269 heartbeat IPC: 0.999038 cumulative IPC: 1.0073 (Simulation time: 1 hr 12 min 42 sec) 
Heartbeat CPU 3 instructions: 450000001 cycles: 218266172 heartbeat IPC: 1.60269 cumulative IPC: 1.571 (Simulation time: 1 hr 13 min 12 sec) 
Heartbeat CPU 2 instructions: 330000003 cycles: 219857140 heartbeat IPC: 0.476078 cumulative IPC: 0.478884 (Simulation time: 1 hr 13 min 33 sec) 
Heartbeat CPU 3 instructions: 460000000 cycles: 224533409 heartbeat IPC: 1.5956 cumulative IPC: 1.57272 (Simulation time: 1 hr 14 min 37 sec) 
Heartbeat CPU 0 instructions: 350000000 cycles: 225994879 heartbeat IPC: 1.02295 cumulative IPC: 1.00898 (Simulation time: 1 hr 14 min 56 sec) 
Heartbeat CPU 1 instructions: 230000001 cycles: 230352007 heartbeat IPC: 0.351335 cumulative IPC: 0.31438 (Simulation time: 1 hr 15 min 57 sec) 
Heartbeat CPU 3 instructions: 470000003 cycles: 230679079 heartbeat IPC: 1.62716 cumulative IPC: 1.57621 (Simulation time: 1 hr 16 min 2 sec) 
Heartbeat CPU 0 instructions: 360000000 cycles: 236071469 heartbeat IPC: 0.992399 cumulative IPC: 1.00733 (Simulation time: 1 hr 17 min 10 sec) 
Heartbeat CPU 3 instructions: 480000000 cycles: 236875916 heartbeat IPC: 1.61373 cumulative IPC: 1.57849 (Simulation time: 1 hr 17 min 21 sec) 
Heartbeat CPU 2 instructions: 340000000 cycles: 240294063 heartbeat IPC: 0.48931 cumulative IPC: 0.480906 (Simulation time: 1 hr 18 min 11 sec) 
Heartbeat CPU 3 instructions: 490000001 cycles: 243056419 heartbeat IPC: 1.61799 cumulative IPC: 1.58075 (Simulation time: 1 hr 18 min 45 sec) 
Heartbeat CPU 0 instructions: 370000000 cycles: 245795428 heartbeat IPC: 1.02839 cumulative IPC: 1.00917 (Simulation time: 1 hr 19 min 26 sec) 
Heartbeat CPU 3 instructions: 500000000 cycles: 249245440 heartbeat IPC: 1.61576 cumulative IPC: 1.58265 (Simulation time: 1 hr 20 min 13 sec) 
Heartbeat CPU 3 instructions: 510000000 cycles: 255432335 heartbeat IPC: 1.61632 cumulative IPC: 1.58437 (Simulation time: 1 hr 21 min 36 sec) 
Heartbeat CPU 0 instructions: 380000000 cycles: 255785709 heartbeat IPC: 1.00097 cumulative IPC: 1.0085 (Simulation time: 1 hr 21 min 41 sec) 
Heartbeat CPU 1 instructions: 240000000 cycles: 259989908 heartbeat IPC: 0.337406 cumulative IPC: 0.319837 (Simulation time: 1 hr 22 min 38 sec) 
Heartbeat CPU 2 instructions: 350000001 cycles: 261067862 heartbeat IPC: 0.481376 cumulative IPC: 0.480983 (Simulation time: 1 hr 22 min 53 sec) 
Heartbeat CPU 3 instructions: 520000000 cycles: 261618275 heartbeat IPC: 1.61657 cumulative IPC: 1.58595 (Simulation time: 1 hr 23 min 2 sec) 
Heartbeat CPU 0 instructions: 390000001 cycles: 265585161 heartbeat IPC: 1.02047 cumulative IPC: 1.00939 (Simulation time: 1 hr 23 min 55 sec) 
Heartbeat CPU 3 instructions: 530000000 cycles: 267783373 heartbeat IPC: 1.62203 cumulative IPC: 1.58762 (Simulation time: 1 hr 24 min 28 sec) 
Heartbeat CPU 3 instructions: 540000000 cycles: 273989999 heartbeat IPC: 1.61118 cumulative IPC: 1.58867 (Simulation time: 1 hr 25 min 54 sec) 
Heartbeat CPU 0 instructions: 400000000 cycles: 275590884 heartbeat IPC: 0.999428 cumulative IPC: 1.00868 (Simulation time: 1 hr 26 min 16 sec) 
Heartbeat CPU 3 instructions: 550000001 cycles: 280215563 heartbeat IPC: 1.60628 cumulative IPC: 1.58943 (Simulation time: 1 hr 27 min 13 sec) 
Heartbeat CPU 2 instructions: 360000000 cycles: 282481790 heartbeat IPC: 0.466986 cumulative IPC: 0.478952 (Simulation time: 1 hr 27 min 39 sec) 
Heartbeat CPU 0 instructions: 410000002 cycles: 285715739 heartbeat IPC: 0.987669 cumulative IPC: 1.00727 (Simulation time: 1 hr 28 min 17 sec) 
Heartbeat CPU 3 instructions: 560000000 cycles: 286587847 heartbeat IPC: 1.5693 cumulative IPC: 1.58858 (Simulation time: 1 hr 28 min 27 sec) 
Heartbeat CPU 3 instructions: 570000003 cycles: 292917316 heartbeat IPC: 1.57991 cumulative IPC: 1.58823 (Simulation time: 1 hr 29 min 58 sec) 
Heartbeat CPU 1 instructions: 250000000 cycles: 294348953 heartbeat IPC: 0.291044 cumulative IPC: 0.313632 (Simulation time: 1 hr 30 min 16 sec) 
Heartbeat CPU 0 instructions: 420000000 cycles: 295504912 heartbeat IPC: 1.02154 cumulative IPC: 1.00814 (Simulation time: 1 hr 30 min 34 sec) 
Heartbeat CPU 3 instructions: 580000000 cycles: 299774185 heartbeat IPC: 1.45839 cumulative IPC: 1.58283 (Simulation time: 1 hr 31 min 31 sec) 
Heartbeat CPU 2 instructions: 370000001 cycles: 302727699 heartbeat IPC: 0.493927 cumulative IPC: 0.480759 (Simulation time: 1 hr 32 min 14 sec) 
Heartbeat CPU 0 instructions: 430000001 cycles: 305478021 heartbeat IPC: 1.0027 cumulative IPC: 1.00782 (Simulation time: 1 hr 32 min 45 sec) 
Heartbeat CPU 3 instructions: 590000000 cycles: 305983510 heartbeat IPC: 1.61048 cumulative IPC: 1.58384 (Simulation time: 1 hr 32 min 51 sec) 
Heartbeat CPU 3 instructions: 600000000 cycles: 312100235 heartbeat IPC: 1.63486 cumulative IPC: 1.5856 (Simulation time: 1 hr 34 min 10 sec) 
Heartbeat CPU 0 instructions: 440000000 cycles: 315261069 heartbeat IPC: 1.02218 cumulative IPC: 1.0086 (Simulation time: 1 hr 34 min 54 sec) 
Heartbeat CPU 1 instructions: 260000000 cycles: 318000228 heartbeat IPC: 0.42281 cumulative IPC: 0.327736 (Simulation time: 1 hr 35 min 30 sec) 
Heartbeat CPU 3 instructions: 610000002 cycles: 318133450 heartbeat IPC: 1.65749 cumulative IPC: 1.58797 (Simulation time: 1 hr 35 min 31 sec) 
Heartbeat CPU 2 instructions: 380000000 cycles: 323504939 heartbeat IPC: 0.481296 cumulative IPC: 0.480818 (Simulation time: 1 hr 36 min 42 sec) 
Heartbeat CPU 3 instructions: 620000000 cycles: 324117274 heartbeat IPC: 1.67117 cumulative IPC: 1.5906 (Simulation time: 1 hr 36 min 49 sec) 
Heartbeat CPU 0 instructions: 450000000 cycles: 325230756 heartbeat IPC: 1.00304 cumulative IPC: 1.00831 (Simulation time: 1 hr 37 min 4 sec) 
Heartbeat CPU 3 instructions: 630000001 cycles: 330513076 heartbeat IPC: 1.56353 cumulative IPC: 1.58971 (Simulation time: 1 hr 38 min 17 sec) 
Heartbeat CPU 0 instructions: 460000000 cycles: 334984684 heartbeat IPC: 1.02523 cumulative IPC: 1.00914 (Simulation time: 1 hr 39 min 13 sec) 
Heartbeat CPU 3 instructions: 640000000 cycles: 336779978 heartbeat IPC: 1.59568 cumulative IPC: 1.5899 (Simulation time: 1 hr 39 min 41 sec) 
Heartbeat CPU 2 instructions: 390000000 cycles: 343306107 heartbeat IPC: 0.505021 cumulative IPC: 0.483118 (Simulation time: 1 hr 41 min 14 sec) 
Heartbeat CPU 3 instructions: 650000000 cycles: 343671450 heartbeat IPC: 1.45107 cumulative IPC: 1.58531 (Simulation time: 1 hr 41 min 20 sec) 
Heartbeat CPU 0 instructions: 470000001 cycles: 344879836 heartbeat IPC: 1.0106 cumulative IPC: 1.0092 (Simulation time: 1 hr 41 min 35 sec) 
Heartbeat CPU 3 instructions: 660000000 cycles: 349924463 heartbeat IPC: 1.59923 cumulative IPC: 1.58572 (Simulation time: 1 hr 42 min 39 sec) 
Heartbeat CPU 1 instructions: 270000000 cycles: 352254166 heartbeat IPC: 0.291937 cumulative IPC: 0.322094 (Simulation time: 1 hr 43 min 7 sec) 
Heartbeat CPU 0 instructions: 480000000 cycles: 354757010 heartbeat IPC: 1.01244 cumulative IPC: 1.00935 (Simulation time: 1 hr 43 min 37 sec) 
Heartbeat CPU 3 instructions: 670000001 cycles: 356166367 heartbeat IPC: 1.60208 cumulative IPC: 1.58618 (Simulation time: 1 hr 43 min 54 sec) 
Heartbeat CPU 3 instructions: 680000000 cycles: 362378377 heartbeat IPC: 1.60978 cumulative IPC: 1.58682 (Simulation time: 1 hr 45 min 9 sec) 
Heartbeat CPU 2 instructions: 400000000 cycles: 364087749 heartbeat IPC: 0.481194 cumulative IPC: 0.482943 (Simulation time: 1 hr 45 min 30 sec) 
Heartbeat CPU 0 instructions: 490000001 cycles: 364563483 heartbeat IPC: 1.01973 cumulative IPC: 1.00979 (Simulation time: 1 hr 45 min 35 sec) 
Heartbeat CPU 3 instructions: 690000002 cycles: 369328594 heartbeat IPC: 1.4388 cumulative IPC: 1.58244 (Simulation time: 1 hr 46 min 25 sec) 
Heartbeat CPU 0 instructions: 500000000 cycles: 374716121 heartbeat IPC: 0.984966 cumulative IPC: 1.00874 (Simulation time: 1 hr 47 min 26 sec) 
Heartbeat CPU 3 instructions: 700000000 cycles: 375552741 heartbeat IPC: 1.60665 cumulative IPC: 1.58306 (Simulation time: 1 hr 47 min 36 sec) 
Heartbeat CPU 3 instructions: 710000001 cycles: 381785625 heartbeat IPC: 1.60439 cumulative IPC: 1.5836 (Simulation time: 1 hr 48 min 51 sec) 
Heartbeat CPU 1 instructions: 280000000 cycles: 381971437 heartbeat IPC: 0.336505 cumulative IPC: 0.323827 (Simulation time: 1 hr 48 min 53 sec) 
Heartbeat CPU 0 instructions: 510000001 cycles: 384453851 heartbeat IPC: 1.02693 cumulative IPC: 1.00945 (Simulation time: 1 hr 49 min 21 sec) 
Heartbeat CPU 2 instructions: 410000003 cycles: 385167161 heartbeat IPC: 0.474397 cumulative IPC: 0.482223 (Simulation time: 1 hr 49 min 29 sec) 
Heartbeat CPU 3 instructions: 720000000 cycles: 387889280 heartbeat IPC: 1.63836 cumulative IPC: 1.58492 (Simulation time: 1 hr 50 min 0 sec) 
Heartbeat CPU 3 instructions: 730000000 cycles: 393956566 heartbeat IPC: 1.64818 cumulative IPC: 1.5864 (Simulation time: 1 hr 51 min 10 sec) 
Heartbeat CPU 0 instructions: 520000000 cycles: 394411142 heartbeat IPC: 1.00429 cumulative IPC: 1.00925 (Simulation time: 1 hr 51 min 14 sec) 
Heartbeat CPU 3 instructions: 740000000 cycles: 400816684 heartbeat IPC: 1.4577 cumulative IPC: 1.58308 (Simulation time: 1 hr 52 min 23 sec) 
Heartbeat CPU 0 instructions: 530000001 cycles: 404490614 heartbeat IPC: 0.992116 cumulative IPC: 1.00861 (Simulation time: 1 hr 53 min 3 sec) 
Heartbeat CPU 2 instructions: 420000000 cycles: 406800640 heartbeat IPC: 0.462246 cumulative IPC: 0.480634 (Simulation time: 1 hr 53 min 28 sec) 
Heartbeat CPU 3 instructions: 750000001 cycles: 407609039 heartbeat IPC: 1.47224 cumulative IPC: 1.58032 (Simulation time: 1 hr 53 min 38 sec) 
Heartbeat CPU 0 instructions: 540000000 cycles: 414396376 heartbeat IPC: 1.00951 cumulative IPC: 1.00865 (Simulation time: 1 hr 54 min 58 sec) 
Heartbeat CPU 3 instructions: 760000000 cycles: 414484128 heartbeat IPC: 1.45453 cumulative IPC: 1.57723 (Simulation time: 1 hr 54 min 59 sec) 
Heartbeat CPU 1 instructions: 290000000 cycles: 416941555 heartbeat IPC: 0.285958 cumulative IPC: 0.319132 (Simulation time: 1 hr 55 min 27 sec) 
Heartbeat CPU 3 instructions: 770000003 cycles: 421329610 heartbeat IPC: 1.46082 cumulative IPC: 1.57445 (Simulation time: 1 hr 56 min 22 sec) 
Heartbeat CPU 0 instructions: 550000000 cycles: 424413334 heartbeat IPC: 0.998307 cumulative IPC: 1.00829 (Simulation time: 1 hr 56 min 55 sec) 
Heartbeat CPU 2 instructions: 430000003 cycles: 427655196 heartbeat IPC: 0.479512 cumulative IPC: 0.480554 (Simulation time: 1 hr 57 min 33 sec) 
Heartbeat CPU 3 instructions: 780000000 cycles: 428141699 heartbeat IPC: 1.46798 cumulative IPC: 1.57197 (Simulation time: 1 hr 57 min 39 sec) 
Heartbeat CPU 0 instructions: 560000000 cycles: 434274558 heartbeat IPC: 1.01407 cumulative IPC: 1.00848 (Simulation time: 1 hr 58 min 53 sec) 
Heartbeat CPU 3 instructions: 790000000 cycles: 435006303 heartbeat IPC: 1.45675 cumulative IPC: 1.56934 (Simulation time: 1 hr 59 min 1 sec) 
Heartbeat CPU 3 instructions: 800000000 cycles: 442420912 heartbeat IPC: 1.34869 cumulative IPC: 1.56402 (Simulation time: 2 hr 0 min 31 sec) 
Heartbeat CPU 0 instructions: 570000000 cycles: 444106219 heartbeat IPC: 1.01712 cumulative IPC: 1.00875 (Simulation time: 2 hr 0 min 53 sec) 
Heartbeat CPU 1 instructions: 300000000 cycles: 447079351 heartbeat IPC: 0.331809 cumulative IPC: 0.320356 (Simulation time: 2 hr 1 min 28 sec) 
Heartbeat CPU 2 instructions: 440000000 cycles: 448274087 heartbeat IPC: 0.484992 cumulative IPC: 0.480846 (Simulation time: 2 hr 1 min 42 sec) 
Heartbeat CPU 3 instructions: 810000003 cycles: 448582650 heartbeat IPC: 1.62292 cumulative IPC: 1.56517 (Simulation time: 2 hr 1 min 46 sec) 
Heartbeat CPU 0 instructions: 580000000 cycles: 454325605 heartbeat IPC: 0.978532 cumulative IPC: 1.00779 (Simulation time: 2 hr 2 min 49 sec) 
Heartbeat CPU 3 instructions: 820000000 cycles: 456120651 heartbeat IPC: 1.32661 cumulative IPC: 1.55957 (Simulation time: 2 hr 3 min 12 sec) 
Heartbeat CPU 3 instructions: 830000002 cycles: 463690228 heartbeat IPC: 1.32108 cumulative IPC: 1.55408 (Simulation time: 2 hr 4 min 45 sec) 
Heartbeat CPU 0 instructions: 590000002 cycles: 464038901 heartbeat IPC: 1.02952 cumulative IPC: 1.00843 (Simulation time: 2 hr 4 min 49 sec) 
Heartbeat CPU 2 instructions: 450000001 cycles: 468624796 heartbeat IPC: 0.491383 cumulative IPC: 0.481488 (Simulation time: 2 hr 5 min 44 sec) 
Heartbeat CPU 3 instructions: 840000000 cycles: 470810375 heartbeat IPC: 1.40447 cumulative IPC: 1.55091 (Simulation time: 2 hr 6 min 9 sec) 
Heartbeat CPU 0 instructions: 600000000 cycles: 474035824 heartbeat IPC: 1.00031 cumulative IPC: 1.00819 (Simulation time: 2 hr 6 min 48 sec) 
Heartbeat CPU 1 instructions: 310000003 cycles: 477372950 heartbeat IPC: 0.330103 cumulative IPC: 0.321218 (Simulation time: 2 hr 7 min 37 sec) 
Heartbeat CPU 3 instructions: 850000000 cycles: 477747274 heartbeat IPC: 1.44157 cumulative IPC: 1.5487 (Simulation time: 2 hr 7 min 41 sec) 
Heartbeat CPU 0 instructions: 610000002 cycles: 483838748 heartbeat IPC: 1.0201 cumulative IPC: 1.00852 (Simulation time: 2 hr 9 min 3 sec) 
Heartbeat CPU 3 instructions: 860000000 cycles: 483946354 heartbeat IPC: 1.61314 cumulative IPC: 1.54984 (Simulation time: 2 hr 9 min 4 sec) 
Heartbeat CPU 2 instructions: 460000000 cycles: 488939168 heartbeat IPC: 0.492262 cumulative IPC: 0.482107 (Simulation time: 2 hr 10 min 5 sec) 
Heartbeat CPU 3 instructions: 870000001 cycles: 490073401 heartbeat IPC: 1.63211 cumulative IPC: 1.55126 (Simulation time: 2 hr 10 min 18 sec) 
Heartbeat CPU 0 instructions: 620000000 cycles: 493847788 heartbeat IPC: 0.999097 cumulative IPC: 1.00826 (Simulation time: 2 hr 11 min 1 sec) 
Heartbeat CPU 3 instructions: 880000000 cycles: 496220429 heartbeat IPC: 1.6268 cumulative IPC: 1.55255 (Simulation time: 2 hr 11 min 29 sec) 
Heartbeat CPU 3 instructions: 890000000 cycles: 502986253 heartbeat IPC: 1.47802 cumulative IPC: 1.55118 (Simulation time: 2 hr 12 min 47 sec) 
Heartbeat CPU 0 instructions: 630000000 cycles: 503935125 heartbeat IPC: 0.991342 cumulative IPC: 1.0078 (Simulation time: 2 hr 12 min 57 sec) 
Heartbeat CPU 3 instructions: 900000000 cycles: 509136464 heartbeat IPC: 1.62596 cumulative IPC: 1.55241 (Simulation time: 2 hr 14 min 0 sec) 
Heartbeat CPU 2 instructions: 470000002 cycles: 510180841 heartbeat IPC: 0.470773 cumulative IPC: 0.481465 (Simulation time: 2 hr 14 min 13 sec) 
Heartbeat CPU 0 instructions: 640000000 cycles: 513689749 heartbeat IPC: 1.02515 cumulative IPC: 1.00824 (Simulation time: 2 hr 14 min 57 sec) 
Heartbeat CPU 1 instructions: 320000000 cycles: 514190184 heartbeat IPC: 0.271612 cumulative IPC: 0.316402 (Simulation time: 2 hr 15 min 3 sec) 
Heartbeat CPU 3 instructions: 910000001 cycles: 515253015 heartbeat IPC: 1.63491 cumulative IPC: 1.55373 (Simulation time: 2 hr 15 min 16 sec) 
Heartbeat CPU 3 instructions: 920000000 cycles: 522199305 heartbeat IPC: 1.43962 cumulative IPC: 1.55169 (Simulation time: 2 hr 16 min 40 sec) 
Heartbeat CPU 0 instructions: 650000000 cycles: 523475855 heartbeat IPC: 1.02186 cumulative IPC: 1.00859 (Simulation time: 2 hr 16 min 55 sec) 
Heartbeat CPU 3 instructions: 930000003 cycles: 528363582 heartbeat IPC: 1.62225 cumulative IPC: 1.55279 (Simulation time: 2 hr 17 min 50 sec) 
Heartbeat CPU 2 instructions: 480000000 cycles: 530980838 heartbeat IPC: 0.480769 cumulative IPC: 0.481429 (Simulation time: 2 hr 18 min 25 sec) 
Heartbeat CPU 0 instructions: 660000000 cycles: 533422524 heartbeat IPC: 1.00536 cumulative IPC: 1.00851 (Simulation time: 2 hr 19 min 4 sec) 
Heartbeat CPU 3 instructions: 940000000 cycles: 534568668 heartbeat IPC: 1.61158 cumulative IPC: 1.55371 (Simulation time: 2 hr 19 min 20 sec) 
Heartbeat CPU 1 instructions: 330000000 cycles: 540314068 heartbeat IPC: 0.382791 cumulative IPC: 0.320681 (Simulation time: 2 hr 20 min 34 sec) 
Heartbeat CPU 3 instructions: 950000000 cycles: 541434828 heartbeat IPC: 1.45642 cumulative IPC: 1.55206 (Simulation time: 2 hr 20 min 49 sec) 
Heartbeat CPU 0 instructions: 670000001 cycles: 543436248 heartbeat IPC: 0.99863 cumulative IPC: 1.00826 (Simulation time: 2 hr 21 min 12 sec) 
Heartbeat CPU 3 instructions: 960000000 cycles: 547861322 heartbeat IPC: 1.55606 cumulative IPC: 1.55212 (Simulation time: 2 hr 22 min 6 sec) 
Heartbeat CPU 2 instructions: 490000001 cycles: 552143205 heartbeat IPC: 0.472537 cumulative IPC: 0.480978 (Simulation time: 2 hr 22 min 56 sec) 
Heartbeat CPU 0 instructions: 680000000 cycles: 553556877 heartbeat IPC: 0.988081 cumulative IPC: 1.00778 (Simulation time: 2 hr 23 min 17 sec) 
Heartbeat CPU 3 instructions: 970000003 cycles: 554261685 heartbeat IPC: 1.56241 cumulative IPC: 1.55228 (Simulation time: 2 hr 23 min 25 sec) 
Heartbeat CPU 3 instructions: 980000000 cycles: 560391962 heartbeat IPC: 1.63125 cumulative IPC: 1.55342 (Simulation time: 2 hr 24 min 48 sec) 
Heartbeat CPU 0 instructions: 690000002 cycles: 563403995 heartbeat IPC: 1.01553 cumulative IPC: 1.00795 (Simulation time: 2 hr 25 min 26 sec) 
Heartbeat CPU 3 instructions: 990000001 cycles: 566509933 heartbeat IPC: 1.63453 cumulative IPC: 1.55457 (Simulation time: 2 hr 26 min 5 sec) 
Heartbeat CPU 2 instructions: 500000000 cycles: 572460207 heartbeat IPC: 0.492199 cumulative IPC: 0.481499 (Simulation time: 2 hr 27 min 20 sec) 
Heartbeat CPU 3 instructions: 1000000000 cycles: 572510941 heartbeat IPC: 1.66639 cumulative IPC: 1.5561 (Simulation time: 2 hr 27 min 20 sec) 
Heartbeat CPU 0 instructions: 700000000 cycles: 573248250 heartbeat IPC: 1.01582 cumulative IPC: 1.00813 (Simulation time: 2 hr 27 min 29 sec) 
Heartbeat CPU 1 instructions: 340000000 cycles: 577539633 heartbeat IPC: 0.268633 cumulative IPC: 0.316303 (Simulation time: 2 hr 28 min 18 sec) 
Heartbeat CPU 3 instructions: 1010000001 cycles: 578627810 heartbeat IPC: 1.63482 cumulative IPC: 1.55719 (Simulation time: 2 hr 28 min 31 sec) 
Heartbeat CPU 0 instructions: 710000001 cycles: 583451718 heartbeat IPC: 0.980059 cumulative IPC: 1.00749 (Simulation time: 2 hr 29 min 27 sec) 
Heartbeat CPU 3 instructions: 1020000000 cycles: 584654241 heartbeat IPC: 1.65936 cumulative IPC: 1.55856 (Simulation time: 2 hr 29 min 41 sec) 
Heartbeat CPU 3 instructions: 1030000002 cycles: 590640518 heartbeat IPC: 1.67049 cumulative IPC: 1.56003 (Simulation time: 2 hr 30 min 55 sec) 
Heartbeat CPU 0 instructions: 720000000 cycles: 593274617 heartbeat IPC: 1.01803 cumulative IPC: 1.00772 (Simulation time: 2 hr 31 min 26 sec) 
Heartbeat CPU 2 instructions: 510000003 cycles: 593665564 heartbeat IPC: 0.471579 cumulative IPC: 0.48104 (Simulation time: 2 hr 31 min 30 sec) 
Heartbeat CPU 3 instructions: 1040000000 cycles: 596624710 heartbeat IPC: 1.67107 cumulative IPC: 1.56147 (Simulation time: 2 hr 32 min 12 sec) 
Heartbeat CPU 0 instructions: 730000001 cycles: 603094625 heartbeat IPC: 1.01833 cumulative IPC: 1.00794 (Simulation time: 2 hr 33 min 37 sec) 
Heartbeat CPU 3 instructions: 1050000003 cycles: 603353738 heartbeat IPC: 1.4861 cumulative IPC: 1.56038 (Simulation time: 2 hr 33 min 42 sec) 
Heartbeat CPU 3 instructions: 1060000000 cycles: 609542337 heartbeat IPC: 1.61587 cumulative IPC: 1.56111 (Simulation time: 2 hr 35 min 1 sec) 
Heartbeat CPU 1 instructions: 350000002 cycles: 611559389 heartbeat IPC: 0.293947 cumulative IPC: 0.314707 (Simulation time: 2 hr 35 min 30 sec) 
Heartbeat CPU 0 instructions: 740000000 cycles: 613061075 heartbeat IPC: 1.00337 cumulative IPC: 1.00785 (Simulation time: 2 hr 35 min 55 sec) 
Heartbeat CPU 2 instructions: 520000000 cycles: 614196323 heartbeat IPC: 0.487074 cumulative IPC: 0.481299 (Simulation time: 2 hr 36 min 9 sec) 
Heartbeat CPU 3 instructions: 1070000000 cycles: 615605043 heartbeat IPC: 1.64943 cumulative IPC: 1.56222 (Simulation time: 2 hr 36 min 30 sec) 
Heartbeat CPU 3 instructions: 1080000000 cycles: 621650736 heartbeat IPC: 1.65407 cumulative IPC: 1.56336 (Simulation time: 2 hr 37 min 57 sec) 
Heartbeat CPU 0 instructions: 750000003 cycles: 622972144 heartbeat IPC: 1.00897 cumulative IPC: 1.00787 (Simulation time: 2 hr 38 min 12 sec) 
Heartbeat CPU 3 instructions: 1090000001 cycles: 627790649 heartbeat IPC: 1.62869 cumulative IPC: 1.56418 (Simulation time: 2 hr 39 min 11 sec) 
Heartbeat CPU 0 instructions: 760000000 cycles: 633089781 heartbeat IPC: 0.988373 cumulative IPC: 1.00747 (Simulation time: 2 hr 40 min 19 sec) 
Heartbeat CPU 3 instructions: 1100000000 cycles: 634099945 heartbeat IPC: 1.58496 cumulative IPC: 1.56444 (Simulation time: 2 hr 40 min 33 sec) 
Heartbeat CPU 2 instructions: 530000000 cycles: 635983677 heartbeat IPC: 0.458982 cumulative IPC: 0.480328 (Simulation time: 2 hr 40 min 58 sec) 
Heartbeat CPU 3 instructions: 1110000001 cycles: 640991011 heartbeat IPC: 1.45115 cumulative IPC: 1.5629 (Simulation time: 2 hr 42 min 6 sec) 
Heartbeat CPU 0 instructions: 770000001 cycles: 642971516 heartbeat IPC: 1.01197 cumulative IPC: 1.00756 (Simulation time: 2 hr 42 min 36 sec) 
Heartbeat CPU 1 instructions: 360000000 cycles: 644935625 heartbeat IPC: 0.299614 cumulative IPC: 0.31372 (Simulation time: 2 hr 43 min 7 sec) 
Heartbeat CPU 3 instructions: 1120000000 cycles: 647214884 heartbeat IPC: 1.60672 cumulative IPC: 1.56343 (Simulation time: 2 hr 43 min 37 sec) 
Heartbeat CPU 0 instructions: 780000000 cycles: 652959251 heartbeat IPC: 1.00123 cumulative IPC: 1.00744 (Simulation time: 2 hr 44 min 50 sec) 
Heartbeat CPU 3 instructions: 1130000001 cycles: 654069289 heartbeat IPC: 1.45892 cumulative IPC: 1.56205 (Simulation time: 2 hr 45 min 4 sec) 
Heartbeat CPU 2 instructions: 540000000 cycles: 656373627 heartbeat IPC: 0.490438 cumulative IPC: 0.480724 (Simulation time: 2 hr 45 min 41 sec) 
Heartbeat CPU 3 instructions: 1140000000 cycles: 660202783 heartbeat IPC: 1.63039 cumulative IPC: 1.56285 (Simulation time: 2 hr 46 min 41 sec) 
Heartbeat CPU 0 instructions: 790000003 cycles: 662716635 heartbeat IPC: 1.02487 cumulative IPC: 1.00776 (Simulation time: 2 hr 47 min 15 sec) 
Heartbeat CPU 3 instructions: 1150000002 cycles: 667016882 heartbeat IPC: 1.46755 cumulative IPC: 1.56163 (Simulation time: 2 hr 48 min 10 sec) 
Heartbeat CPU 0 instructions: 800000000 cycles: 672648523 heartbeat IPC: 1.00686 cumulative IPC: 1.00774 (Simulation time: 2 hr 49 min 26 sec) 
Heartbeat CPU 3 instructions: 1160000000 cycles: 673300104 heartbeat IPC: 1.59154 cumulative IPC: 1.56198 (Simulation time: 2 hr 49 min 34 sec) 
Heartbeat CPU 1 instructions: 370000000 cycles: 673618234 heartbeat IPC: 0.348643 cumulative IPC: 0.315579 (Simulation time: 2 hr 49 min 37 sec) 
Heartbeat CPU 2 instructions: 550000001 cycles: 677490808 heartbeat IPC: 0.473548 cumulative IPC: 0.480444 (Simulation time: 2 hr 50 min 31 sec) 
Heartbeat CPU 3 instructions: 1170000003 cycles: 679603357 heartbeat IPC: 1.58648 cumulative IPC: 1.56226 (Simulation time: 2 hr 50 min 59 sec) 
Heartbeat CPU 0 instructions: 810000003 cycles: 682693651 heartbeat IPC: 0.995508 cumulative IPC: 1.00752 (Simulation time: 2 hr 51 min 41 sec) 
Heartbeat CPU 3 instructions: 1180000000 cycles: 686313806 heartbeat IPC: 1.49021 cumulative IPC: 1.56138 (Simulation time: 2 hr 52 min 31 sec) 
Heartbeat CPU 3 instructions: 1190000000 cycles: 692470881 heartbeat IPC: 1.62415 cumulative IPC: 1.56208 (Simulation time: 2 hr 54 min 4 sec) 
Heartbeat CPU 0 instructions: 820000000 cycles: 692496628 heartbeat IPC: 1.0201 cumulative IPC: 1.00774 (Simulation time: 2 hr 54 min 5 sec) 
Heartbeat CPU 2 instructions: 560000000 cycles: 698395794 heartbeat IPC: 0.478355 cumulative IPC: 0.480367 (Simulation time: 2 hr 55 min 21 sec) 
Heartbeat CPU 3 instructions: 1200000000 cycles: 699228547 heartbeat IPC: 1.4798 cumulative IPC: 1.56109 (Simulation time: 2 hr 55 min 31 sec) 
Heartbeat CPU 0 instructions: 830000002 cycles: 702692262 heartbeat IPC: 0.980812 cumulative IPC: 1.00726 (Simulation time: 2 hr 56 min 10 sec) 
Heartbeat CPU 1 instructions: 380000000 cycles: 705185385 heartbeat IPC: 0.316785 cumulative IPC: 0.315646 (Simulation time: 2 hr 56 min 46 sec) 
Heartbeat CPU 3 instructions: 1210000000 cycles: 706113135 heartbeat IPC: 1.45252 cumulative IPC: 1.55978 (Simulation time: 2 hr 56 min 59 sec) 
Heartbeat CPU 3 instructions: 1220000000 cycles: 712326707 heartbeat IPC: 1.60938 cumulative IPC: 1.56032 (Simulation time: 2 hr 58 min 25 sec) 
Heartbeat CPU 0 instructions: 840000000 cycles: 712420741 heartbeat IPC: 1.02791 cumulative IPC: 1.0076 (Simulation time: 2 hr 58 min 27 sec) 
Heartbeat CPU 3 instructions: 1230000000 cycles: 718506318 heartbeat IPC: 1.61822 cumulative IPC: 1.56093 (Simulation time: 2 hr 59 min 50 sec) 
Heartbeat CPU 2 instructions: 570000001 cycles: 719436421 heartbeat IPC: 0.475271 cumulative IPC: 0.480183 (Simulation time: 3 hr 0 min 1 sec) 
Heartbeat CPU 0 instructions: 850000001 cycles: 722416111 heartbeat IPC: 1.00046 cumulative IPC: 1.00748 (Simulation time: 3 hr 0 min 36 sec) 
Heartbeat CPU 3 instructions: 1240000000 cycles: 724745213 heartbeat IPC: 1.60285 cumulative IPC: 1.56137 (Simulation time: 3 hr 1 min 8 sec) 
Heartbeat CPU 3 instructions: 1250000000 cycles: 731547004 heartbeat IPC: 1.4702 cumulative IPC: 1.56033 (Simulation time: 3 hr 2 min 39 sec) 
Heartbeat CPU 0 instructions: 860000000 cycles: 732192903 heartbeat IPC: 1.02283 cumulative IPC: 1.00773 (Simulation time: 3 hr 2 min 46 sec) 
Heartbeat CPU 1 instructions: 390000002 cycles: 735204181 heartbeat IPC: 0.333125 cumulative IPC: 0.31652 (Simulation time: 3 hr 3 min 26 sec) 
Heartbeat CPU 3 instructions: 1260000000 cycles: 737743979 heartbeat IPC: 1.61369 cumulative IPC: 1.56088 (Simulation time: 3 hr 4 min 0 sec) 
Heartbeat CPU 2 instructions: 580000000 cycles: 740388046 heartbeat IPC: 0.47729 cumulative IPC: 0.480083 (Simulation time: 3 hr 4 min 36 sec) 
Heartbeat CPU 0 instructions: 870000002 cycles: 742194581 heartbeat IPC: 0.999832 cumulative IPC: 1.0076 (Simulation time: 3 hr 4 min 58 sec) 
Heartbeat CPU 3 instructions: 1270000000 cycles: 743864148 heartbeat IPC: 1.63394 cumulative IPC: 1.56162 (Simulation time: 3 hr 5 min 18 sec) 
Heartbeat CPU 3 instructions: 1280000000 cycles: 750080515 heartbeat IPC: 1.60866 cumulative IPC: 1.56209 (Simulation time: 3 hr 6 min 40 sec) 
Heartbeat CPU 0 instructions: 880000000 cycles: 751984109 heartbeat IPC: 1.0215 cumulative IPC: 1.00782 (Simulation time: 3 hr 7 min 3 sec) 
Heartbeat CPU 3 instructions: 1290000000 cycles: 756832513 heartbeat IPC: 1.48104 cumulative IPC: 1.56121 (Simulation time: 3 hr 8 min 3 sec) 
Heartbeat CPU 2 instructions: 590000001 cycles: 761035504 heartbeat IPC: 0.484321 cumulative IPC: 0.480223 (Simulation time: 3 hr 8 min 54 sec) 
Heartbeat CPU 0 instructions: 890000000 cycles: 761873903 heartbeat IPC: 1.01114 cumulative IPC: 1.00788 (Simulation time: 3 hr 9 min 3 sec) 
Heartbeat CPU 3 instructions: 1300000000 cycles: 763100027 heartbeat IPC: 1.59553 cumulative IPC: 1.56155 (Simulation time: 3 hr 9 min 17 sec) 
Heartbeat CPU 1 instructions: 400000000 cycles: 767181343 heartbeat IPC: 0.312723 cumulative IPC: 0.316328 (Simulation time: 3 hr 10 min 11 sec) 
Heartbeat CPU 3 instructions: 1310000003 cycles: 769288447 heartbeat IPC: 1.61592 cumulative IPC: 1.56208 (Simulation time: 3 hr 10 min 36 sec) 
Heartbeat CPU 0 instructions: 900000000 cycles: 771982045 heartbeat IPC: 0.989302 cumulative IPC: 1.00758 (Simulation time: 3 hr 11 min 11 sec) 
Finished CPU 3 instructions: 1000000003 cycles: 639857387 cumulative IPC: 1.56285 (Simulation time: 3 hr 11 min 48 sec) 
Heartbeat CPU 3 instructions: 1320000000 cycles: 775332308 heartbeat IPC: 1.65457 cumulative IPC: 1.56296 (Simulation time: 3 hr 11 min 55 sec) 
Heartbeat CPU 2 instructions: 600000000 cycles: 781447293 heartbeat IPC: 0.489913 cumulative IPC: 0.480529 (Simulation time: 3 hr 13 min 20 sec) 
Heartbeat CPU 3 instructions: 1330000002 cycles: 781493038 heartbeat IPC: 1.62318 cumulative IPC: 1.56353 (Simulation time: 3 hr 13 min 21 sec) 
Heartbeat CPU 0 instructions: 910000000 cycles: 781790180 heartbeat IPC: 1.01956 cumulative IPC: 1.00776 (Simulation time: 3 hr 13 min 27 sec) 
Heartbeat CPU 3 instructions: 1340000000 cycles: 787687076 heartbeat IPC: 1.61446 cumulative IPC: 1.56401 (Simulation time: 3 hr 14 min 52 sec) 
Heartbeat CPU 0 instructions: 920000000 cycles: 791690274 heartbeat IPC: 1.01009 cumulative IPC: 1.0078 (Simulation time: 3 hr 15 min 46 sec) 
Heartbeat CPU 1 instructions: 410000000 cycles: 794188030 heartbeat IPC: 0.370279 cumulative IPC: 0.318538 (Simulation time: 3 hr 16 min 21 sec) 
Heartbeat CPU 3 instructions: 1350000000 cycles: 794494421 heartbeat IPC: 1.469 cumulative IPC: 1.56303 (Simulation time: 3 hr 16 min 25 sec) 
Heartbeat CPU 3 instructions: 1360000000 cycles: 800696066 heartbeat IPC: 1.61248 cumulative IPC: 1.56349 (Simulation time: 3 hr 17 min 52 sec) 
Heartbeat CPU 0 instructions: 930000000 cycles: 801594342 heartbeat IPC: 1.00969 cumulative IPC: 1.00783 (Simulation time: 3 hr 18 min 4 sec) 
Heartbeat CPU 2 instructions: 610000001 cycles: 802087614 heartbeat IPC: 0.484489 cumulative IPC: 0.480651 (Simulation time: 3 hr 18 min 10 sec) 
Heartbeat CPU 3 instructions: 1370000001 cycles: 806926709 heartbeat IPC: 1.60497 cumulative IPC: 1.56388 (Simulation time: 3 hr 19 min 11 sec) 
Heartbeat CPU 0 instructions: 940000000 cycles: 811653596 heartbeat IPC: 0.99411 cumulative IPC: 1.00762 (Simulation time: 3 hr 20 min 25 sec) 
Heartbeat CPU 3 instructions: 1380000000 cycles: 813257760 heartbeat IPC: 1.57952 cumulative IPC: 1.56402 (Simulation time: 3 hr 20 min 47 sec) 
Heartbeat CPU 3 instructions: 1390000001 cycles: 819565478 heartbeat IPC: 1.58536 cumulative IPC: 1.56422 (Simulation time: 3 hr 22 min 2 sec) 
Heartbeat CPU 0 instructions: 950000000 cycles: 821475604 heartbeat IPC: 1.01812 cumulative IPC: 1.00777 (Simulation time: 3 hr 22 min 25 sec) 
Heartbeat CPU 2 instructions: 620000000 cycles: 822477521 heartbeat IPC: 0.490439 cumulative IPC: 0.480942 (Simulation time: 3 hr 22 min 36 sec) 
Heartbeat CPU 1 instructions: 420000000 cycles: 823401320 heartbeat IPC: 0.34231 cumulative IPC: 0.319547 (Simulation time: 3 hr 22 min 47 sec) 
Heartbeat CPU 3 instructions: 1400000000 cycles: 825799158 heartbeat IPC: 1.60419 cumulative IPC: 1.56458 (Simulation time: 3 hr 23 min 15 sec) 
Heartbeat CPU 0 instructions: 960000000 cycles: 831551053 heartbeat IPC: 0.992512 cumulative IPC: 1.00755 (Simulation time: 3 hr 24 min 20 sec) 
Heartbeat CPU 3 instructions: 1410000003 cycles: 832662639 heartbeat IPC: 1.45699 cumulative IPC: 1.56352 (Simulation time: 3 hr 24 min 34 sec) 
Heartbeat CPU 3 instructions: 1420000000 cycles: 838861439 heartbeat IPC: 1.61321 cumulative IPC: 1.56396 (Simulation time: 3 hr 25 min 53 sec) 
Heartbeat CPU 0 instructions: 970000003 cycles: 841282767 heartbeat IPC: 1.02757 cumulative IPC: 1.00783 (Simulation time: 3 hr 26 min 24 sec) 
Heartbeat CPU 2 instructions: 630000000 cycles: 842956872 heartbeat IPC: 0.488297 cumulative IPC: 0.481154 (Simulation time: 3 hr 26 min 45 sec) 
Heartbeat CPU 3 instructions: 1430000002 cycles: 845041978 heartbeat IPC: 1.61798 cumulative IPC: 1.56443 (Simulation time: 3 hr 27 min 9 sec) 
Heartbeat CPU 1 instructions: 430000001 cycles: 850638794 heartbeat IPC: 0.367141 cumulative IPC: 0.321358 (Simulation time: 3 hr 28 min 20 sec) 
Heartbeat CPU 0 instructions: 980000000 cycles: 851181233 heartbeat IPC: 1.01026 cumulative IPC: 1.00786 (Simulation time: 3 hr 28 min 27 sec) 
Heartbeat CPU 3 instructions: 1440000000 cycles: 851221022 heartbeat IPC: 1.61837 cumulative IPC: 1.5649 (Simulation time: 3 hr 28 min 28 sec) 
Heartbeat CPU 3 instructions: 1450000002 cycles: 858742065 heartbeat IPC: 1.3296 cumulative IPC: 1.56245 (Simulation time: 3 hr 29 min 55 sec) 
Heartbeat CPU 0 instructions: 990000003 cycles: 861069188 heartbeat IPC: 1.01133 cumulative IPC: 1.00791 (Simulation time: 3 hr 30 min 22 sec) 
Heartbeat CPU 2 instructions: 640000000 cycles: 863898332 heartbeat IPC: 0.477522 cumulative IPC: 0.48105 (Simulation time: 3 hr 30 min 54 sec) 
Heartbeat CPU 3 instructions: 1460000000 cycles: 864990961 heartbeat IPC: 1.60028 cumulative IPC: 1.56277 (Simulation time: 3 hr 31 min 7 sec) 
Heartbeat CPU 0 instructions: 1000000000 cycles: 870964520 heartbeat IPC: 1.01058 cumulative IPC: 1.00795 (Simulation time: 3 hr 32 min 19 sec) 
Heartbeat CPU 3 instructions: 1470000003 cycles: 871902890 heartbeat IPC: 1.44677 cumulative IPC: 1.56169 (Simulation time: 3 hr 32 min 31 sec) 
Heartbeat CPU 3 instructions: 1480000000 cycles: 879369157 heartbeat IPC: 1.33936 cumulative IPC: 1.55946 (Simulation time: 3 hr 33 min 58 sec) 
Heartbeat CPU 0 instructions: 1010000002 cycles: 880932144 heartbeat IPC: 1.00325 cumulative IPC: 1.00788 (Simulation time: 3 hr 34 min 14 sec) 
Heartbeat CPU 1 instructions: 440000000 cycles: 882167442 heartbeat IPC: 0.317172 cumulative IPC: 0.321181 (Simulation time: 3 hr 34 min 27 sec) 
Heartbeat CPU 2 instructions: 650000000 cycles: 884459324 heartbeat IPC: 0.486358 cumulative IPC: 0.481196 (Simulation time: 3 hr 34 min 54 sec) 
Heartbeat CPU 3 instructions: 1490000001 cycles: 886294393 heartbeat IPC: 1.44399 cumulative IPC: 1.55839 (Simulation time: 3 hr 35 min 15 sec) 
Heartbeat CPU 0 instructions: 1020000000 cycles: 891284588 heartbeat IPC: 0.965955 cumulative IPC: 1.00731 (Simulation time: 3 hr 36 min 9 sec) 
Heartbeat CPU 3 instructions: 1500000000 cycles: 893137641 heartbeat IPC: 1.46129 cumulative IPC: 1.55752 (Simulation time: 3 hr 36 min 30 sec) 
Heartbeat CPU 3 instructions: 1510000002 cycles: 900016546 heartbeat IPC: 1.45372 cumulative IPC: 1.55658 (Simulation time: 3 hr 37 min 52 sec) 
Heartbeat CPU 0 instructions: 1030000003 cycles: 901082958 heartbeat IPC: 1.02058 cumulative IPC: 1.00748 (Simulation time: 3 hr 38 min 5 sec) 
Heartbeat CPU 2 instructions: 660000000 cycles: 905519477 heartbeat IPC: 0.47483 cumulative IPC: 0.481022 (Simulation time: 3 hr 39 min 2 sec) 
Heartbeat CPU 3 instructions: 1520000000 cycles: 906239829 heartbeat IPC: 1.60687 cumulative IPC: 1.55699 (Simulation time: 3 hr 39 min 11 sec) 
Heartbeat CPU 0 instructions: 1040000000 cycles: 911008772 heartbeat IPC: 1.00747 cumulative IPC: 1.00748 (Simulation time: 3 hr 40 min 8 sec) 
Heartbeat CPU 3 instructions: 1530000000 cycles: 912569027 heartbeat IPC: 1.57998 cumulative IPC: 1.55718 (Simulation time: 3 hr 40 min 26 sec) 
Heartbeat CPU 1 instructions: 450000001 cycles: 915568305 heartbeat IPC: 0.299394 cumulative IPC: 0.320249 (Simulation time: 3 hr 41 min 4 sec) 
Heartbeat CPU 3 instructions: 1540000000 cycles: 918624358 heartbeat IPC: 1.65144 cumulative IPC: 1.5579 (Simulation time: 3 hr 41 min 41 sec) 
Heartbeat CPU 0 instructions: 1050000001 cycles: 920871719 heartbeat IPC: 1.0139 cumulative IPC: 1.00756 (Simulation time: 3 hr 42 min 8 sec) 
Heartbeat CPU 3 instructions: 1550000003 cycles: 926004397 heartbeat IPC: 1.35501 cumulative IPC: 1.55601 (Simulation time: 3 hr 43 min 5 sec) 
Heartbeat CPU 2 instructions: 670000000 cycles: 927204013 heartbeat IPC: 0.461158 cumulative IPC: 0.480478 (Simulation time: 3 hr 43 min 19 sec) 
Heartbeat CPU 0 instructions: 1060000000 cycles: 930800846 heartbeat IPC: 1.00714 cumulative IPC: 1.00755 (Simulation time: 3 hr 43 min 59 sec) 
Heartbeat CPU 3 instructions: 1560000000 cycles: 932744508 heartbeat IPC: 1.48365 cumulative IPC: 1.5554 (Simulation time: 3 hr 44 min 21 sec) 
Heartbeat CPU 3 instructions: 1570000002 cycles: 938919960 heartbeat IPC: 1.61932 cumulative IPC: 1.55589 (Simulation time: 3 hr 45 min 34 sec) 
Heartbeat CPU 0 instructions: 1070000002 cycles: 940844471 heartbeat IPC: 0.995657 cumulative IPC: 1.00741 (Simulation time: 3 hr 45 min 59 sec) 
Heartbeat CPU 3 instructions: 1580000000 cycles: 945046070 heartbeat IPC: 1.63236 cumulative IPC: 1.55647 (Simulation time: 3 hr 46 min 49 sec) 
Heartbeat CPU 1 instructions: 460000000 cycles: 949073416 heartbeat IPC: 0.298462 cumulative IPC: 0.319353 (Simulation time: 3 hr 47 min 38 sec) 
Heartbeat CPU 2 instructions: 680000000 cycles: 949112290 heartbeat IPC: 0.456448 cumulative IPC: 0.479831 (Simulation time: 3 hr 47 min 38 sec) 
Heartbeat CPU 0 instructions: 1080000000 cycles: 950647624 heartbeat IPC: 1.02008 cumulative IPC: 1.00756 (Simulation time: 3 hr 47 min 57 sec) 
Heartbeat CPU 3 instructions: 1590000003 cycles: 951165513 heartbeat IPC: 1.63414 cumulative IPC: 1.55705 (Simulation time: 3 hr 48 min 3 sec) 
Heartbeat CPU 3 instructions: 1600000000 cycles: 957303483 heartbeat IPC: 1.6292 cumulative IPC: 1.55759 (Simulation time: 3 hr 49 min 14 sec) 
Heartbeat CPU 0 instructions: 1090000002 cycles: 960644987 heartbeat IPC: 1.00026 cumulative IPC: 1.00747 (Simulation time: 3 hr 49 min 52 sec) 
Heartbeat CPU 3 instructions: 1610000000 cycles: 963424586 heartbeat IPC: 1.63369 cumulative IPC: 1.55815 (Simulation time: 3 hr 50 min 28 sec) 
Heartbeat CPU 3 instructions: 1620000000 cycles: 969519809 heartbeat IPC: 1.64063 cumulative IPC: 1.55875 (Simulation time: 3 hr 51 min 45 sec) 
Heartbeat CPU 0 instructions: 1100000000 cycles: 970386802 heartbeat IPC: 1.0265 cumulative IPC: 1.00769 (Simulation time: 3 hr 51 min 55 sec) 
Heartbeat CPU 2 instructions: 690000002 cycles: 970719906 heartbeat IPC: 0.4628 cumulative IPC: 0.479391 (Simulation time: 3 hr 51 min 59 sec) 
Heartbeat CPU 3 instructions: 1630000000 cycles: 977354372 heartbeat IPC: 1.2764 cumulative IPC: 1.55613 (Simulation time: 3 hr 53 min 13 sec) 
Heartbeat CPU 1 instructions: 470000001 cycles: 979871615 heartbeat IPC: 0.324694 cumulative IPC: 0.319547 (Simulation time: 3 hr 53 min 41 sec) 
Heartbeat CPU 0 instructions: 1110000003 cycles: 980395175 heartbeat IPC: 0.999164 cumulative IPC: 1.00759 (Simulation time: 3 hr 53 min 52 sec) 
Heartbeat CPU 3 instructions: 1640000000 cycles: 983594089 heartbeat IPC: 1.60264 cumulative IPC: 1.55647 (Simulation time: 3 hr 54 min 43 sec) 
Heartbeat CPU 3 instructions: 1650000003 cycles: 989805967 heartbeat IPC: 1.60982 cumulative IPC: 1.55686 (Simulation time: 3 hr 56 min 7 sec) 
Heartbeat CPU 0 instructions: 1120000000 cycles: 990127007 heartbeat IPC: 1.02756 cumulative IPC: 1.00782 (Simulation time: 3 hr 56 min 11 sec) 
Heartbeat CPU 2 instructions: 700000000 cycles: 991660697 heartbeat IPC: 0.477537 cumulative IPC: 0.479346 (Simulation time: 3 hr 56 min 31 sec) 
Heartbeat CPU 3 instructions: 1660000000 cycles: 995975264 heartbeat IPC: 1.62093 cumulative IPC: 1.55732 (Simulation time: 3 hr 57 min 27 sec) 
Heartbeat CPU 0 instructions: 1130000002 cycles: 1000173269 heartbeat IPC: 0.995395 cumulative IPC: 1.00767 (Simulation time: 3 hr 58 min 21 sec) 
Heartbeat CPU 3 instructions: 1670000003 cycles: 1002142508 heartbeat IPC: 1.62147 cumulative IPC: 1.55777 (Simulation time: 3 hr 58 min 48 sec) 
Heartbeat CPU 1 instructions: 480000000 cycles: 1007478372 heartbeat IPC: 0.36223 cumulative IPC: 0.320898 (Simulation time: 4 hr 0 min 3 sec) 
Heartbeat CPU 3 instructions: 1680000000 cycles: 1008292043 heartbeat IPC: 1.62614 cumulative IPC: 1.55826 (Simulation time: 4 hr 0 min 14 sec) 
Heartbeat CPU 0 instructions: 1140000000 cycles: 1010037720 heartbeat IPC: 1.01374 cumulative IPC: 1.00774 (Simulation time: 4 hr 0 min 36 sec) 
Heartbeat CPU 2 instructions: 710000000 cycles: 1012997471 heartbeat IPC: 0.468674 cumulative IPC: 0.479086 (Simulation time: 4 hr 1 min 11 sec) 
Heartbeat CPU 3 instructions: 1690000001 cycles: 1014948194 heartbeat IPC: 1.50237 cumulative IPC: 1.55783 (Simulation time: 4 hr 1 min 32 sec) 
Heartbeat CPU 0 instructions: 1150000003 cycles: 1019833217 heartbeat IPC: 1.02088 cumulative IPC: 1.00789 (Simulation time: 4 hr 2 min 36 sec) 
Heartbeat CPU 3 instructions: 1700000000 cycles: 1021123557 heartbeat IPC: 1.61934 cumulative IPC: 1.55826 (Simulation time: 4 hr 2 min 53 sec) 
Heartbeat CPU 3 instructions: 1710000003 cycles: 1027002806 heartbeat IPC: 1.7009 cumulative IPC: 1.5592 (Simulation time: 4 hr 4 min 22 sec) 
Heartbeat CPU 0 instructions: 1160000000 cycles: 1029779745 heartbeat IPC: 1.00538 cumulative IPC: 1.00786 (Simulation time: 4 hr 5 min 7 sec) 
Heartbeat CPU 3 instructions: 1720000000 cycles: 1032882382 heartbeat IPC: 1.7008 cumulative IPC: 1.56013 (Simulation time: 4 hr 5 min 51 sec) 
Heartbeat CPU 2 instructions: 720000000 cycles: 1033606638 heartbeat IPC: 0.485221 cumulative IPC: 0.479227 (Simulation time: 4 hr 6 min 1 sec) 
Heartbeat CPU 1 instructions: 490000001 cycles: 1034872098 heartbeat IPC: 0.365047 cumulative IPC: 0.322242 (Simulation time: 4 hr 6 min 17 sec) 
Heartbeat CPU 3 instructions: 1730000003 cycles: 1038741015 heartbeat IPC: 1.70688 cumulative IPC: 1.56108 (Simulation time: 4 hr 7 min 5 sec) 
Heartbeat CPU 0 instructions: 1170000001 cycles: 1039696839 heartbeat IPC: 1.00836 cumulative IPC: 1.00786 (Simulation time: 4 hr 7 min 17 sec) 
Heartbeat CPU 3 instructions: 1740000000 cycles: 1044583294 heartbeat IPC: 1.71166 cumulative IPC: 1.56205 (Simulation time: 4 hr 8 min 15 sec) 
Heartbeat CPU 0 instructions: 1180000000 cycles: 1049682585 heartbeat IPC: 1.00143 cumulative IPC: 1.00779 (Simulation time: 4 hr 9 min 20 sec) 
Heartbeat CPU 3 instructions: 1750000003 cycles: 1050360251 heartbeat IPC: 1.73102 cumulative IPC: 1.56311 (Simulation time: 4 hr 9 min 28 sec) 
Heartbeat CPU 2 instructions: 730000003 cycles: 1054268563 heartbeat IPC: 0.483982 cumulative IPC: 0.479334 (Simulation time: 4 hr 10 min 18 sec) 
Heartbeat CPU 3 instructions: 1760000000 cycles: 1056172641 heartbeat IPC: 1.72046 cumulative IPC: 1.56411 (Simulation time: 4 hr 10 min 43 sec) 
Heartbeat CPU 0 instructions: 1190000002 cycles: 1059643669 heartbeat IPC: 1.00391 cumulative IPC: 1.00775 (Simulation time: 4 hr 11 min 25 sec) 
Heartbeat CPU 3 instructions: 1770000000 cycles: 1061929941 heartbeat IPC: 1.73693 cumulative IPC: 1.56518 (Simulation time: 4 hr 11 min 52 sec) 
Heartbeat CPU 1 instructions: 500000000 cycles: 1065189154 heartbeat IPC: 0.329847 cumulative IPC: 0.322489 (Simulation time: 4 hr 12 min 35 sec) 
Heartbeat CPU 3 instructions: 1780000000 cycles: 1067709770 heartbeat IPC: 1.73015 cumulative IPC: 1.5662 (Simulation time: 4 hr 13 min 8 sec) 
Heartbeat CPU 0 instructions: 1200000000 cycles: 1069429215 heartbeat IPC: 1.02192 cumulative IPC: 1.0079 (Simulation time: 4 hr 13 min 31 sec) 
Heartbeat CPU 3 instructions: 1790000001 cycles: 1073614698 heartbeat IPC: 1.6935 cumulative IPC: 1.567 (Simulation time: 4 hr 14 min 22 sec) 
Heartbeat CPU 2 instructions: 740000000 cycles: 1074615034 heartbeat IPC: 0.491486 cumulative IPC: 0.479597 (Simulation time: 4 hr 14 min 35 sec) 
Heartbeat CPU 0 instructions: 1210000000 cycles: 1079426553 heartbeat IPC: 1.00027 cumulative IPC: 1.00782 (Simulation time: 4 hr 15 min 34 sec) 
Heartbeat CPU 3 instructions: 1800000000 cycles: 1079452037 heartbeat IPC: 1.71311 cumulative IPC: 1.5679 (Simulation time: 4 hr 15 min 34 sec) 
Heartbeat CPU 3 instructions: 1810000003 cycles: 1085313885 heartbeat IPC: 1.70595 cumulative IPC: 1.56876 (Simulation time: 4 hr 16 min 50 sec) 
Heartbeat CPU 0 instructions: 1220000000 cycles: 1089188334 heartbeat IPC: 1.0244 cumulative IPC: 1.00799 (Simulation time: 4 hr 17 min 38 sec) 
Heartbeat CPU 3 instructions: 1820000000 cycles: 1091163992 heartbeat IPC: 1.70937 cumulative IPC: 1.56962 (Simulation time: 4 hr 18 min 3 sec) 
Heartbeat CPU 1 instructions: 510000001 cycles: 1091380783 heartbeat IPC: 0.381801 cumulative IPC: 0.324114 (Simulation time: 4 hr 18 min 6 sec) 
Heartbeat CPU 2 instructions: 750000003 cycles: 1094612472 heartbeat IPC: 0.500064 cumulative IPC: 0.480024 (Simulation time: 4 hr 18 min 54 sec) 
Heartbeat CPU 3 instructions: 1830000000 cycles: 1096870623 heartbeat IPC: 1.75235 cumulative IPC: 1.5707 (Simulation time: 4 hr 19 min 26 sec) 
Heartbeat CPU 0 instructions: 1230000003 cycles: 1099257617 heartbeat IPC: 0.99312 cumulative IPC: 1.00783 (Simulation time: 4 hr 19 min 56 sec) 
Heartbeat CPU 3 instructions: 1840000000 cycles: 1102605200 heartbeat IPC: 1.74381 cumulative IPC: 1.57173 (Simulation time: 4 hr 20 min 41 sec) 
Heartbeat CPU 3 instructions: 1850000002 cycles: 1108303523 heartbeat IPC: 1.7549 cumulative IPC: 1.5728 (Simulation time: 4 hr 21 min 52 sec) 
Heartbeat CPU 0 instructions: 1240000000 cycles: 1109528499 heartbeat IPC: 0.973626 cumulative IPC: 1.00747 (Simulation time: 4 hr 22 min 7 sec) 
Heartbeat CPU 3 instructions: 1860000000 cycles: 1114968555 heartbeat IPC: 1.50037 cumulative IPC: 1.57231 (Simulation time: 4 hr 23 min 15 sec) 
Heartbeat CPU 2 instructions: 760000000 cycles: 1115129348 heartbeat IPC: 0.487403 cumulative IPC: 0.480178 (Simulation time: 4 hr 23 min 16 sec) 
Heartbeat CPU 0 instructions: 1250000000 cycles: 1119255562 heartbeat IPC: 1.02806 cumulative IPC: 1.00768 (Simulation time: 4 hr 24 min 8 sec) 
Heartbeat CPU 3 instructions: 1870000000 cycles: 1121020115 heartbeat IPC: 1.65247 cumulative IPC: 1.5728 (Simulation time: 4 hr 24 min 29 sec) 
Heartbeat CPU 3 instructions: 1880000000 cycles: 1127082586 heartbeat IPC: 1.64949 cumulative IPC: 1.57327 (Simulation time: 4 hr 25 min 43 sec) 
Heartbeat CPU 1 instructions: 520000000 cycles: 1127123486 heartbeat IPC: 0.279777 cumulative IPC: 0.322517 (Simulation time: 4 hr 25 min 43 sec) 
Finished CPU 0 instructions: 1000000000 cycles: 992293213 cumulative IPC: 1.00777 (Simulation time: 4 hr 25 min 44 sec) 
Heartbeat CPU 0 instructions: 1260000000 cycles: 1129079215 heartbeat IPC: 1.01795 cumulative IPC: 1.00778 (Simulation time: 4 hr 26 min 8 sec) 
Heartbeat CPU 3 instructions: 1890000002 cycles: 1133324460 heartbeat IPC: 1.60208 cumulative IPC: 1.57345 (Simulation time: 4 hr 26 min 58 sec) 
Heartbeat CPU 2 instructions: 770000003 cycles: 1135418347 heartbeat IPC: 0.492878 cumulative IPC: 0.480436 (Simulation time: 4 hr 27 min 25 sec) 
Heartbeat CPU 0 instructions: 1270000000 cycles: 1139000008 heartbeat IPC: 1.00798 cumulative IPC: 1.00778 (Simulation time: 4 hr 28 min 11 sec) 
Heartbeat CPU 3 instructions: 1900000000 cycles: 1139634891 heartbeat IPC: 1.58468 cumulative IPC: 1.57352 (Simulation time: 4 hr 28 min 19 sec) 
Heartbeat CPU 3 instructions: 1910000001 cycles: 1145807235 heartbeat IPC: 1.62013 cumulative IPC: 1.5738 (Simulation time: 4 hr 29 min 34 sec) 
Heartbeat CPU 0 instructions: 1280000000 cycles: 1148989051 heartbeat IPC: 1.0011 cumulative IPC: 1.00771 (Simulation time: 4 hr 30 min 13 sec) 
Heartbeat CPU 3 instructions: 1920000000 cycles: 1151993376 heartbeat IPC: 1.61652 cumulative IPC: 1.57406 (Simulation time: 4 hr 30 min 52 sec) 
Heartbeat CPU 1 instructions: 530000001 cycles: 1153723891 heartbeat IPC: 0.375934 cumulative IPC: 0.323911 (Simulation time: 4 hr 31 min 13 sec) 
Heartbeat CPU 2 instructions: 780000000 cycles: 1155382064 heartbeat IPC: 0.500909 cumulative IPC: 0.480836 (Simulation time: 4 hr 31 min 33 sec) 
Heartbeat CPU 3 instructions: 1930000002 cycles: 1158155021 heartbeat IPC: 1.62294 cumulative IPC: 1.57436 (Simulation time: 4 hr 32 min 5 sec) 
Heartbeat CPU 0 instructions: 1290000003 cycles: 1158761808 heartbeat IPC: 1.02325 cumulative IPC: 1.00786 (Simulation time: 4 hr 32 min 12 sec) 
Heartbeat CPU 3 instructions: 1940000000 cycles: 1164344085 heartbeat IPC: 1.61575 cumulative IPC: 1.57461 (Simulation time: 4 hr 33 min 21 sec) 
Heartbeat CPU 0 instructions: 1300000000 cycles: 1168892348 heartbeat IPC: 0.987114 cumulative IPC: 1.00766 (Simulation time: 4 hr 34 min 14 sec) 
Heartbeat CPU 3 instructions: 1950000001 cycles: 1170459318 heartbeat IPC: 1.63526 cumulative IPC: 1.57496 (Simulation time: 4 hr 34 min 32 sec) 
Heartbeat CPU 3 instructions: 1960000000 cycles: 1176664664 heartbeat IPC: 1.61151 cumulative IPC: 1.57518 (Simulation time: 4 hr 35 min 45 sec) 
Heartbeat CPU 2 instructions: 790000001 cycles: 1176897603 heartbeat IPC: 0.46478 cumulative IPC: 0.480505 (Simulation time: 4 hr 35 min 47 sec) 
Heartbeat CPU 0 instructions: 1310000000 cycles: 1179000332 heartbeat IPC: 0.989317 cumulative IPC: 1.00748 (Simulation time: 4 hr 36 min 12 sec) 
Heartbeat CPU 3 instructions: 1970000001 cycles: 1182799128 heartbeat IPC: 1.63013 cumulative IPC: 1.5755 (Simulation time: 4 hr 37 min 1 sec) 
Heartbeat CPU 1 instructions: 540000000 cycles: 1187511838 heartbeat IPC: 0.295963 cumulative IPC: 0.323014 (Simulation time: 4 hr 38 min 0 sec) 
Heartbeat CPU 0 instructions: 1320000000 cycles: 1188744569 heartbeat IPC: 1.02625 cumulative IPC: 1.00766 (Simulation time: 4 hr 38 min 15 sec) 
Heartbeat CPU 3 instructions: 1980000000 cycles: 1189032519 heartbeat IPC: 1.60426 cumulative IPC: 1.57567 (Simulation time: 4 hr 38 min 18 sec) 
Heartbeat CPU 3 instructions: 1990000002 cycles: 1195193472 heartbeat IPC: 1.62313 cumulative IPC: 1.57595 (Simulation time: 4 hr 39 min 33 sec) 
Heartbeat CPU 2 instructions: 800000000 cycles: 1197653424 heartbeat IPC: 0.481793 cumulative IPC: 0.48053 (Simulation time: 4 hr 40 min 1 sec) 
Heartbeat CPU 0 instructions: 1330000000 cycles: 1198794488 heartbeat IPC: 0.995033 cumulative IPC: 1.00754 (Simulation time: 4 hr 40 min 14 sec) 
*** Reached end of trace for Core: 3 Repeating trace: /scratch/user/djimenez/champsim-traces/speccpu2017/xz/648.exchange2_s/648.exchange2_s-1511B.champsimtrace.xz
Heartbeat CPU 3 instructions: 2000000000 cycles: 1202051130 heartbeat IPC: 1.45822 cumulative IPC: 1.57519 (Simulation time: 4 hr 40 min 55 sec) 
Heartbeat CPU 0 instructions: 1340000000 cycles: 1208485311 heartbeat IPC: 1.0319 cumulative IPC: 1.00776 (Simulation time: 4 hr 42 min 13 sec) 
Heartbeat CPU 3 instructions: 2010000001 cycles: 1208654589 heartbeat IPC: 1.51436 cumulative IPC: 1.57482 (Simulation time: 4 hr 42 min 15 sec) 
Heartbeat CPU 1 instructions: 550000000 cycles: 1213038641 heartbeat IPC: 0.391745 cumulative IPC: 0.324641 (Simulation time: 4 hr 43 min 11 sec) 
Heartbeat CPU 3 instructions: 2020000000 cycles: 1215116863 heartbeat IPC: 1.54744 cumulative IPC: 1.57465 (Simulation time: 4 hr 43 min 35 sec) 
Heartbeat CPU 2 instructions: 810000001 cycles: 1218048533 heartbeat IPC: 0.490314 cumulative IPC: 0.480714 (Simulation time: 4 hr 44 min 9 sec) 
Heartbeat CPU 0 instructions: 1350000001 cycles: 1218512801 heartbeat IPC: 0.997259 cumulative IPC: 1.00766 (Simulation time: 4 hr 44 min 14 sec) 
Heartbeat CPU 3 instructions: 2030000000 cycles: 1221452356 heartbeat IPC: 1.57841 cumulative IPC: 1.57468 (Simulation time: 4 hr 44 min 47 sec) 
Heartbeat CPU 3 instructions: 2040000000 cycles: 1227778117 heartbeat IPC: 1.58084 cumulative IPC: 1.57471 (Simulation time: 4 hr 46 min 1 sec) 
Heartbeat CPU 0 instructions: 1360000000 cycles: 1228647577 heartbeat IPC: 0.986702 cumulative IPC: 1.00747 (Simulation time: 4 hr 46 min 11 sec) 
Heartbeat CPU 3 instructions: 2050000002 cycles: 1234148763 heartbeat IPC: 1.5697 cumulative IPC: 1.57468 (Simulation time: 4 hr 47 min 25 sec) 
Heartbeat CPU 0 instructions: 1370000000 cycles: 1238362386 heartbeat IPC: 1.02936 cumulative IPC: 1.00766 (Simulation time: 4 hr 48 min 16 sec) 
Heartbeat CPU 2 instructions: 820000000 cycles: 1239318385 heartbeat IPC: 0.470149 cumulative IPC: 0.480511 (Simulation time: 4 hr 48 min 28 sec) 
Heartbeat CPU 3 instructions: 2060000000 cycles: 1240573252 heartbeat IPC: 1.55654 cumulative IPC: 1.57458 (Simulation time: 4 hr 48 min 44 sec) 
Heartbeat CPU 3 instructions: 2070000000 cycles: 1247142254 heartbeat IPC: 1.5223 cumulative IPC: 1.57427 (Simulation time: 4 hr 50 min 4 sec) 
Heartbeat CPU 0 instructions: 1380000000 cycles: 1248371952 heartbeat IPC: 0.999044 cumulative IPC: 1.00758 (Simulation time: 4 hr 50 min 18 sec) 
Heartbeat CPU 1 instructions: 560000000 cycles: 1249511586 heartbeat IPC: 0.274176 cumulative IPC: 0.32299 (Simulation time: 4 hr 50 min 32 sec) 
Heartbeat CPU 3 instructions: 2080000000 cycles: 1254682143 heartbeat IPC: 1.32628 cumulative IPC: 1.5726 (Simulation time: 4 hr 51 min 34 sec) 
Heartbeat CPU 0 instructions: 1390000000 cycles: 1258139623 heartbeat IPC: 1.02379 cumulative IPC: 1.00772 (Simulation time: 4 hr 52 min 15 sec) 
Heartbeat CPU 2 instructions: 830000000 cycles: 1260221400 heartbeat IPC: 0.4784 cumulative IPC: 0.480471 (Simulation time: 4 hr 52 min 39 sec) 
Heartbeat CPU 3 instructions: 2090000000 cycles: 1261604502 heartbeat IPC: 1.44459 cumulative IPC: 1.57181 (Simulation time: 4 hr 52 min 56 sec) 
Heartbeat CPU 0 instructions: 1400000000 cycles: 1268165661 heartbeat IPC: 0.997403 cumulative IPC: 1.00763 (Simulation time: 4 hr 54 min 14 sec) 
Heartbeat CPU 3 instructions: 2100000000 cycles: 1268455528 heartbeat IPC: 1.45964 cumulative IPC: 1.57113 (Simulation time: 4 hr 54 min 18 sec) 
Heartbeat CPU 3 instructions: 2110000001 cycles: 1275319045 heartbeat IPC: 1.45698 cumulative IPC: 1.57045 (Simulation time: 4 hr 55 min 50 sec) 
Heartbeat CPU 1 instructions: 570000000 cycles: 1277128363 heartbeat IPC: 0.362099 cumulative IPC: 0.323936 (Simulation time: 4 hr 56 min 12 sec) 
Heartbeat CPU 0 instructions: 1410000002 cycles: 1277905271 heartbeat IPC: 1.02674 cumulative IPC: 1.00779 (Simulation time: 4 hr 56 min 21 sec) 
Heartbeat CPU 2 instructions: 840000000 cycles: 1280902785 heartbeat IPC: 0.483527 cumulative IPC: 0.480526 (Simulation time: 4 hr 56 min 55 sec) 
Heartbeat CPU 3 instructions: 2120000000 cycles: 1282151703 heartbeat IPC: 1.46356 cumulative IPC: 1.56981 (Simulation time: 4 hr 57 min 10 sec) 
Heartbeat CPU 0 instructions: 1420000000 cycles: 1287716908 heartbeat IPC: 1.0192 cumulative IPC: 1.00789 (Simulation time: 4 hr 58 min 18 sec) 
Heartbeat CPU 3 instructions: 2130000002 cycles: 1288329610 heartbeat IPC: 1.61867 cumulative IPC: 1.57007 (Simulation time: 4 hr 58 min 26 sec) 
Heartbeat CPU 3 instructions: 2140000000 cycles: 1294516191 heartbeat IPC: 1.6164 cumulative IPC: 1.57032 (Simulation time: 4 hr 59 min 36 sec) 
Heartbeat CPU 0 instructions: 1430000002 cycles: 1297928968 heartbeat IPC: 0.979235 cumulative IPC: 1.00764 (Simulation time: 5 hr 0 min 13 sec) 
Heartbeat CPU 3 instructions: 2150000000 cycles: 1301917355 heartbeat IPC: 1.35114 cumulative IPC: 1.56893 (Simulation time: 5 hr 0 min 55 sec) 
Heartbeat CPU 2 instructions: 850000000 cycles: 1301947014 heartbeat IPC: 0.47519 cumulative IPC: 0.48043 (Simulation time: 5 hr 0 min 55 sec) 
Heartbeat CPU 0 instructions: 1440000000 cycles: 1307849648 heartbeat IPC: 1.008 cumulative IPC: 1.00764 (Simulation time: 5 hr 2 min 4 sec) 
Heartbeat CPU 3 instructions: 2160000000 cycles: 1308104378 heartbeat IPC: 1.61629 cumulative IPC: 1.56918 (Simulation time: 5 hr 2 min 7 sec) 
Heartbeat CPU 1 instructions: 580000000 cycles: 1312383967 heartbeat IPC: 0.283643 cumulative IPC: 0.322729 (Simulation time: 5 hr 2 min 58 sec) 
Heartbeat CPU 3 instructions: 2170000003 cycles: 1314271271 heartbeat IPC: 1.62156 cumulative IPC: 1.56945 (Simulation time: 5 hr 3 min 20 sec) 
Heartbeat CPU 0 instructions: 1450000003 cycles: 1317724616 heartbeat IPC: 1.01266 cumulative IPC: 1.00768 (Simulation time: 5 hr 4 min 0 sec) 
Heartbeat CPU 3 instructions: 2180000000 cycles: 1320450324 heartbeat IPC: 1.61837 cumulative IPC: 1.56971 (Simulation time: 5 hr 4 min 30 sec) 
Heartbeat CPU 2 instructions: 860000000 cycles: 1321983440 heartbeat IPC: 0.499091 cumulative IPC: 0.480745 (Simulation time: 5 hr 4 min 49 sec) 
Heartbeat CPU 3 instructions: 2190000000 cycles: 1326625290 heartbeat IPC: 1.61944 cumulative IPC: 1.56997 (Simulation time: 5 hr 5 min 46 sec) 
Heartbeat CPU 0 instructions: 1460000000 cycles: 1327595080 heartbeat IPC: 1.01312 cumulative IPC: 1.00773 (Simulation time: 5 hr 5 min 57 sec) 
Heartbeat CPU 3 instructions: 2200000000 cycles: 1332820802 heartbeat IPC: 1.61407 cumulative IPC: 1.57019 (Simulation time: 5 hr 7 min 0 sec) 
Heartbeat CPU 0 instructions: 1470000000 cycles: 1337492052 heartbeat IPC: 1.01041 cumulative IPC: 1.00775 (Simulation time: 5 hr 7 min 57 sec) 
Heartbeat CPU 3 instructions: 2210000001 cycles: 1339015417 heartbeat IPC: 1.61431 cumulative IPC: 1.57042 (Simulation time: 5 hr 8 min 14 sec) 
Heartbeat CPU 1 instructions: 590000003 cycles: 1340986437 heartbeat IPC: 0.34962 cumulative IPC: 0.323367 (Simulation time: 5 hr 8 min 38 sec) 
Heartbeat CPU 2 instructions: 870000003 cycles: 1341914356 heartbeat IPC: 0.501733 cumulative IPC: 0.481092 (Simulation time: 5 hr 8 min 48 sec) 
Heartbeat CPU 3 instructions: 2220000000 cycles: 1345826466 heartbeat IPC: 1.4682 cumulative IPC: 1.56985 (Simulation time: 5 hr 9 min 31 sec) 
Heartbeat CPU 0 instructions: 1480000000 cycles: 1347639773 heartbeat IPC: 0.985443 cumulative IPC: 1.00756 (Simulation time: 5 hr 9 min 52 sec) 
Heartbeat CPU 3 instructions: 2230000000 cycles: 1351958121 heartbeat IPC: 1.63088 cumulative IPC: 1.57015 (Simulation time: 5 hr 10 min 44 sec) 
Heartbeat CPU 0 instructions: 1490000001 cycles: 1357466936 heartbeat IPC: 1.01759 cumulative IPC: 1.00764 (Simulation time: 5 hr 11 min 53 sec) 
Heartbeat CPU 3 instructions: 2240000000 cycles: 1358150331 heartbeat IPC: 1.61493 cumulative IPC: 1.57038 (Simulation time: 5 hr 12 min 1 sec) 
Heartbeat CPU 2 instructions: 880000000 cycles: 1361909690 heartbeat IPC: 0.500117 cumulative IPC: 0.481402 (Simulation time: 5 hr 12 min 48 sec) 
Heartbeat CPU 3 instructions: 2250000002 cycles: 1364351851 heartbeat IPC: 1.61251 cumulative IPC: 1.57059 (Simulation time: 5 hr 13 min 19 sec) 
Heartbeat CPU 0 instructions: 1500000000 cycles: 1367378547 heartbeat IPC: 1.00892 cumulative IPC: 1.00765 (Simulation time: 5 hr 13 min 53 sec) 
Heartbeat CPU 3 instructions: 2260000000 cycles: 1371106256 heartbeat IPC: 1.48052 cumulative IPC: 1.5701 (Simulation time: 5 hr 14 min 38 sec) 
Heartbeat CPU 1 instructions: 600000000 cycles: 1371888221 heartbeat IPC: 0.323606 cumulative IPC: 0.323373 (Simulation time: 5 hr 14 min 48 sec) 
Heartbeat CPU 0 instructions: 1510000000 cycles: 1377214304 heartbeat IPC: 1.0167 cumulative IPC: 1.00773 (Simulation time: 5 hr 15 min 55 sec) 
Heartbeat CPU 3 instructions: 2270000002 cycles: 1377262517 heartbeat IPC: 1.62436 cumulative IPC: 1.57037 (Simulation time: 5 hr 15 min 56 sec) 
Heartbeat CPU 2 instructions: 890000001 cycles: 1381863159 heartbeat IPC: 0.501166 cumulative IPC: 0.481718 (Simulation time: 5 hr 16 min 52 sec) 
Heartbeat CPU 3 instructions: 2280000000 cycles: 1383424459 heartbeat IPC: 1.62286 cumulative IPC: 1.57063 (Simulation time: 5 hr 17 min 12 sec) 
Heartbeat CPU 0 instructions: 1520000000 cycles: 1387150228 heartbeat IPC: 1.00645 cumulative IPC: 1.00772 (Simulation time: 5 hr 17 min 52 sec) 
Heartbeat CPU 3 instructions: 2290000003 cycles: 1390731210 heartbeat IPC: 1.3686 cumulative IPC: 1.56945 (Simulation time: 5 hr 18 min 35 sec) 
Heartbeat CPU 3 instructions: 2300000000 cycles: 1396933426 heartbeat IPC: 1.61233 cumulative IPC: 1.56966 (Simulation time: 5 hr 19 min 52 sec) 
Heartbeat CPU 0 instructions: 1530000001 cycles: 1396967203 heartbeat IPC: 1.01864 cumulative IPC: 1.0078 (Simulation time: 5 hr 19 min 52 sec) 
Heartbeat CPU 1 instructions: 610000001 cycles: 1398126919 heartbeat IPC: 0.381117 cumulative IPC: 0.324572 (Simulation time: 5 hr 20 min 6 sec) 
Heartbeat CPU 2 instructions: 900000000 cycles: 1401961729 heartbeat IPC: 0.497548 cumulative IPC: 0.481969 (Simulation time: 5 hr 20 min 59 sec) 
Heartbeat CPU 3 instructions: 2310000000 cycles: 1403821507 heartbeat IPC: 1.45178 cumulative IPC: 1.56902 (Simulation time: 5 hr 21 min 24 sec) 
Heartbeat CPU 0 instructions: 1540000000 cycles: 1406749569 heartbeat IPC: 1.02225 cumulative IPC: 1.00791 (Simulation time: 5 hr 21 min 59 sec) 
Heartbeat CPU 3 instructions: 2320000000 cycles: 1410203890 heartbeat IPC: 1.56681 cumulative IPC: 1.56901 (Simulation time: 5 hr 22 min 37 sec) 
Heartbeat CPU 0 instructions: 1550000003 cycles: 1416900534 heartbeat IPC: 0.985128 cumulative IPC: 1.00773 (Simulation time: 5 hr 23 min 54 sec) 
Heartbeat CPU 3 instructions: 2330000003 cycles: 1417108656 heartbeat IPC: 1.44828 cumulative IPC: 1.56836 (Simulation time: 5 hr 23 min 56 sec) 
Heartbeat CPU 2 instructions: 910000002 cycles: 1422283522 heartbeat IPC: 0.492083 cumulative IPC: 0.482129 (Simulation time: 5 hr 25 min 1 sec) 
Heartbeat CPU 3 instructions: 2340000000 cycles: 1423487490 heartbeat IPC: 1.56768 cumulative IPC: 1.56836 (Simulation time: 5 hr 25 min 16 sec) 
Heartbeat CPU 0 instructions: 1560000000 cycles: 1426639816 heartbeat IPC: 1.02677 cumulative IPC: 1.00788 (Simulation time: 5 hr 25 min 57 sec) 
Heartbeat CPU 1 instructions: 620000000 cycles: 1427747296 heartbeat IPC: 0.337605 cumulative IPC: 0.324871 (Simulation time: 5 hr 26 min 11 sec) 
[...]
Heartbeat CPU 0 instructions: 3290000003 cycles: 3161244395 heartbeat IPC: 0.980443 cumulative IPC: 1.00184 (Simulation time: 10 hr 44 min 25 sec) 
Heartbeat CPU 3 instructions: 5070000000 cycles: 3164976916 heartbeat IPC: 1.64933 cumulative IPC: 1.56794 (Simulation time: 10 hr 45 min 3 sec) 
Heartbeat CPU 3 instructions: 5080000000 cycles: 3171022380 heartbeat IPC: 1.65413 cumulative IPC: 1.56811 (Simulation time: 10 hr 46 min 6 sec) 
Heartbeat CPU 0 instructions: 3300000000 cycles: 3171611551 heartbeat IPC: 0.964584 cumulative IPC: 1.00171 (Simulation time: 10 hr 46 min 12 sec) 
Heartbeat CPU 2 instructions: 1750000002 cycles: 3176804043 heartbeat IPC: 0.467791 cumulative IPC: 0.480188 (Simulation time: 10 hr 47 min 5 sec) 
Heartbeat CPU 3 instructions: 5090000001 cycles: 3177161213 heartbeat IPC: 1.62897 cumulative IPC: 1.56823 (Simulation time: 10 hr 47 min 9 sec) 
Heartbeat CPU 0 instructions: 3310000001 cycles: 3181831168 heartbeat IPC: 0.97851 cumulative IPC: 1.00163 (Simulation time: 10 hr 47 min 57 sec) 
Heartbeat CPU 3 instructions: 5100000000 cycles: 3183471516 heartbeat IPC: 1.58471 cumulative IPC: 1.56826 (Simulation time: 10 hr 48 min 13 sec) 
Heartbeat CPU 3 instructions: 5110000001 cycles: 3190364471 heartbeat IPC: 1.45076 cumulative IPC: 1.568 (Simulation time: 10 hr 49 min 22 sec) 
Heartbeat CPU 0 instructions: 3320000000 cycles: 3192095492 heartbeat IPC: 0.974248 cumulative IPC: 1.00154 (Simulation time: 10 hr 49 min 40 sec) 
Heartbeat CPU 3 instructions: 5120000000 cycles: 3196586164 heartbeat IPC: 1.60728 cumulative IPC: 1.56808 (Simulation time: 10 hr 50 min 26 sec) 
Heartbeat CPU 2 instructions: 1760000000 cycles: 3198047476 heartbeat IPC: 0.470734 cumulative IPC: 0.480122 (Simulation time: 10 hr 50 min 42 sec) 
Heartbeat CPU 0 instructions: 3330000000 cycles: 3202349790 heartbeat IPC: 0.975201 cumulative IPC: 1.00145 (Simulation time: 10 hr 51 min 24 sec) 
Heartbeat CPU 3 instructions: 5130000001 cycles: 3203440688 heartbeat IPC: 1.45889 cumulative IPC: 1.56784 (Simulation time: 10 hr 51 min 36 sec) 
Heartbeat CPU 1 instructions: 1190000000 cycles: 3208097303 heartbeat IPC: 0.150949 cumulative IPC: 0.322143 (Simulation time: 10 hr 52 min 24 sec) 
Heartbeat CPU 3 instructions: 5140000000 cycles: 3209573482 heartbeat IPC: 1.63058 cumulative IPC: 1.56796 (Simulation time: 10 hr 52 min 40 sec) 
Heartbeat CPU 0 instructions: 3340000000 cycles: 3212585736 heartbeat IPC: 0.976949 cumulative IPC: 1.00137 (Simulation time: 10 hr 53 min 11 sec) 
Heartbeat CPU 3 instructions: 5150000002 cycles: 3216387981 heartbeat IPC: 1.46746 cumulative IPC: 1.56774 (Simulation time: 10 hr 53 min 48 sec) 
Heartbeat CPU 2 instructions: 1770000000 cycles: 3219625188 heartbeat IPC: 0.463441 cumulative IPC: 0.480005 (Simulation time: 10 hr 54 min 21 sec) 
Heartbeat CPU 3 instructions: 5160000000 cycles: 3222672623 heartbeat IPC: 1.59118 cumulative IPC: 1.56779 (Simulation time: 10 hr 54 min 52 sec) 
Heartbeat CPU 0 instructions: 3350000001 cycles: 3222773434 heartbeat IPC: 0.981576 cumulative IPC: 1.00131 (Simulation time: 10 hr 54 min 53 sec) 
Heartbeat CPU 3 instructions: 5170000003 cycles: 3228976369 heartbeat IPC: 1.58636 cumulative IPC: 1.56782 (Simulation time: 10 hr 55 min 56 sec) 
Heartbeat CPU 0 instructions: 3360000000 cycles: 3232983707 heartbeat IPC: 0.979406 cumulative IPC: 1.00124 (Simulation time: 10 hr 56 min 36 sec) 
Heartbeat CPU 3 instructions: 5180000000 cycles: 3235687223 heartbeat IPC: 1.49012 cumulative IPC: 1.56766 (Simulation time: 10 hr 57 min 4 sec) 
Heartbeat CPU 2 instructions: 1780000000 cycles: 3240603698 heartbeat IPC: 0.476678 cumulative IPC: 0.479983 (Simulation time: 10 hr 57 min 56 sec) 
Heartbeat CPU 3 instructions: 5190000000 cycles: 3241841507 heartbeat IPC: 1.62488 cumulative IPC: 1.56777 (Simulation time: 10 hr 58 min 9 sec) 
Heartbeat CPU 0 instructions: 3370000000 cycles: 3243160398 heartbeat IPC: 0.982638 cumulative IPC: 1.00117 (Simulation time: 10 hr 58 min 22 sec) 
Heartbeat CPU 3 instructions: 5200000000 cycles: 3248598049 heartbeat IPC: 1.48005 cumulative IPC: 1.56758 (Simulation time: 10 hr 59 min 17 sec) 
Heartbeat CPU 0 instructions: 3380000000 cycles: 3253387876 heartbeat IPC: 0.977758 cumulative IPC: 1.0011 (Simulation time: 11 hr 0 min 5 sec) 
Heartbeat CPU 3 instructions: 5210000000 cycles: 3255480554 heartbeat IPC: 1.45296 cumulative IPC: 1.56733 (Simulation time: 11 hr 0 min 26 sec) 
Heartbeat CPU 3 instructions: 5220000000 cycles: 3261696195 heartbeat IPC: 1.60884 cumulative IPC: 1.56741 (Simulation time: 11 hr 1 min 31 sec) 
Heartbeat CPU 2 instructions: 1790000001 cycles: 3262228423 heartbeat IPC: 0.462434 cumulative IPC: 0.479862 (Simulation time: 11 hr 1 min 37 sec) 
Heartbeat CPU 0 instructions: 3390000000 cycles: 3263615511 heartbeat IPC: 0.977743 cumulative IPC: 1.00102 (Simulation time: 11 hr 1 min 51 sec) 
Heartbeat CPU 3 instructions: 5230000000 cycles: 3267879302 heartbeat IPC: 1.61731 cumulative IPC: 1.56751 (Simulation time: 11 hr 2 min 36 sec) 
Heartbeat CPU 0 instructions: 3400000000 cycles: 3273852393 heartbeat IPC: 0.97686 cumulative IPC: 1.00094 (Simulation time: 11 hr 3 min 38 sec) 
Heartbeat CPU 3 instructions: 5240000000 cycles: 3274116922 heartbeat IPC: 1.60318 cumulative IPC: 1.56758 (Simulation time: 11 hr 3 min 41 sec) 
Heartbeat CPU 3 instructions: 5250000000 cycles: 3280917276 heartbeat IPC: 1.47051 cumulative IPC: 1.56737 (Simulation time: 11 hr 4 min 49 sec) 
Heartbeat CPU 1 instructions: 1200000000 cycles: 3281125088 heartbeat IPC: 0.136934 cumulative IPC: 0.317844 (Simulation time: 11 hr 4 min 51 sec) 
Finished CPU 1 instructions: 1000000000 cycles: 3146198866 cumulative IPC: 0.317844 (Simulation time: 11 hr 4 min 51 sec) 

CPU 0 Branch Prediction Accuracy: 96.2077% MPKI: 0.314275

CPU 1 Branch Prediction Accuracy: 98.5984% MPKI: 1.4041

CPU 2 Branch Prediction Accuracy: 97.1007% MPKI: 0.490979

CPU 3 Branch Prediction Accuracy: 96.9686% MPKI: 4.08709

ChampSim completed all CPUs

Total Simulation Statistics (not including warmup)

CPU 0 cumulative IPC: 1.00089 instructions: 3149003919 cycles: 3146198866
L1D TOTAL     ACCESS: 1074804283  HIT:  962959305  MISS:  111844978
L1D LOAD      ACCESS:  562561354  HIT:  500046402  MISS:   62514952
L1D RFO       ACCESS:  512242929  HIT:  462912903  MISS:   49330026
L1D PREFETCH  ACCESS:          0  HIT:          0  MISS:          0
L1D WRITEBACK ACCESS:          0  HIT:          0  MISS:          0
L1I TOTAL     ACCESS:  762168662  HIT:  762168662  MISS:          0
L1I LOAD      ACCESS:  762168662  HIT:  762168662  MISS:          0
L1I RFO       ACCESS:          0  HIT:          0  MISS:          0
L1I PREFETCH  ACCESS:          0  HIT:          0  MISS:          0
L1I WRITEBACK ACCESS:          0  HIT:          0  MISS:          0
L2C TOTAL     ACCESS:  179173432  HIT:  130849213  MISS:   48324219
L2C LOAD      ACCESS:   62486826  HIT:   55860359  MISS:    6626467
L2C RFO       ACCESS:   44071650  HIT:   25322949  MISS:   18748701
L2C PREFETCH  ACCESS:   22926403  HIT:          0  MISS:   22926403
L2C WRITEBACK ACCESS:   49688553  HIT:   49665905  MISS:      22648

L2C DA-AMPM prefetcher final stats
LLC TOTAL     ACCESS:   67081003  HIT:   24156783  MISS:   42924220
LLC LOAD      ACCESS:    6584488  HIT:    5381859  MISS:    1202629
LLC RFO       ACCESS:   18748687  HIT:          4  MISS:   18748683
LLC PREFETCH  ACCESS:   22968378  HIT:          0  MISS:   22968378
LLC WRITEBACK ACCESS:   18779450  HIT:   18774920  MISS:       4530

CPU 1 cumulative IPC: 0.317844 instructions: 1000000000 cycles: 3146198866
L1D TOTAL     ACCESS:  494122681  HIT:  465252410  MISS:   28870271
L1D LOAD      ACCESS:  219214153  HIT:  192856404  MISS:   26357749
L1D RFO       ACCESS:  274908528  HIT:  272396006  MISS:    2512522
L1D PREFETCH  ACCESS:          0  HIT:          0  MISS:          0
L1D WRITEBACK ACCESS:          0  HIT:          0  MISS:          0
L1I TOTAL     ACCESS:  323267593  HIT:  323267593  MISS:          0
L1I LOAD      ACCESS:  323267593  HIT:  323267593  MISS:          0
L1I RFO       ACCESS:          0  HIT:          0  MISS:          0
L1I PREFETCH  ACCESS:          0  HIT:          0  MISS:          0
L1I WRITEBACK ACCESS:          0  HIT:          0  MISS:          0
L2C TOTAL     ACCESS:   59867462  HIT:   22201454  MISS:   37666008
L2C LOAD      ACCESS:   26357551  HIT:   15462479  MISS:   10895072
L2C RFO       ACCESS:    2512420  HIT:     241072  MISS:    2271348
L2C PREFETCH  ACCESS:   24513954  HIT:      48500  MISS:   24465454
L2C WRITEBACK ACCESS:    6483537  HIT:    6449403  MISS:      34134

L2C DA-AMPM prefetcher final stats
LLC TOTAL     ACCESS:   43469496  HIT:    6011816  MISS:   37457680
LLC LOAD      ACCESS:    7656531  HIT:     174443  MISS:    7482088
LLC RFO       ACCESS:    2257219  HIT:       9571  MISS:    2247648
LLC PREFETCH  ACCESS:   27718117  HIT:       3098  MISS:   27715019
LLC WRITEBACK ACCESS:    5837629  HIT:    5824704  MISS:      12925

CPU 2 cumulative IPC: 0.479799 instructions: 1509542394 cycles: 3146198867
L1D TOTAL     ACCESS:  428696243  HIT:  310282362  MISS:  118413881
L1D LOAD      ACCESS:  152948984  HIT:  134993665  MISS:   17955319
L1D RFO       ACCESS:  275747259  HIT:  175288697  MISS:  100458562
L1D PREFETCH  ACCESS:          0  HIT:          0  MISS:          0
L1D WRITEBACK ACCESS:          0  HIT:          0  MISS:          0
L1I TOTAL     ACCESS:  362086493  HIT:  362086493  MISS:          0
L1I LOAD      ACCESS:  362086493  HIT:  362086493  MISS:          0
L1I RFO       ACCESS:          0  HIT:          0  MISS:          0
L1I PREFETCH  ACCESS:          0  HIT:          0  MISS:          0
L1I WRITEBACK ACCESS:          0  HIT:          0  MISS:          0
L2C TOTAL     ACCESS:  233620624  HIT:  144803987  MISS:   88816637
L2C LOAD      ACCESS:   17955319  HIT:   14656886  MISS:    3298433
L2C RFO       ACCESS:  100458443  HIT:   29613350  MISS:   70845093
L2C PREFETCH  ACCESS:   14748294  HIT:     101890  MISS:   14646404
L2C WRITEBACK ACCESS:  100458568  HIT:  100431861  MISS:      26707

L2C DA-AMPM prefetcher final stats
LLC TOTAL     ACCESS:  159619919  HIT:   87891863  MISS:   71728056
LLC LOAD      ACCESS:    2536189  HIT:      13803  MISS:    2522386
LLC RFO       ACCESS:   70804582  HIT:   17012664  MISS:   53791918
LLC PREFETCH  ACCESS:   15408648  HIT:          0  MISS:   15408648
LLC WRITEBACK ACCESS:   70870500  HIT:   70865396  MISS:       5104

CPU 3 cumulative IPC: 1.56737 instructions: 4931262340 cycles: 3146198867
L1D TOTAL     ACCESS: 1324103101  HIT: 1324103091  MISS:         10
L1D LOAD      ACCESS:  571947188  HIT:  571947184  MISS:          4
L1D RFO       ACCESS:  752155913  HIT:  752155907  MISS:          6
L1D PREFETCH  ACCESS:          0  HIT:          0  MISS:          0
L1D WRITEBACK ACCESS:          0  HIT:          0  MISS:          0
L1I TOTAL     ACCESS: 1085366448  HIT: 1085185625  MISS:     180823
L1I LOAD      ACCESS: 1085366448  HIT: 1085185625  MISS:     180823
L1I RFO       ACCESS:          0  HIT:          0  MISS:          0
L1I PREFETCH  ACCESS:          0  HIT:          0  MISS:          0
L1I WRITEBACK ACCESS:          0  HIT:          0  MISS:          0
L2C TOTAL     ACCESS:     180842  HIT:     180839  MISS:          3
L2C LOAD      ACCESS:     180827  HIT:     180827  MISS:          0
L2C RFO       ACCESS:          6  HIT:          6  MISS:          0
L2C PREFETCH  ACCESS:          3  HIT:          0  MISS:          3
L2C WRITEBACK ACCESS:          6  HIT:          6  MISS:          0

L2C DA-AMPM prefetcher final stats
LLC TOTAL     ACCESS:          3  HIT:          0  MISS:          3
LLC LOAD      ACCESS:          0  HIT:          0  MISS:          0
LLC RFO       ACCESS:          0  HIT:          0  MISS:          0
LLC PREFETCH  ACCESS:          3  HIT:          0  MISS:          3
LLC WRITEBACK ACCESS:          0  HIT:          0  MISS:          0

Region of Interest Statistics

CPU 0 cumulative IPC: 1.00777 instructions: 1000000000 cycles: 992293213
L1D TOTAL     ACCESS:  341503430  HIT:  305842826  MISS:   35660604
L1D LOAD      ACCESS:  178681012  HIT:  158763680  MISS:   19917332
L1D RFO       ACCESS:  162822418  HIT:  147079146  MISS:   15743272
L1D PREFETCH  ACCESS:          0  HIT:          0  MISS:          0
L1D WRITEBACK ACCESS:          0  HIT:          0  MISS:          0
L1D PREFETCH  REQUESTED:          0  ISSUED:          0  USEFUL:          0  USELESS:          0
L1I TOTAL     ACCESS:  242877883  HIT:  242877883  MISS:          0
L1I LOAD      ACCESS:  242877883  HIT:  242877883  MISS:          0
L1I RFO       ACCESS:          0  HIT:          0  MISS:          0
L1I PREFETCH  ACCESS:          0  HIT:          0  MISS:          0
L1I WRITEBACK ACCESS:          0  HIT:          0  MISS:          0
L1I PREFETCH  REQUESTED:          0  ISSUED:          0  USEFUL:          0  USELESS:          0
L2C TOTAL     ACCESS:   57107713  HIT:   41761940  MISS:   15345773
L2C LOAD      ACCESS:   19908331  HIT:   17803681  MISS:    2104650
L2C RFO       ACCESS:   14061427  HIT:    8107580  MISS:    5953847
L2C PREFETCH  ACCESS:    7280138  HIT:          0  MISS:    7280138
L2C WRITEBACK ACCESS:   15857817  HIT:   15850679  MISS:       7138
L2C PREFETCH  REQUESTED:   24851077  ISSUED:   24851077  USEFUL:   24790410  USELESS:      18544
LLC TOTAL     ACCESS:   21302167  HIT:    7671862  MISS:   13630305
LLC LOAD      ACCESS:    2092107  HIT:    1709729  MISS:     382378
LLC RFO       ACCESS:    5953842  HIT:          0  MISS:    5953842
LLC PREFETCH  ACCESS:    7292681  HIT:          0  MISS:    7292681
LLC WRITEBACK ACCESS:    5963537  HIT:    5962133  MISS:       1404
LLC PREFETCH  REQUESTED:          0  ISSUED:          0  USEFUL:    5565878  USELESS:   69835746
Major fault: 0 Minor fault: 374239

CPU 1 cumulative IPC: 0.317844 instructions: 1000000000 cycles: 3146198866
L1D TOTAL     ACCESS:  494122681  HIT:  465252410  MISS:   28870271
L1D LOAD      ACCESS:  219214153  HIT:  192856404  MISS:   26357749
L1D RFO       ACCESS:  274908528  HIT:  272396006  MISS:    2512522
L1D PREFETCH  ACCESS:          0  HIT:          0  MISS:          0
L1D WRITEBACK ACCESS:          0  HIT:          0  MISS:          0
L1D PREFETCH  REQUESTED:          0  ISSUED:          0  USEFUL:          0  USELESS:          0
L1I TOTAL     ACCESS:  323267593  HIT:  323267593  MISS:          0
L1I LOAD      ACCESS:  323267593  HIT:  323267593  MISS:          0
L1I RFO       ACCESS:          0  HIT:          0  MISS:          0
L1I PREFETCH  ACCESS:          0  HIT:          0  MISS:          0
L1I WRITEBACK ACCESS:          0  HIT:          0  MISS:          0
L1I PREFETCH  REQUESTED:          0  ISSUED:          0  USEFUL:          0  USELESS:          0
L2C TOTAL     ACCESS:   59867462  HIT:   22201454  MISS:   37666008
L2C LOAD      ACCESS:   26357551  HIT:   15462479  MISS:   10895072
L2C RFO       ACCESS:    2512420  HIT:     241072  MISS:    2271348
L2C PREFETCH  ACCESS:   24513954  HIT:      48500  MISS:   24465454
L2C WRITEBACK ACCESS:    6483537  HIT:    6449403  MISS:      34134
L2C PREFETCH  REQUESTED:   33466227  ISSUED:   33466227  USEFUL:   18162115  USELESS:   11463211
LLC TOTAL     ACCESS:   43469496  HIT:    6011816  MISS:   37457680
LLC LOAD      ACCESS:    7656531  HIT:     174443  MISS:    7482088
LLC RFO       ACCESS:    2257219  HIT:       9571  MISS:    2247648
LLC PREFETCH  ACCESS:   27718117  HIT:       3098  MISS:   27715019
LLC WRITEBACK ACCESS:    5837629  HIT:    5824704  MISS:      12925
LLC PREFETCH  REQUESTED:          0  ISSUED:          0  USEFUL:    5565878  USELESS:   69835746
Major fault: 0 Minor fault: 273262

CPU 2 cumulative IPC: 0.480932 instructions: 1000000000 cycles: 2079294180
L1D TOTAL     ACCESS:  283994047  HIT:  205549333  MISS:   78444714
L1D LOAD      ACCESS:  101321140  HIT:   89426383  MISS:   11894757
L1D RFO       ACCESS:  182672907  HIT:  116122950  MISS:   66549957
L1D PREFETCH  ACCESS:          0  HIT:          0  MISS:          0
L1D WRITEBACK ACCESS:          0  HIT:          0  MISS:          0
L1D PREFETCH  REQUESTED:          0  ISSUED:          0  USEFUL:          0  USELESS:          0
L1I TOTAL     ACCESS:  239864913  HIT:  239864913  MISS:          0
L1I LOAD      ACCESS:  239864913  HIT:  239864913  MISS:          0
L1I RFO       ACCESS:          0  HIT:          0  MISS:          0
L1I PREFETCH  ACCESS:          0  HIT:          0  MISS:          0
L1I WRITEBACK ACCESS:          0  HIT:          0  MISS:          0
L1I PREFETCH  REQUESTED:          0  ISSUED:          0  USEFUL:          0  USELESS:          0
L2C TOTAL     ACCESS:  154770105  HIT:   95881440  MISS:   58888665
L2C LOAD      ACCESS:   11894757  HIT:    9715054  MISS:    2179703
L2C RFO       ACCESS:   66549882  HIT:   19566594  MISS:   46983288
L2C PREFETCH  ACCESS:    9775509  HIT:      67552  MISS:    9707957
L2C WRITEBACK ACCESS:   66549957  HIT:   66532240  MISS:      17717
L2C PREFETCH  REQUESTED:   18473001  ISSUED:   18473001  USEFUL:   17005557  USELESS:         69
LLC TOTAL     ACCESS:  105844755  HIT:   58327838  MISS:   47516917
LLC LOAD      ACCESS:    1680748  HIT:       9057  MISS:    1671691
LLC RFO       ACCESS:   46956766  HIT:   11321769  MISS:   35634997
LLC PREFETCH  ACCESS:   10206912  HIT:          0  MISS:   10206912
LLC WRITEBACK ACCESS:   47000329  HIT:   46997012  MISS:       3317
LLC PREFETCH  REQUESTED:          0  ISSUED:          0  USEFUL:    5565878  USELESS:   69835746
Major fault: 0 Minor fault: 647128

CPU 3 cumulative IPC: 1.56285 instructions: 1000000003 cycles: 639857387
L1D TOTAL     ACCESS:  268220952  HIT:  268220952  MISS:          0
L1D LOAD      ACCESS:  115739260  HIT:  115739260  MISS:          0
L1D RFO       ACCESS:  152481692  HIT:  152481692  MISS:          0
L1D PREFETCH  ACCESS:          0  HIT:          0  MISS:          0
L1D WRITEBACK ACCESS:          0  HIT:          0  MISS:          0
L1D PREFETCH  REQUESTED:          0  ISSUED:          0  USEFUL:          0  USELESS:          0
L1I TOTAL     ACCESS:  220458911  HIT:  220421683  MISS:      37228
L1I LOAD      ACCESS:  220458911  HIT:  220421683  MISS:      37228
L1I RFO       ACCESS:          0  HIT:          0  MISS:          0
L1I PREFETCH  ACCESS:          0  HIT:          0  MISS:          0
L1I WRITEBACK ACCESS:          0  HIT:          0  MISS:          0
L1I PREFETCH  REQUESTED:          0  ISSUED:          0  USEFUL:          0  USELESS:          0
L2C TOTAL     ACCESS:      37231  HIT:      37228  MISS:          3
L2C LOAD      ACCESS:      37228  HIT:      37228  MISS:          0
L2C RFO       ACCESS:          0  HIT:          0  MISS:          0
L2C PREFETCH  ACCESS:          3  HIT:          0  MISS:          3
L2C WRITEBACK ACCESS:          0  HIT:          0  MISS:          0
L2C PREFETCH  REQUESTED:       1450  ISSUED:       1450  USEFUL:       1066  USELESS:          0
LLC TOTAL     ACCESS:          3  HIT:          0  MISS:          3
LLC LOAD      ACCESS:          0  HIT:          0  MISS:          0
LLC RFO       ACCESS:          0  HIT:          0  MISS:          0
LLC PREFETCH  ACCESS:          3  HIT:          0  MISS:          3
LLC WRITEBACK ACCESS:          0  HIT:          0  MISS:          0
LLC PREFETCH  REQUESTED:          0  ISSUED:          0  USEFUL:    5565878  USELESS:   69835746
Major fault: 0 Minor fault: 50

L2C DA-AMPM prefetcher final stats

L2C DA-AMPM prefetcher final stats

L2C DA-AMPM prefetcher final stats

L2C DA-AMPM prefetcher final stats

DRAM Statistics
 CHANNEL 0
 RQ ROW_BUFFER_HIT:   27425380  ROW_BUFFER_MISS:   48642905
 DBUS_CONGESTED:  171913638
 WQ ROW_BUFFER_HIT:    4627827  ROW_BUFFER_MISS:   34531312  FULL:          0

 CHANNEL 1
 RQ ROW_BUFFER_HIT:   27409989  ROW_BUFFER_MISS:   48609101
 DBUS_CONGESTED:  171913638
 WQ ROW_BUFFER_HIT:    4649860  ROW_BUFFER_MISS:   34497366  FULL:          0

 AVG_CONGESTED_CYCLE: 14
