
*** ChampSim Multicore Out-of-Order Simulator ***

Warmup Instructions: 200000000
Simulation Instructions: 1000000000
Number of CPUs: 4
LLC sets: 8192
LLC ways: 16
Off-chip DRAM Size: 8192 MB Channels: 2 Width: 64-bit Data Rate: 1600 MT/s

CPU 0 runs /scratch/user/djimenez/champsim-traces/speccpu2017/xz/644.nab_s/644.nab_s-9322B.champsimtrace.xz
CPU 1 runs /scratch/user/djimenez/champsim-traces/speccpu2017/xz/641.leela_s/641.leela_s-602B.champsimtrace.xz
CPU 2 runs /scratch/user/djimenez/champsim-traces/speccpu2017/xz/623.xalancbmk_s/623.xalancbmk_s-700B.champsimtrace.xz
CPU 3 runs /scratch/user/djimenez/champsim-traces/speccpu2017/xz/619.lbm_s/619.lbm_s-4268B.champsimtrace.xz
L2C DA-AMPM prefetcher
L2C DA-AMPM prefetcher
L2C DA-AMPM prefetcher
L2C DA-AMPM prefetcher
Heartbeat CPU 3 instructions: 10000001 cycles: 4901546 heartbeat IPC: 2.04017 cumulative IPC: 2.04017 (Simulation time: 0 hr 1 min 30 sec) 
Heartbeat CPU 0 instructions: 10000001 cycles: 5496349 heartbeat IPC: 1.81939 cumulative IPC: 1.81939 (Simulation time: 0 hr 1 min 41 sec) 
Heartbeat CPU 2 instructions: 10000001 cycles: 5962123 heartbeat IPC: 1.67726 cumulative IPC: 1.67726 (Simulation time: 0 hr 1 min 50 sec) 
Heartbeat CPU 1 instructions: 10000000 cycles: 6397140 heartbeat IPC: 1.5632 cumulative IPC: 1.5632 (Simulation time: 0 hr 1 min 58 sec) 
Heartbeat CPU 3 instructions: 20000000 cycles: 9796471 heartbeat IPC: 2.04293 cumulative IPC: 2.04155 (Simulation time: 0 hr 3 min 3 sec) 
Heartbeat CPU 2 instructions: 20000000 cycles: 10833015 heartbeat IPC: 2.05301 cumulative IPC: 1.84621 (Simulation time: 0 hr 3 min 23 sec) 
Heartbeat CPU 0 instructions: 20000000 cycles: 10992361 heartbeat IPC: 1.8195 cumulative IPC: 1.81945 (Simulation time: 0 hr 3 min 26 sec) 
Heartbeat CPU 1 instructions: 20000000 cycles: 12730439 heartbeat IPC: 1.57896 cumulative IPC: 1.57104 (Simulation time: 0 hr 3 min 59 sec) 
Heartbeat CPU 3 instructions: 30000000 cycles: 14679445 heartbeat IPC: 2.04793 cumulative IPC: 2.04367 (Simulation time: 0 hr 4 min 35 sec) 
Heartbeat CPU 0 instructions: 30000003 cycles: 16489659 heartbeat IPC: 1.81908 cumulative IPC: 1.81932 (Simulation time: 0 hr 5 min 9 sec) 
Heartbeat CPU 2 instructions: 30000001 cycles: 16899209 heartbeat IPC: 1.64848 cumulative IPC: 1.77523 (Simulation time: 0 hr 5 min 16 sec) 
Heartbeat CPU 1 instructions: 30000000 cycles: 19016070 heartbeat IPC: 1.59093 cumulative IPC: 1.57761 (Simulation time: 0 hr 5 min 56 sec) 
Heartbeat CPU 3 instructions: 40000000 cycles: 19587751 heartbeat IPC: 2.03736 cumulative IPC: 2.04209 (Simulation time: 0 hr 6 min 6 sec) 
Heartbeat CPU 0 instructions: 40000000 cycles: 21982137 heartbeat IPC: 1.82067 cumulative IPC: 1.81966 (Simulation time: 0 hr 6 min 51 sec) 
Heartbeat CPU 2 instructions: 40000000 cycles: 23184710 heartbeat IPC: 1.59096 cumulative IPC: 1.72527 (Simulation time: 0 hr 7 min 13 sec) 
Heartbeat CPU 3 instructions: 50000001 cycles: 24502819 heartbeat IPC: 2.03456 cumulative IPC: 2.04058 (Simulation time: 0 hr 7 min 37 sec) 
Heartbeat CPU 1 instructions: 40000000 cycles: 25308028 heartbeat IPC: 1.58933 cumulative IPC: 1.58053 (Simulation time: 0 hr 7 min 52 sec) 
Heartbeat CPU 0 instructions: 50000002 cycles: 27473109 heartbeat IPC: 1.82117 cumulative IPC: 1.81996 (Simulation time: 0 hr 8 min 32 sec) 
Heartbeat CPU 2 instructions: 50000001 cycles: 29337668 heartbeat IPC: 1.62523 cumulative IPC: 1.70429 (Simulation time: 0 hr 9 min 6 sec) 
Heartbeat CPU 3 instructions: 60000000 cycles: 29437365 heartbeat IPC: 2.02653 cumulative IPC: 2.03823 (Simulation time: 0 hr 9 min 8 sec) 
Heartbeat CPU 1 instructions: 50000000 cycles: 31596835 heartbeat IPC: 1.59013 cumulative IPC: 1.58244 (Simulation time: 0 hr 9 min 48 sec) 
Heartbeat CPU 0 instructions: 60000000 cycles: 32963910 heartbeat IPC: 1.82123 cumulative IPC: 1.82017 (Simulation time: 0 hr 10 min 16 sec) 
Heartbeat CPU 3 instructions: 70000003 cycles: 34361017 heartbeat IPC: 2.03101 cumulative IPC: 2.03719 (Simulation time: 0 hr 10 min 42 sec) 
Heartbeat CPU 2 instructions: 60000000 cycles: 34456402 heartbeat IPC: 1.95361 cumulative IPC: 1.74133 (Simulation time: 0 hr 10 min 44 sec) 
Heartbeat CPU 1 instructions: 60000000 cycles: 37866225 heartbeat IPC: 1.59505 cumulative IPC: 1.58453 (Simulation time: 0 hr 11 min 50 sec) 
Heartbeat CPU 0 instructions: 70000000 cycles: 38455341 heartbeat IPC: 1.82102 cumulative IPC: 1.82029 (Simulation time: 0 hr 12 min 1 sec) 
Heartbeat CPU 3 instructions: 80000000 cycles: 39259817 heartbeat IPC: 2.04132 cumulative IPC: 2.03771 (Simulation time: 0 hr 12 min 16 sec) 
Heartbeat CPU 2 instructions: 70000001 cycles: 39398543 heartbeat IPC: 2.02341 cumulative IPC: 1.77672 (Simulation time: 0 hr 12 min 19 sec) 
Heartbeat CPU 0 instructions: 80000000 cycles: 43943344 heartbeat IPC: 1.82216 cumulative IPC: 1.82053 (Simulation time: 0 hr 13 min 44 sec) 
Heartbeat CPU 1 instructions: 70000001 cycles: 44115448 heartbeat IPC: 1.6002 cumulative IPC: 1.58675 (Simulation time: 0 hr 13 min 47 sec) 
Heartbeat CPU 3 instructions: 90000000 cycles: 44176206 heartbeat IPC: 2.03401 cumulative IPC: 2.0373 (Simulation time: 0 hr 13 min 48 sec) 
Heartbeat CPU 2 instructions: 80000000 cycles: 45568959 heartbeat IPC: 1.62064 cumulative IPC: 1.75558 (Simulation time: 0 hr 14 min 14 sec) 
Heartbeat CPU 3 instructions: 100000000 cycles: 49074241 heartbeat IPC: 2.04164 cumulative IPC: 2.03773 (Simulation time: 0 hr 15 min 20 sec) 
Heartbeat CPU 0 instructions: 90000003 cycles: 49436092 heartbeat IPC: 1.82058 cumulative IPC: 1.82053 (Simulation time: 0 hr 15 min 26 sec) 
Heartbeat CPU 1 instructions: 80000000 cycles: 50343016 heartbeat IPC: 1.60576 cumulative IPC: 1.5891 (Simulation time: 0 hr 15 min 44 sec) 
Heartbeat CPU 2 instructions: 90000001 cycles: 51443218 heartbeat IPC: 1.70234 cumulative IPC: 1.7495 (Simulation time: 0 hr 16 min 5 sec) 
Heartbeat CPU 3 instructions: 110000002 cycles: 53991272 heartbeat IPC: 2.03375 cumulative IPC: 2.03737 (Simulation time: 0 hr 16 min 52 sec) 
Heartbeat CPU 0 instructions: 100000000 cycles: 54931189 heartbeat IPC: 1.8198 cumulative IPC: 1.82046 (Simulation time: 0 hr 17 min 10 sec) 
Heartbeat CPU 1 instructions: 90000000 cycles: 56596568 heartbeat IPC: 1.59909 cumulative IPC: 1.5902 (Simulation time: 0 hr 17 min 41 sec) 
Heartbeat CPU 2 instructions: 100000000 cycles: 57721545 heartbeat IPC: 1.59278 cumulative IPC: 1.73246 (Simulation time: 0 hr 18 min 2 sec) 
Heartbeat CPU 3 instructions: 120000000 cycles: 58924712 heartbeat IPC: 2.02698 cumulative IPC: 2.0365 (Simulation time: 0 hr 18 min 24 sec) 
Heartbeat CPU 0 instructions: 110000002 cycles: 60418716 heartbeat IPC: 1.82231 cumulative IPC: 1.82063 (Simulation time: 0 hr 18 min 52 sec) 
Heartbeat CPU 1 instructions: 100000000 cycles: 62929455 heartbeat IPC: 1.57906 cumulative IPC: 1.58908 (Simulation time: 0 hr 19 min 38 sec) 
Heartbeat CPU 3 instructions: 130000003 cycles: 63823457 heartbeat IPC: 2.04134 cumulative IPC: 2.03687 (Simulation time: 0 hr 19 min 54 sec) 
Heartbeat CPU 2 instructions: 110000002 cycles: 64062024 heartbeat IPC: 1.57717 cumulative IPC: 1.71709 (Simulation time: 0 hr 19 min 59 sec) 
Heartbeat CPU 0 instructions: 120000000 cycles: 65910537 heartbeat IPC: 1.82089 cumulative IPC: 1.82065 (Simulation time: 0 hr 20 min 33 sec) 
Heartbeat CPU 3 instructions: 140000000 cycles: 68732289 heartbeat IPC: 2.03714 cumulative IPC: 2.03689 (Simulation time: 0 hr 21 min 25 sec) 
Heartbeat CPU 1 instructions: 110000003 cycles: 69289189 heartbeat IPC: 1.57239 cumulative IPC: 1.58755 (Simulation time: 0 hr 21 min 35 sec) 
Heartbeat CPU 2 instructions: 120000000 cycles: 70228164 heartbeat IPC: 1.62176 cumulative IPC: 1.70872 (Simulation time: 0 hr 21 min 52 sec) 
Heartbeat CPU 0 instructions: 130000001 cycles: 71398804 heartbeat IPC: 1.82207 cumulative IPC: 1.82076 (Simulation time: 0 hr 22 min 14 sec) 
Heartbeat CPU 3 instructions: 150000000 cycles: 73662268 heartbeat IPC: 2.02841 cumulative IPC: 2.03632 (Simulation time: 0 hr 22 min 56 sec) 
Heartbeat CPU 2 instructions: 130000001 cycles: 75496953 heartbeat IPC: 1.89797 cumulative IPC: 1.72192 (Simulation time: 0 hr 23 min 33 sec) 
Heartbeat CPU 1 instructions: 120000000 cycles: 75654638 heartbeat IPC: 1.57098 cumulative IPC: 1.58616 (Simulation time: 0 hr 23 min 37 sec) 
Heartbeat CPU 0 instructions: 140000000 cycles: 76887888 heartbeat IPC: 1.8218 cumulative IPC: 1.82083 (Simulation time: 0 hr 24 min 2 sec) 
Heartbeat CPU 3 instructions: 160000000 cycles: 78605632 heartbeat IPC: 2.02291 cumulative IPC: 2.03548 (Simulation time: 0 hr 24 min 37 sec) 
Heartbeat CPU 2 instructions: 140000000 cycles: 80437266 heartbeat IPC: 2.02416 cumulative IPC: 1.74049 (Simulation time: 0 hr 25 min 15 sec) 
Heartbeat CPU 1 instructions: 130000002 cycles: 81923099 heartbeat IPC: 1.59529 cumulative IPC: 1.58685 (Simulation time: 0 hr 25 min 44 sec) 
Heartbeat CPU 0 instructions: 150000000 cycles: 82386296 heartbeat IPC: 1.81871 cumulative IPC: 1.82069 (Simulation time: 0 hr 25 min 54 sec) 
Heartbeat CPU 3 instructions: 170000000 cycles: 83539402 heartbeat IPC: 2.02685 cumulative IPC: 2.03497 (Simulation time: 0 hr 26 min 16 sec) 
Heartbeat CPU 2 instructions: 150000001 cycles: 86788317 heartbeat IPC: 1.57454 cumulative IPC: 1.72834 (Simulation time: 0 hr 27 min 20 sec) 
Heartbeat CPU 0 instructions: 160000000 cycles: 87877743 heartbeat IPC: 1.82101 cumulative IPC: 1.82071 (Simulation time: 0 hr 27 min 42 sec) 
Heartbeat CPU 1 instructions: 140000000 cycles: 88182024 heartbeat IPC: 1.59772 cumulative IPC: 1.58763 (Simulation time: 0 hr 27 min 48 sec) 
Heartbeat CPU 3 instructions: 180000000 cycles: 88467637 heartbeat IPC: 2.02912 cumulative IPC: 2.03464 (Simulation time: 0 hr 27 min 54 sec) 
Heartbeat CPU 2 instructions: 160000000 cycles: 92288681 heartbeat IPC: 1.81806 cumulative IPC: 1.73369 (Simulation time: 0 hr 29 min 12 sec) 
Heartbeat CPU 0 instructions: 170000002 cycles: 93371697 heartbeat IPC: 1.82018 cumulative IPC: 1.82068 (Simulation time: 0 hr 29 min 33 sec) 
Heartbeat CPU 3 instructions: 190000001 cycles: 93405476 heartbeat IPC: 2.02518 cumulative IPC: 2.03414 (Simulation time: 0 hr 29 min 34 sec) 
Heartbeat CPU 1 instructions: 150000001 cycles: 94453148 heartbeat IPC: 1.59461 cumulative IPC: 1.58809 (Simulation time: 0 hr 29 min 54 sec) 
Heartbeat CPU 3 instructions: 200000000 cycles: 98333767 heartbeat IPC: 2.0291 cumulative IPC: 2.03389 (Simulation time: 0 hr 31 min 12 sec) 
Heartbeat CPU 2 instructions: 170000000 cycles: 98411691 heartbeat IPC: 1.63318 cumulative IPC: 1.72744 (Simulation time: 0 hr 31 min 14 sec) 
Heartbeat CPU 0 instructions: 180000000 cycles: 98867590 heartbeat IPC: 1.81954 cumulative IPC: 1.82062 (Simulation time: 0 hr 31 min 23 sec) 
Heartbeat CPU 1 instructions: 160000000 cycles: 100770345 heartbeat IPC: 1.58298 cumulative IPC: 1.58777 (Simulation time: 0 hr 32 min 0 sec) 
Heartbeat CPU 3 instructions: 210000001 cycles: 103287149 heartbeat IPC: 2.01882 cumulative IPC: 0.0968175 (Simulation time: 0 hr 32 min 50 sec) 
Heartbeat CPU 0 instructions: 190000000 cycles: 104361182 heartbeat IPC: 1.8203 cumulative IPC: 1.8206 (Simulation time: 0 hr 33 min 11 sec) 
Heartbeat CPU 2 instructions: 180000000 cycles: 104818393 heartbeat IPC: 1.56087 cumulative IPC: 1.71726 (Simulation time: 0 hr 33 min 20 sec) 
Heartbeat CPU 1 instructions: 170000000 cycles: 107024476 heartbeat IPC: 1.59894 cumulative IPC: 1.58842 (Simulation time: 0 hr 34 min 4 sec) 
Heartbeat CPU 3 instructions: 220000000 cycles: 108237719 heartbeat IPC: 2.01997 cumulative IPC: 0.184778 (Simulation time: 0 hr 34 min 28 sec) 
Heartbeat CPU 0 instructions: 200000000 cycles: 109857904 heartbeat IPC: 1.81927 cumulative IPC: 1.82053 (Simulation time: 0 hr 34 min 59 sec) 
Heartbeat CPU 2 instructions: 190000001 cycles: 111019168 heartbeat IPC: 1.6127 cumulative IPC: 1.71142 (Simulation time: 0 hr 35 min 23 sec) 
Heartbeat CPU 3 instructions: 230000003 cycles: 113172607 heartbeat IPC: 2.02639 cumulative IPC: 0.265082 (Simulation time: 0 hr 36 min 5 sec) 
Heartbeat CPU 1 instructions: 180000000 cycles: 113253662 heartbeat IPC: 1.60535 cumulative IPC: 1.58935 (Simulation time: 0 hr 36 min 7 sec) 
Heartbeat CPU 0 instructions: 210000000 cycles: 115351131 heartbeat IPC: 1.82042 cumulative IPC: 0.0866918 (Simulation time: 0 hr 36 min 48 sec) 
Heartbeat CPU 2 instructions: 200000000 cycles: 116695167 heartbeat IPC: 1.7618 cumulative IPC: 1.71387 (Simulation time: 0 hr 37 min 15 sec) 
Heartbeat CPU 3 instructions: 240000000 cycles: 118114941 heartbeat IPC: 2.02333 cumulative IPC: 0.338653 (Simulation time: 0 hr 37 min 44 sec) 
Heartbeat CPU 0 instructions: 220000000 cycles: 120840928 heartbeat IPC: 1.82156 cumulative IPC: 0.165507 (Simulation time: 0 hr 38 min 41 sec) 
Heartbeat CPU 1 instructions: 190000003 cycles: 121478199 heartbeat IPC: 1.21587 cumulative IPC: 1.56407 (Simulation time: 0 hr 38 min 54 sec) 
Heartbeat CPU 2 instructions: 210000000 cycles: 121565630 heartbeat IPC: 2.05319 cumulative IPC: 0.0822601 (Simulation time: 0 hr 38 min 56 sec) 
Heartbeat CPU 3 instructions: 250000000 cycles: 123023061 heartbeat IPC: 2.03744 cumulative IPC: 0.406428 (Simulation time: 0 hr 39 min 26 sec) 
Heartbeat CPU 0 instructions: 230000002 cycles: 126328907 heartbeat IPC: 1.82216 cumulative IPC: 0.237475 (Simulation time: 0 hr 40 min 32 sec) 
Heartbeat CPU 2 instructions: 220000000 cycles: 127390848 heartbeat IPC: 1.71667 cumulative IPC: 0.156997 (Simulation time: 0 hr 40 min 53 sec) 
Heartbeat CPU 3 instructions: 260000000 cycles: 127937444 heartbeat IPC: 2.03484 cumulative IPC: 0.468979 (Simulation time: 0 hr 41 min 3 sec) 
Heartbeat CPU 1 instructions: 200000000 cycles: 128195538 heartbeat IPC: 1.48868 cumulative IPC: 1.56012 (Simulation time: 0 hr 41 min 8 sec) 

Warmup complete CPU 0 instructions: 233403949 cycles: 128195539 (Simulation time: 0 hr 41 min 8 sec) 
Warmup complete CPU 1 instructions: 200000001 cycles: 128195539 (Simulation time: 0 hr 41 min 8 sec) 
Warmup complete CPU 2 instructions: 221240489 cycles: 128195538 (Simulation time: 0 hr 41 min 8 sec) 
Warmup complete CPU 3 instructions: 260535860 cycles: 128195538 (Simulation time: 0 hr 41 min 8 sec) 

Heartbeat CPU 0 instructions: 240000000 cycles: 139927253 heartbeat IPC: 0.735383 cumulative IPC: 0.562241 (Simulation time: 0 hr 42 min 41 sec) 
Heartbeat CPU 3 instructions: 270000002 cycles: 145662190 heartbeat IPC: 0.564183 cumulative IPC: 0.541841 (Simulation time: 0 hr 43 min 26 sec) 
Heartbeat CPU 1 instructions: 210000003 cycles: 152255457 heartbeat IPC: 0.415629 cumulative IPC: 0.415629 (Simulation time: 0 hr 44 min 18 sec) 
Heartbeat CPU 2 instructions: 230000000 cycles: 154599122 heartbeat IPC: 0.367535 cumulative IPC: 0.331755 (Simulation time: 0 hr 44 min 37 sec) 
Heartbeat CPU 0 instructions: 250000000 cycles: 157832928 heartbeat IPC: 0.558482 cumulative IPC: 0.55997 (Simulation time: 0 hr 45 min 2 sec) 
Heartbeat CPU 3 instructions: 280000000 cycles: 163822795 heartbeat IPC: 0.550642 cumulative IPC: 0.546327 (Simulation time: 0 hr 45 min 50 sec) 
Heartbeat CPU 0 instructions: 260000000 cycles: 175611813 heartbeat IPC: 0.562465 cumulative IPC: 0.560906 (Simulation time: 0 hr 47 min 23 sec) 
Heartbeat CPU 1 instructions: 220000000 cycles: 176120413 heartbeat IPC: 0.419024 cumulative IPC: 0.41732 (Simulation time: 0 hr 47 min 27 sec) 
Heartbeat CPU 3 instructions: 290000001 cycles: 182233545 heartbeat IPC: 0.543161 cumulative IPC: 0.545248 (Simulation time: 0 hr 48 min 16 sec) 
Heartbeat CPU 2 instructions: 240000000 cycles: 182521013 heartbeat IPC: 0.358142 cumulative IPC: 0.345317 (Simulation time: 0 hr 48 min 18 sec) 
Heartbeat CPU 0 instructions: 270000003 cycles: 193453407 heartbeat IPC: 0.560488 cumulative IPC: 0.560791 (Simulation time: 0 hr 49 min 45 sec) 
Heartbeat CPU 1 instructions: 230000000 cycles: 200010412 heartbeat IPC: 0.418585 cumulative IPC: 0.417741 (Simulation time: 0 hr 50 min 37 sec) 
Heartbeat CPU 3 instructions: 300000000 cycles: 200908283 heartbeat IPC: 0.535483 cumulative IPC: 0.54274 (Simulation time: 0 hr 50 min 44 sec) 
Heartbeat CPU 2 instructions: 250000001 cycles: 208825919 heartbeat IPC: 0.380157 cumulative IPC: 0.356683 (Simulation time: 0 hr 51 min 48 sec) 
Heartbeat CPU 0 instructions: 280000000 cycles: 211138445 heartbeat IPC: 0.56545 cumulative IPC: 0.561785 (Simulation time: 0 hr 52 min 7 sec) 
Heartbeat CPU 3 instructions: 310000002 cycles: 219469935 heartbeat IPC: 0.538745 cumulative IPC: 0.541928 (Simulation time: 0 hr 53 min 14 sec) 
Heartbeat CPU 1 instructions: 240000000 cycles: 223791200 heartbeat IPC: 0.420508 cumulative IPC: 0.418429 (Simulation time: 0 hr 53 min 49 sec) 
Heartbeat CPU 0 instructions: 290000002 cycles: 228827693 heartbeat IPC: 0.565315 cumulative IPC: 0.562405 (Simulation time: 0 hr 54 min 30 sec) 
Heartbeat CPU 2 instructions: 260000000 cycles: 232993658 heartbeat IPC: 0.413775 cumulative IPC: 0.369849 (Simulation time: 0 hr 55 min 4 sec) 
Heartbeat CPU 3 instructions: 320000000 cycles: 237813143 heartbeat IPC: 0.545161 cumulative IPC: 0.542469 (Simulation time: 0 hr 55 min 44 sec) 
Heartbeat CPU 0 instructions: 300000000 cycles: 246686737 heartbeat IPC: 0.55994 cumulative IPC: 0.562034 (Simulation time: 0 hr 57 min 0 sec) 
Heartbeat CPU 1 instructions: 250000000 cycles: 247512117 heartbeat IPC: 0.421569 cumulative IPC: 0.419053 (Simulation time: 0 hr 57 min 7 sec) 
Heartbeat CPU 2 instructions: 270000000 cycles: 250176806 heartbeat IPC: 0.581966 cumulative IPC: 0.399729 (Simulation time: 0 hr 57 min 29 sec) 
Heartbeat CPU 3 instructions: 330000003 cycles: 255960856 heartbeat IPC: 0.551034 cumulative IPC: 0.543685 (Simulation time: 0 hr 58 min 18 sec) 
Heartbeat CPU 0 instructions: 310000003 cycles: 264482716 heartbeat IPC: 0.561925 cumulative IPC: 0.56202 (Simulation time: 0 hr 59 min 29 sec) 
Heartbeat CPU 2 instructions: 280000000 cycles: 268756507 heartbeat IPC: 0.538222 cumulative IPC: 0.418036 (Simulation time: 1 hr 0 min 4 sec) 
Heartbeat CPU 1 instructions: 260000000 cycles: 271158521 heartbeat IPC: 0.422897 cumulative IPC: 0.419689 (Simulation time: 1 hr 0 min 23 sec) 
Heartbeat CPU 3 instructions: 340000000 cycles: 273936569 heartbeat IPC: 0.556306 cumulative IPC: 0.545242 (Simulation time: 1 hr 0 min 46 sec) 
Heartbeat CPU 0 instructions: 320000000 cycles: 282337320 heartbeat IPC: 0.560079 cumulative IPC: 0.561795 (Simulation time: 1 hr 1 min 53 sec) 
Heartbeat CPU 2 instructions: 290000000 cycles: 291437605 heartbeat IPC: 0.440896 cumulative IPC: 0.421212 (Simulation time: 1 hr 3 min 4 sec) 
Heartbeat CPU 3 instructions: 350000002 cycles: 291762081 heartbeat IPC: 0.560994 cumulative IPC: 0.546959 (Simulation time: 1 hr 3 min 7 sec) 
Heartbeat CPU 1 instructions: 270000001 cycles: 294904027 heartbeat IPC: 0.421132 cumulative IPC: 0.419895 (Simulation time: 1 hr 3 min 30 sec) 
Heartbeat CPU 0 instructions: 330000001 cycles: 300219700 heartbeat IPC: 0.55921 cumulative IPC: 0.561526 (Simulation time: 1 hr 4 min 11 sec) 
Heartbeat CPU 3 instructions: 360000000 cycles: 309904511 heartbeat IPC: 0.551194 cumulative IPC: 0.547382 (Simulation time: 1 hr 5 min 22 sec) 
Heartbeat CPU 0 instructions: 340000000 cycles: 317978932 heartbeat IPC: 0.563087 cumulative IPC: 0.561672 (Simulation time: 1 hr 6 min 24 sec) 
Heartbeat CPU 1 instructions: 280000000 cycles: 318568913 heartbeat IPC: 0.422567 cumulative IPC: 0.420227 (Simulation time: 1 hr 6 min 28 sec) 
Heartbeat CPU 2 instructions: 300000000 cycles: 325516553 heartbeat IPC: 0.293436 cumulative IPC: 0.399144 (Simulation time: 1 hr 7 min 22 sec) 
Heartbeat CPU 3 instructions: 370000001 cycles: 327716997 heartbeat IPC: 0.561404 cumulative IPC: 0.548633 (Simulation time: 1 hr 7 min 39 sec) 
Heartbeat CPU 0 instructions: 350000003 cycles: 335752834 heartbeat IPC: 0.562623 cumulative IPC: 0.561754 (Simulation time: 1 hr 8 min 42 sec) 
Heartbeat CPU 1 instructions: 290000000 cycles: 342197173 heartbeat IPC: 0.423222 cumulative IPC: 0.420558 (Simulation time: 1 hr 9 min 32 sec) 
Heartbeat CPU 3 instructions: 380000000 cycles: 345983538 heartbeat IPC: 0.547449 cumulative IPC: 0.548534 (Simulation time: 1 hr 10 min 1 sec) 
Heartbeat CPU 0 instructions: 360000000 cycles: 353594637 heartbeat IPC: 0.560481 cumulative IPC: 0.561653 (Simulation time: 1 hr 11 min 1 sec) 
Heartbeat CPU 2 instructions: 310000001 cycles: 355321595 heartbeat IPC: 0.335514 cumulative IPC: 0.390794 (Simulation time: 1 hr 11 min 14 sec) 
Heartbeat CPU 3 instructions: 390000000 cycles: 363989229 heartbeat IPC: 0.55538 cumulative IPC: 0.549057 (Simulation time: 1 hr 12 min 24 sec) 
Heartbeat CPU 1 instructions: 300000000 cycles: 365910445 heartbeat IPC: 0.421705 cumulative IPC: 0.420672 (Simulation time: 1 hr 12 min 39 sec) 
Heartbeat CPU 0 instructions: 370000000 cycles: 371321683 heartbeat IPC: 0.56411 cumulative IPC: 0.561832 (Simulation time: 1 hr 13 min 19 sec) 
Heartbeat CPU 3 instructions: 400000000 cycles: 381786512 heartbeat IPC: 0.561884 cumulative IPC: 0.549957 (Simulation time: 1 hr 14 min 39 sec) 
Heartbeat CPU 2 instructions: 320000000 cycles: 385730766 heartbeat IPC: 0.328848 cumulative IPC: 0.38348 (Simulation time: 1 hr 15 min 9 sec) 
Heartbeat CPU 0 instructions: 380000000 cycles: 389182992 heartbeat IPC: 0.559869 cumulative IPC: 0.561698 (Simulation time: 1 hr 15 min 36 sec) 
Heartbeat CPU 1 instructions: 310000000 cycles: 389469847 heartbeat IPC: 0.424459 cumulative IPC: 0.421013 (Simulation time: 1 hr 15 min 38 sec) 
Heartbeat CPU 3 instructions: 410000001 cycles: 400011204 heartbeat IPC: 0.548706 cumulative IPC: 0.549873 (Simulation time: 1 hr 17 min 0 sec) 
Heartbeat CPU 0 instructions: 390000003 cycles: 406982191 heartbeat IPC: 0.561823 cumulative IPC: 0.561706 (Simulation time: 1 hr 17 min 55 sec) 
Heartbeat CPU 1 instructions: 320000000 cycles: 412975773 heartbeat IPC: 0.425425 cumulative IPC: 0.421378 (Simulation time: 1 hr 18 min 42 sec) 
Heartbeat CPU 2 instructions: 330000000 cycles: 416476164 heartbeat IPC: 0.325252 cumulative IPC: 0.37727 (Simulation time: 1 hr 19 min 9 sec) 
Heartbeat CPU 3 instructions: 420000000 cycles: 418273350 heartbeat IPC: 0.547581 cumulative IPC: 0.549729 (Simulation time: 1 hr 19 min 23 sec) 
Heartbeat CPU 0 instructions: 400000000 cycles: 424861501 heartbeat IPC: 0.559306 cumulative IPC: 0.561561 (Simulation time: 1 hr 20 min 14 sec) 
Heartbeat CPU 1 instructions: 330000002 cycles: 436468469 heartbeat IPC: 0.425664 cumulative IPC: 0.421704 (Simulation time: 1 hr 21 min 46 sec) 
Heartbeat CPU 3 instructions: 430000003 cycles: 437316706 heartbeat IPC: 0.525118 cumulative IPC: 0.548213 (Simulation time: 1 hr 21 min 52 sec) 
Heartbeat CPU 0 instructions: 410000000 cycles: 442685010 heartbeat IPC: 0.561057 cumulative IPC: 0.561532 (Simulation time: 1 hr 22 min 34 sec) 
Heartbeat CPU 2 instructions: 340000000 cycles: 444686034 heartbeat IPC: 0.354486 cumulative IPC: 0.375239 (Simulation time: 1 hr 22 min 50 sec) 
Heartbeat CPU 3 instructions: 440000000 cycles: 455961657 heartbeat IPC: 0.536338 cumulative IPC: 0.547537 (Simulation time: 1 hr 24 min 18 sec) 
Heartbeat CPU 1 instructions: 340000000 cycles: 460164735 heartbeat IPC: 0.422007 cumulative IPC: 0.421726 (Simulation time: 1 hr 24 min 52 sec) 
Heartbeat CPU 0 instructions: 420000000 cycles: 460695603 heartbeat IPC: 0.555229 cumulative IPC: 0.561191 (Simulation time: 1 hr 24 min 56 sec) 
Heartbeat CPU 2 instructions: 350000000 cycles: 471214950 heartbeat IPC: 0.376947 cumulative IPC: 0.375371 (Simulation time: 1 hr 26 min 20 sec) 
Heartbeat CPU 3 instructions: 450000002 cycles: 474007835 heartbeat IPC: 0.554134 cumulative IPC: 0.547881 (Simulation time: 1 hr 26 min 42 sec) 
Heartbeat CPU 0 instructions: 430000001 cycles: 478679033 heartbeat IPC: 0.556068 cumulative IPC: 0.560928 (Simulation time: 1 hr 27 min 19 sec) 
Heartbeat CPU 1 instructions: 350000000 cycles: 483685412 heartbeat IPC: 0.425158 cumulative IPC: 0.421953 (Simulation time: 1 hr 27 min 59 sec) 
Heartbeat CPU 3 instructions: 460000000 cycles: 491598187 heartbeat IPC: 0.568493 cumulative IPC: 0.548879 (Simulation time: 1 hr 29 min 3 sec) 
Heartbeat CPU 2 instructions: 360000000 cycles: 496457116 heartbeat IPC: 0.396163 cumulative IPC: 0.376796 (Simulation time: 1 hr 29 min 42 sec) 
Heartbeat CPU 0 instructions: 440000000 cycles: 496644508 heartbeat IPC: 0.556623 cumulative IPC: 0.560718 (Simulation time: 1 hr 29 min 43 sec) 
Heartbeat CPU 1 instructions: 360000000 cycles: 507125431 heartbeat IPC: 0.426621 cumulative IPC: 0.422242 (Simulation time: 1 hr 31 min 8 sec) 
Heartbeat CPU 3 instructions: 470000000 cycles: 509094086 heartbeat IPC: 0.571563 cumulative IPC: 0.549921 (Simulation time: 1 hr 31 min 24 sec) 
Heartbeat CPU 0 instructions: 450000003 cycles: 514601527 heartbeat IPC: 0.556885 cumulative IPC: 0.56054 (Simulation time: 1 hr 32 min 9 sec) 
Heartbeat CPU 2 instructions: 370000000 cycles: 520726721 heartbeat IPC: 0.412038 cumulative IPC: 0.378975 (Simulation time: 1 hr 32 min 58 sec) 
Heartbeat CPU 3 instructions: 480000000 cycles: 526042787 heartbeat IPC: 0.590016 cumulative IPC: 0.551629 (Simulation time: 1 hr 33 min 44 sec) 
Heartbeat CPU 1 instructions: 370000001 cycles: 530801039 heartbeat IPC: 0.422376 cumulative IPC: 0.42225 (Simulation time: 1 hr 34 min 24 sec) 
Heartbeat CPU 0 instructions: 460000000 cycles: 532562483 heartbeat IPC: 0.556763 cumulative IPC: 0.560372 (Simulation time: 1 hr 34 min 40 sec) 
Heartbeat CPU 2 instructions: 380000000 cycles: 537745636 heartbeat IPC: 0.587582 cumulative IPC: 0.387644 (Simulation time: 1 hr 35 min 26 sec) 
Heartbeat CPU 3 instructions: 490000000 cycles: 542140849 heartbeat IPC: 0.621193 cumulative IPC: 0.554334 (Simulation time: 1 hr 36 min 5 sec) 
Heartbeat CPU 0 instructions: 470000000 cycles: 550471438 heartbeat IPC: 0.55838 cumulative IPC: 0.560288 (Simulation time: 1 hr 37 min 18 sec) 
Heartbeat CPU 2 instructions: 390000000 cycles: 554256130 heartbeat IPC: 0.605675 cumulative IPC: 0.396093 (Simulation time: 1 hr 37 min 50 sec) 
Heartbeat CPU 1 instructions: 380000000 cycles: 554404293 heartbeat IPC: 0.42367 cumulative IPC: 0.422328 (Simulation time: 1 hr 37 min 52 sec) 
Heartbeat CPU 3 instructions: 500000000 cycles: 557594297 heartbeat IPC: 0.647105 cumulative IPC: 0.557673 (Simulation time: 1 hr 38 min 19 sec) 
Heartbeat CPU 0 instructions: 480000000 cycles: 568416518 heartbeat IPC: 0.557256 cumulative IPC: 0.560164 (Simulation time: 1 hr 39 min 53 sec) 
Heartbeat CPU 2 instructions: 400000000 cycles: 572361610 heartbeat IPC: 0.552319 cumulative IPC: 0.402461 (Simulation time: 1 hr 40 min 26 sec) 
Heartbeat CPU 3 instructions: 510000000 cycles: 572656353 heartbeat IPC: 0.66392 cumulative IPC: 0.561274 (Simulation time: 1 hr 40 min 29 sec) 
Heartbeat CPU 1 instructions: 390000000 cycles: 577783404 heartbeat IPC: 0.427732 cumulative IPC: 0.422609 (Simulation time: 1 hr 41 min 12 sec) 
Heartbeat CPU 0 instructions: 490000003 cycles: 586340933 heartbeat IPC: 0.557898 cumulative IPC: 0.560076 (Simulation time: 1 hr 42 min 24 sec) 
Heartbeat CPU 3 instructions: 520000000 cycles: 586840489 heartbeat IPC: 0.705013 cumulative IPC: 0.565719 (Simulation time: 1 hr 42 min 28 sec) 
Heartbeat CPU 2 instructions: 410000001 cycles: 593020845 heartbeat IPC: 0.484045 cumulative IPC: 0.406087 (Simulation time: 1 hr 43 min 20 sec) 
Heartbeat CPU 3 instructions: 530000000 cycles: 600400214 heartbeat IPC: 0.737478 cumulative IPC: 0.570651 (Simulation time: 1 hr 44 min 22 sec) 
Heartbeat CPU 1 instructions: 400000000 cycles: 601218875 heartbeat IPC: 0.426704 cumulative IPC: 0.422812 (Simulation time: 1 hr 44 min 28 sec) 
Heartbeat CPU 0 instructions: 500000000 cycles: 604236823 heartbeat IPC: 0.558787 cumulative IPC: 0.560027 (Simulation time: 1 hr 44 min 53 sec) 
Heartbeat CPU 3 instructions: 540000000 cycles: 613763356 heartbeat IPC: 0.748327 cumulative IPC: 0.575541 (Simulation time: 1 hr 46 min 10 sec) 
Heartbeat CPU 2 instructions: 420000000 cycles: 621776076 heartbeat IPC: 0.347763 cumulative IPC: 0.402689 (Simulation time: 1 hr 47 min 12 sec) 
Heartbeat CPU 0 instructions: 510000001 cycles: 622159427 heartbeat IPC: 0.557955 cumulative IPC: 0.559952 (Simulation time: 1 hr 47 min 15 sec) 
Heartbeat CPU 1 instructions: 410000000 cycles: 624673846 heartbeat IPC: 0.426349 cumulative IPC: 0.422979 (Simulation time: 1 hr 47 min 36 sec) 
Heartbeat CPU 3 instructions: 550000000 cycles: 626331917 heartbeat IPC: 0.795636 cumulative IPC: 0.581094 (Simulation time: 1 hr 47 min 50 sec) 
Heartbeat CPU 3 instructions: 560000000 cycles: 638880738 heartbeat IPC: 0.796888 cumulative IPC: 0.586397 (Simulation time: 1 hr 49 min 35 sec) 
Heartbeat CPU 0 instructions: 520000000 cycles: 640086933 heartbeat IPC: 0.557802 cumulative IPC: 0.559877 (Simulation time: 1 hr 49 min 45 sec) 
Heartbeat CPU 1 instructions: 420000000 cycles: 648163469 heartbeat IPC: 0.42572 cumulative IPC: 0.423103 (Simulation time: 1 hr 50 min 53 sec) 
Heartbeat CPU 3 instructions: 570000001 cycles: 651055026 heartbeat IPC: 0.821403 cumulative IPC: 0.591869 (Simulation time: 1 hr 51 min 18 sec) 
Heartbeat CPU 2 instructions: 430000002 cycles: 653618549 heartbeat IPC: 0.314046 cumulative IPC: 0.397317 (Simulation time: 1 hr 51 min 39 sec) 
Heartbeat CPU 0 instructions: 530000000 cycles: 657964197 heartbeat IPC: 0.55937 cumulative IPC: 0.55986 (Simulation time: 1 hr 52 min 16 sec) 
Heartbeat CPU 3 instructions: 580000000 cycles: 663025184 heartbeat IPC: 0.835411 cumulative IPC: 0.597319 (Simulation time: 1 hr 52 min 59 sec) 
Heartbeat CPU 1 instructions: 430000003 cycles: 671571785 heartbeat IPC: 0.427199 cumulative IPC: 0.423279 (Simulation time: 1 hr 54 min 13 sec) 
Heartbeat CPU 3 instructions: 590000003 cycles: 674350156 heartbeat IPC: 0.883005 cumulative IPC: 0.603243 (Simulation time: 1 hr 54 min 37 sec) 
Heartbeat CPU 0 instructions: 540000000 cycles: 675832897 heartbeat IPC: 0.559638 cumulative IPC: 0.559852 (Simulation time: 1 hr 54 min 50 sec) 
Heartbeat CPU 2 instructions: 440000000 cycles: 682178451 heartbeat IPC: 0.350141 cumulative IPC: 0.394885 (Simulation time: 1 hr 55 min 45 sec) 
Heartbeat CPU 3 instructions: 600000000 cycles: 685621414 heartbeat IPC: 0.887212 cumulative IPC: 0.608985 (Simulation time: 1 hr 56 min 14 sec) 
Heartbeat CPU 0 instructions: 550000000 cycles: 693727973 heartbeat IPC: 0.558813 cumulative IPC: 0.559819 (Simulation time: 1 hr 57 min 25 sec) 
Heartbeat CPU 1 instructions: 440000000 cycles: 695062070 heartbeat IPC: 0.425708 cumulative IPC: 0.42338 (Simulation time: 1 hr 57 min 37 sec) 
Heartbeat CPU 3 instructions: 610000001 cycles: 696399213 heartbeat IPC: 0.927833 cumulative IPC: 0.615033 (Simulation time: 1 hr 57 min 49 sec) 
Heartbeat CPU 3 instructions: 620000000 cycles: 707388082 heartbeat IPC: 0.910012 cumulative IPC: 0.62063 (Simulation time: 1 hr 59 min 27 sec) 
Heartbeat CPU 2 instructions: 450000000 cycles: 707465878 heartbeat IPC: 0.395453 cumulative IPC: 0.39491 (Simulation time: 1 hr 59 min 27 sec) 
Heartbeat CPU 0 instructions: 560000000 cycles: 711484056 heartbeat IPC: 0.563187 cumulative IPC: 0.559922 (Simulation time: 2 hr 0 min 5 sec) 
Heartbeat CPU 3 instructions: 630000002 cycles: 718009008 heartbeat IPC: 0.941538 cumulative IPC: 0.626408 (Simulation time: 2 hr 1 min 5 sec) 
Heartbeat CPU 1 instructions: 450000003 cycles: 718678047 heartbeat IPC: 0.423442 cumulative IPC: 0.423383 (Simulation time: 2 hr 1 min 11 sec) 
Heartbeat CPU 2 instructions: 460000000 cycles: 726851175 heartbeat IPC: 0.515855 cumulative IPC: 0.398826 (Simulation time: 2 hr 2 min 26 sec) 
Heartbeat CPU 3 instructions: 640000000 cycles: 728422787 heartbeat IPC: 0.960266 cumulative IPC: 0.632201 (Simulation time: 2 hr 2 min 40 sec) 
Heartbeat CPU 0 instructions: 570000000 cycles: 729171088 heartbeat IPC: 0.565386 cumulative IPC: 0.560083 (Simulation time: 2 hr 2 min 46 sec) 
Heartbeat CPU 3 instructions: 650000001 cycles: 738900846 heartbeat IPC: 0.954375 cumulative IPC: 0.637728 (Simulation time: 2 hr 4 min 12 sec) 
Heartbeat CPU 1 instructions: 460000000 cycles: 742238982 heartbeat IPC: 0.424431 cumulative IPC: 0.423423 (Simulation time: 2 hr 4 min 42 sec) 
Heartbeat CPU 0 instructions: 580000000 cycles: 746725515 heartbeat IPC: 0.569657 cumulative IPC: 0.560354 (Simulation time: 2 hr 5 min 19 sec) 
Heartbeat CPU 3 instructions: 660000000 cycles: 749207563 heartbeat IPC: 0.970241 cumulative IPC: 0.643247 (Simulation time: 2 hr 5 min 39 sec) 
Heartbeat CPU 2 instructions: 470000000 cycles: 756396183 heartbeat IPC: 0.338467 cumulative IPC: 0.395987 (Simulation time: 2 hr 6 min 42 sec) 
Heartbeat CPU 3 instructions: 670000001 cycles: 759549279 heartbeat IPC: 0.966958 cumulative IPC: 0.648549 (Simulation time: 2 hr 7 min 9 sec) 
Heartbeat CPU 0 instructions: 590000001 cycles: 764301883 heartbeat IPC: 0.568946 cumulative IPC: 0.560592 (Simulation time: 2 hr 7 min 50 sec) 
Heartbeat CPU 1 instructions: 470000002 cycles: 765770771 heartbeat IPC: 0.424957 cumulative IPC: 0.423479 (Simulation time: 2 hr 8 min 3 sec) 
Heartbeat CPU 3 instructions: 680000000 cycles: 769884429 heartbeat IPC: 0.967572 cumulative IPC: 0.653688 (Simulation time: 2 hr 8 min 39 sec) 
Heartbeat CPU 3 instructions: 690000000 cycles: 780111319 heartbeat IPC: 0.977814 cumulative IPC: 0.658772 (Simulation time: 2 hr 10 min 12 sec) 
Heartbeat CPU 0 instructions: 600000000 cycles: 781890939 heartbeat IPC: 0.568535 cumulative IPC: 0.560806 (Simulation time: 2 hr 10 min 28 sec) 
Heartbeat CPU 2 instructions: 480000000 cycles: 786905831 heartbeat IPC: 0.327765 cumulative IPC: 0.392827 (Simulation time: 2 hr 11 min 13 sec) 
Heartbeat CPU 1 instructions: 480000000 cycles: 789365564 heartbeat IPC: 0.423822 cumulative IPC: 0.423492 (Simulation time: 2 hr 11 min 34 sec) 
Heartbeat CPU 3 instructions: 700000000 cycles: 790402196 heartbeat IPC: 0.971734 cumulative IPC: 0.663636 (Simulation time: 2 hr 11 min 43 sec) 
Heartbeat CPU 0 instructions: 610000000 cycles: 799462629 heartbeat IPC: 0.569097 cumulative IPC: 0.561023 (Simulation time: 2 hr 13 min 4 sec) 
Heartbeat CPU 3 instructions: 710000001 cycles: 800544627 heartbeat IPC: 0.985957 cumulative IPC: 0.668498 (Simulation time: 2 hr 13 min 13 sec) 
Heartbeat CPU 3 instructions: 720000000 cycles: 810594911 heartbeat IPC: 0.994997 cumulative IPC: 0.673307 (Simulation time: 2 hr 15 min 2 sec) 
Heartbeat CPU 2 instructions: 490000001 cycles: 812542642 heartbeat IPC: 0.390064 cumulative IPC: 0.392724 (Simulation time: 2 hr 15 min 20 sec) 
Heartbeat CPU 1 instructions: 490000000 cycles: 812838025 heartbeat IPC: 0.426031 cumulative IPC: 0.423579 (Simulation time: 2 hr 15 min 23 sec) 
Heartbeat CPU 0 instructions: 620000000 cycles: 817076835 heartbeat IPC: 0.567724 cumulative IPC: 0.561194 (Simulation time: 2 hr 16 min 2 sec) 
Heartbeat CPU 3 instructions: 730000000 cycles: 820615320 heartbeat IPC: 0.997963 cumulative IPC: 0.678005 (Simulation time: 2 hr 16 min 33 sec) 
Heartbeat CPU 3 instructions: 740000000 cycles: 830568184 heartbeat IPC: 1.00474 cumulative IPC: 0.682635 (Simulation time: 2 hr 18 min 2 sec) 
Heartbeat CPU 0 instructions: 630000000 cycles: 834595785 heartbeat IPC: 0.57081 cumulative IPC: 0.561432 (Simulation time: 2 hr 18 min 35 sec) 
Heartbeat CPU 1 instructions: 500000000 cycles: 836238357 heartbeat IPC: 0.427344 cumulative IPC: 0.423703 (Simulation time: 2 hr 18 min 48 sec) 
Heartbeat CPU 2 instructions: 500000000 cycles: 840591782 heartbeat IPC: 0.356517 cumulative IPC: 0.391298 (Simulation time: 2 hr 19 min 26 sec) 
Heartbeat CPU 3 instructions: 750000001 cycles: 840684063 heartbeat IPC: 0.988545 cumulative IPC: 0.686978 (Simulation time: 2 hr 19 min 27 sec) 
Heartbeat CPU 3 instructions: 760000000 cycles: 850612827 heartbeat IPC: 1.00717 cumulative IPC: 0.691379 (Simulation time: 2 hr 20 min 54 sec) 
Heartbeat CPU 0 instructions: 640000000 cycles: 852124669 heartbeat IPC: 0.570487 cumulative IPC: 0.561652 (Simulation time: 2 hr 21 min 8 sec) 
Heartbeat CPU 1 instructions: 510000000 cycles: 859662424 heartbeat IPC: 0.426911 cumulative IPC: 0.423806 (Simulation time: 2 hr 22 min 24 sec) 
Heartbeat CPU 3 instructions: 770000001 cycles: 860851807 heartbeat IPC: 0.97666 cumulative IPC: 0.695366 (Simulation time: 2 hr 22 min 34 sec) 
Heartbeat CPU 0 instructions: 650000002 cycles: 869750913 heartbeat IPC: 0.567336 cumulative IPC: 0.561787 (Simulation time: 2 hr 23 min 55 sec) 
Heartbeat CPU 3 instructions: 780000000 cycles: 871007694 heartbeat IPC: 0.98465 cumulative IPC: 0.699321 (Simulation time: 2 hr 24 min 9 sec) 
Heartbeat CPU 2 instructions: 510000001 cycles: 872519613 heartbeat IPC: 0.313206 cumulative IPC: 0.387949 (Simulation time: 2 hr 24 min 23 sec) 
Heartbeat CPU 3 instructions: 790000002 cycles: 881174860 heartbeat IPC: 0.983558 cumulative IPC: 0.703159 (Simulation time: 2 hr 25 min 51 sec) 
Heartbeat CPU 1 instructions: 520000000 cycles: 884753300 heartbeat IPC: 0.398551 cumulative IPC: 0.422968 (Simulation time: 2 hr 26 min 23 sec) 
Heartbeat CPU 0 instructions: 660000000 cycles: 887344687 heartbeat IPC: 0.568383 cumulative IPC: 0.56194 (Simulation time: 2 hr 26 min 46 sec) 
Heartbeat CPU 3 instructions: 800000000 cycles: 891318147 heartbeat IPC: 0.985874 cumulative IPC: 0.706917 (Simulation time: 2 hr 27 min 21 sec) 
Heartbeat CPU 2 instructions: 520000000 cycles: 901341356 heartbeat IPC: 0.34696 cumulative IPC: 0.386421 (Simulation time: 2 hr 28 min 50 sec) 
Heartbeat CPU 3 instructions: 810000001 cycles: 901579864 heartbeat IPC: 0.974496 cumulative IPC: 0.710467 (Simulation time: 2 hr 28 min 52 sec) 
Heartbeat CPU 0 instructions: 670000002 cycles: 904940844 heartbeat IPC: 0.568306 cumulative IPC: 0.562084 (Simulation time: 2 hr 29 min 22 sec) 
Heartbeat CPU 1 instructions: 530000000 cycles: 908044774 heartbeat IPC: 0.429342 cumulative IPC: 0.423159 (Simulation time: 2 hr 29 min 50 sec) 
Heartbeat CPU 3 instructions: 820000000 cycles: 911855533 heartbeat IPC: 0.973173 cumulative IPC: 0.713912 (Simulation time: 2 hr 30 min 23 sec) 
Heartbeat CPU 3 instructions: 830000002 cycles: 921833650 heartbeat IPC: 1.00219 cumulative IPC: 0.717536 (Simulation time: 2 hr 32 min 14 sec) 
Heartbeat CPU 0 instructions: 680000000 cycles: 922637294 heartbeat IPC: 0.565085 cumulative IPC: 0.562151 (Simulation time: 2 hr 32 min 23 sec) 
Heartbeat CPU 2 instructions: 530000001 cycles: 928302502 heartbeat IPC: 0.370904 cumulative IPC: 0.385898 (Simulation time: 2 hr 33 min 17 sec) 
Heartbeat CPU 1 instructions: 540000000 cycles: 931423504 heartbeat IPC: 0.427739 cumulative IPC: 0.423292 (Simulation time: 2 hr 33 min 45 sec) 
Heartbeat CPU 3 instructions: 840000000 cycles: 931983189 heartbeat IPC: 0.985266 cumulative IPC: 0.720917 (Simulation time: 2 hr 33 min 50 sec) 
Heartbeat CPU 0 instructions: 690000002 cycles: 940317091 heartbeat IPC: 0.565617 cumulative IPC: 0.562226 (Simulation time: 2 hr 35 min 5 sec) 
Heartbeat CPU 3 instructions: 850000000 cycles: 941963447 heartbeat IPC: 1.00198 cumulative IPC: 0.724364 (Simulation time: 2 hr 35 min 20 sec) 
Heartbeat CPU 3 instructions: 860000000 cycles: 952053398 heartbeat IPC: 0.991085 cumulative IPC: 0.727631 (Simulation time: 2 hr 36 min 51 sec) 
Heartbeat CPU 2 instructions: 540000000 cycles: 953873106 heartbeat IPC: 0.391074 cumulative IPC: 0.386058 (Simulation time: 2 hr 37 min 7 sec) 
Heartbeat CPU 1 instructions: 550000000 cycles: 954798065 heartbeat IPC: 0.427816 cumulative IPC: 0.42342 (Simulation time: 2 hr 37 min 16 sec) 
Heartbeat CPU 0 instructions: 700000000 cycles: 957996464 heartbeat IPC: 0.565631 cumulative IPC: 0.562299 (Simulation time: 2 hr 37 min 45 sec) 
Heartbeat CPU 3 instructions: 870000003 cycles: 961967111 heartbeat IPC: 1.0087 cumulative IPC: 0.730973 (Simulation time: 2 hr 38 min 21 sec) 
Heartbeat CPU 3 instructions: 880000000 cycles: 972007261 heartbeat IPC: 0.996001 cumulative IPC: 0.734126 (Simulation time: 2 hr 39 min 51 sec) 
Heartbeat CPU 0 instructions: 710000002 cycles: 975622248 heartbeat IPC: 0.567351 cumulative IPC: 0.562404 (Simulation time: 2 hr 40 min 24 sec) 
Heartbeat CPU 1 instructions: 560000000 cycles: 978011064 heartbeat IPC: 0.430793 cumulative IPC: 0.423621 (Simulation time: 2 hr 40 min 46 sec) 
Heartbeat CPU 2 instructions: 550000003 cycles: 978401040 heartbeat IPC: 0.407699 cumulative IPC: 0.386682 (Simulation time: 2 hr 40 min 49 sec) 
Heartbeat CPU 3 instructions: 890000003 cycles: 981950940 heartbeat IPC: 1.00566 cumulative IPC: 0.737289 (Simulation time: 2 hr 41 min 21 sec) 
Heartbeat CPU 3 instructions: 900000000 cycles: 992049678 heartbeat IPC: 0.990222 cumulative IPC: 0.740246 (Simulation time: 2 hr 42 min 53 sec) 
Heartbeat CPU 0 instructions: 720000000 cycles: 993450920 heartbeat IPC: 0.560894 cumulative IPC: 0.562373 (Simulation time: 2 hr 43 min 5 sec) 
Heartbeat CPU 1 instructions: 570000002 cycles: 1001506855 heartbeat IPC: 0.425608 cumulative IPC: 0.423675 (Simulation time: 2 hr 44 min 19 sec) 
Heartbeat CPU 3 instructions: 910000002 cycles: 1001940141 heartbeat IPC: 1.01108 cumulative IPC: 0.743311 (Simulation time: 2 hr 44 min 23 sec) 
Heartbeat CPU 2 instructions: 560000000 cycles: 1002051268 heartbeat IPC: 0.422829 cumulative IPC: 0.387661 (Simulation time: 2 hr 44 min 24 sec) 
Heartbeat CPU 0 instructions: 730000000 cycles: 1011265736 heartbeat IPC: 0.56133 cumulative IPC: 0.562352 (Simulation time: 2 hr 45 min 52 sec) 
Heartbeat CPU 3 instructions: 920000000 cycles: 1012010894 heartbeat IPC: 0.992974 cumulative IPC: 0.746156 (Simulation time: 2 hr 45 min 59 sec) 
Heartbeat CPU 2 instructions: 570000003 cycles: 1018131033 heartbeat IPC: 0.6219 cumulative IPC: 0.391893 (Simulation time: 2 hr 46 min 59 sec) 
Heartbeat CPU 3 instructions: 930000001 cycles: 1021871915 heartbeat IPC: 1.01409 cumulative IPC: 0.749112 (Simulation time: 2 hr 47 min 36 sec) 
Heartbeat CPU 1 instructions: 580000000 cycles: 1024875750 heartbeat IPC: 0.427919 cumulative IPC: 0.423785 (Simulation time: 2 hr 48 min 5 sec) 
Heartbeat CPU 0 instructions: 740000000 cycles: 1029070076 heartbeat IPC: 0.561661 cumulative IPC: 0.562338 (Simulation time: 2 hr 48 min 46 sec) 
Heartbeat CPU 3 instructions: 940000000 cycles: 1031724449 heartbeat IPC: 1.01497 cumulative IPC: 0.752012 (Simulation time: 2 hr 49 min 12 sec) 
Heartbeat CPU 2 instructions: 580000000 cycles: 1034167768 heartbeat IPC: 0.623568 cumulative IPC: 0.395994 (Simulation time: 2 hr 49 min 35 sec) 
Heartbeat CPU 0 instructions: 750000003 cycles: 1046856450 heartbeat IPC: 0.562228 cumulative IPC: 0.562336 (Simulation time: 2 hr 51 min 21 sec) 
Heartbeat CPU 1 instructions: 590000000 cycles: 1048136639 heartbeat IPC: 0.429906 cumulative IPC: 0.42394 (Simulation time: 2 hr 51 min 31 sec) 
Heartbeat CPU 2 instructions: 590000000 cycles: 1051686308 heartbeat IPC: 0.570824 cumulative IPC: 0.39931 (Simulation time: 2 hr 51 min 57 sec) 
Heartbeat CPU 3 instructions: 950000002 cycles: 1055848973 heartbeat IPC: 0.414516 cumulative IPC: 0.743235 (Simulation time: 2 hr 52 min 28 sec) 
Heartbeat CPU 0 instructions: 760000000 cycles: 1064593942 heartbeat IPC: 0.563777 cumulative IPC: 0.562363 (Simulation time: 2 hr 53 min 34 sec) 
Heartbeat CPU 2 instructions: 600000000 cycles: 1070991509 heartbeat IPC: 0.517995 cumulative IPC: 0.401741 (Simulation time: 2 hr 55 min 17 sec) 
Heartbeat CPU 1 instructions: 600000000 cycles: 1071409189 heartbeat IPC: 0.429691 cumulative IPC: 0.424082 (Simulation time: 2 hr 55 min 25 sec) 
Heartbeat CPU 3 instructions: 960000000 cycles: 1075040091 heartbeat IPC: 0.521074 cumulative IPC: 0.738732 (Simulation time: 2 hr 56 min 35 sec) 
Heartbeat CPU 0 instructions: 770000002 cycles: 1082269288 heartbeat IPC: 0.56576 cumulative IPC: 0.562426 (Simulation time: 2 hr 58 min 9 sec) 
Heartbeat CPU 3 instructions: 970000000 cycles: 1084999216 heartbeat IPC: 1.0041 cumulative IPC: 0.741494 (Simulation time: 2 hr 58 min 33 sec) 
Heartbeat CPU 2 instructions: 610000000 cycles: 1093737976 heartbeat IPC: 0.439629 cumulative IPC: 0.402633 (Simulation time: 2 hr 59 min 50 sec) 
Heartbeat CPU 1 instructions: 610000000 cycles: 1094683254 heartbeat IPC: 0.429663 cumulative IPC: 0.424216 (Simulation time: 2 hr 59 min 59 sec) 
Heartbeat CPU 3 instructions: 980000000 cycles: 1094986712 heartbeat IPC: 1.00125 cumulative IPC: 0.744177 (Simulation time: 3 hr 0 min 1 sec) 
Heartbeat CPU 0 instructions: 780000000 cycles: 1099877198 heartbeat IPC: 0.567926 cumulative IPC: 0.562526 (Simulation time: 3 hr 0 min 44 sec) 
Heartbeat CPU 3 instructions: 990000001 cycles: 1105056502 heartbeat IPC: 0.993069 cumulative IPC: 0.746743 (Simulation time: 3 hr 1 min 29 sec) 
Heartbeat CPU 3 instructions: 1000000000 cycles: 1115101494 heartbeat IPC: 0.995521 cumulative IPC: 0.749275 (Simulation time: 3 hr 2 min 54 sec) 
Heartbeat CPU 0 instructions: 790000003 cycles: 1117460843 heartbeat IPC: 0.56871 cumulative IPC: 0.562636 (Simulation time: 3 hr 3 min 14 sec) 
Heartbeat CPU 1 instructions: 620000000 cycles: 1117742215 heartbeat IPC: 0.433671 cumulative IPC: 0.424437 (Simulation time: 3 hr 3 min 17 sec) 
Heartbeat CPU 2 instructions: 620000000 cycles: 1125125619 heartbeat IPC: 0.318597 cumulative IPC: 0.399987 (Simulation time: 3 hr 4 min 21 sec) 
Heartbeat CPU 3 instructions: 1010000000 cycles: 1125189324 heartbeat IPC: 0.991293 cumulative IPC: 0.751724 (Simulation time: 3 hr 4 min 22 sec) 
Heartbeat CPU 0 instructions: 800000000 cycles: 1135045196 heartbeat IPC: 0.568687 cumulative IPC: 0.562741 (Simulation time: 3 hr 5 min 56 sec) 
Heartbeat CPU 3 instructions: 1020000000 cycles: 1135134476 heartbeat IPC: 1.00552 cumulative IPC: 0.754231 (Simulation time: 3 hr 5 min 57 sec) 
Heartbeat CPU 1 instructions: 630000001 cycles: 1141099765 heartbeat IPC: 0.428127 cumulative IPC: 0.424522 (Simulation time: 3 hr 6 min 49 sec) 
Heartbeat CPU 3 instructions: 1030000000 cycles: 1145207758 heartbeat IPC: 0.992725 cumulative IPC: 0.756593 (Simulation time: 3 hr 7 min 25 sec) 
Heartbeat CPU 0 instructions: 810000001 cycles: 1152689941 heartbeat IPC: 0.566741 cumulative IPC: 0.56281 (Simulation time: 3 hr 8 min 29 sec) 
Heartbeat CPU 3 instructions: 1040000000 cycles: 1155172497 heartbeat IPC: 1.00354 cumulative IPC: 0.758989 (Simulation time: 3 hr 8 min 51 sec) 
Heartbeat CPU 2 instructions: 630000002 cycles: 1157828004 heartbeat IPC: 0.305788 cumulative IPC: 0.396996 (Simulation time: 3 hr 9 min 14 sec) 
Heartbeat CPU 1 instructions: 640000000 cycles: 1164439974 heartbeat IPC: 0.428445 cumulative IPC: 0.42461 (Simulation time: 3 hr 10 min 11 sec) 
Heartbeat CPU 3 instructions: 1050000000 cycles: 1165195406 heartbeat IPC: 0.997714 cumulative IPC: 0.761296 (Simulation time: 3 hr 10 min 18 sec) 
Heartbeat CPU 0 instructions: 820000000 cycles: 1170270948 heartbeat IPC: 0.568796 cumulative IPC: 0.562911 (Simulation time: 3 hr 11 min 1 sec) 
Heartbeat CPU 3 instructions: 1060000000 cycles: 1175089894 heartbeat IPC: 1.01066 cumulative IPC: 0.763653 (Simulation time: 3 hr 11 min 43 sec) 
Heartbeat CPU 3 instructions: 1070000002 cycles: 1185100487 heartbeat IPC: 0.998942 cumulative IPC: 0.765882 (Simulation time: 3 hr 13 min 11 sec) 
Heartbeat CPU 1 instructions: 650000001 cycles: 1187893549 heartbeat IPC: 0.426374 cumulative IPC: 0.424649 (Simulation time: 3 hr 13 min 35 sec) 
Heartbeat CPU 0 instructions: 830000003 cycles: 1187929771 heartbeat IPC: 0.566289 cumulative IPC: 0.562968 (Simulation time: 3 hr 13 min 36 sec) 
Heartbeat CPU 2 instructions: 640000000 cycles: 1190946631 heartbeat IPC: 0.301945 cumulative IPC: 0.394033 (Simulation time: 3 hr 14 min 3 sec) 
Heartbeat CPU 3 instructions: 1080000000 cycles: 1195114974 heartbeat IPC: 0.998553 cumulative IPC: 0.768066 (Simulation time: 3 hr 14 min 39 sec) 
Heartbeat CPU 3 instructions: 1090000001 cycles: 1205116443 heartbeat IPC: 0.999853 cumulative IPC: 0.770218 (Simulation time: 3 hr 16 min 32 sec) 
Heartbeat CPU 0 instructions: 840000000 cycles: 1205603241 heartbeat IPC: 0.56582 cumulative IPC: 0.563014 (Simulation time: 3 hr 16 min 36 sec) 
Heartbeat CPU 1 instructions: 660000000 cycles: 1211318874 heartbeat IPC: 0.426888 cumulative IPC: 0.424698 (Simulation time: 3 hr 17 min 28 sec) 
Heartbeat CPU 3 instructions: 1100000000 cycles: 1215224640 heartbeat IPC: 0.989296 cumulative IPC: 0.772255 (Simulation time: 3 hr 18 min 2 sec) 
Heartbeat CPU 2 instructions: 650000000 cycles: 1220637571 heartbeat IPC: 0.336803 cumulative IPC: 0.392478 (Simulation time: 3 hr 18 min 50 sec) 
Heartbeat CPU 0 instructions: 850000002 cycles: 1223421592 heartbeat IPC: 0.561219 cumulative IPC: 0.562985 (Simulation time: 3 hr 19 min 15 sec) 
Heartbeat CPU 3 instructions: 1110000001 cycles: 1225152114 heartbeat IPC: 1.00731 cumulative IPC: 0.774383 (Simulation time: 3 hr 19 min 35 sec) 
Heartbeat CPU 1 instructions: 670000002 cycles: 1234647822 heartbeat IPC: 0.428652 cumulative IPC: 0.424781 (Simulation time: 3 hr 21 min 12 sec) 
Heartbeat CPU 3 instructions: 1120000000 cycles: 1235408800 heartbeat IPC: 0.974974 cumulative IPC: 0.776241 (Simulation time: 3 hr 21 min 20 sec) 
Heartbeat CPU 0 instructions: 860000000 cycles: 1241064100 heartbeat IPC: 0.566813 cumulative IPC: 0.563046 (Simulation time: 3 hr 22 min 22 sec) 
Heartbeat CPU 3 instructions: 1130000001 cycles: 1246050430 heartbeat IPC: 0.939706 cumulative IPC: 0.777797 (Simulation time: 3 hr 23 min 51 sec) 
Heartbeat CPU 2 instructions: 660000000 cycles: 1248208905 heartbeat IPC: 0.362696 cumulative IPC: 0.391745 (Simulation time: 3 hr 24 min 10 sec) 
Heartbeat CPU 1 instructions: 680000000 cycles: 1257926998 heartbeat IPC: 0.429568 cumulative IPC: 0.42488 (Simulation time: 3 hr 25 min 33 sec) 
Heartbeat CPU 3 instructions: 1140000000 cycles: 1257951987 heartbeat IPC: 0.840226 cumulative IPC: 0.778455 (Simulation time: 3 hr 25 min 34 sec) 
Heartbeat CPU 0 instructions: 870000000 cycles: 1258753904 heartbeat IPC: 0.565297 cumulative IPC: 0.563081 (Simulation time: 3 hr 25 min 40 sec) 
Heartbeat CPU 3 instructions: 1150000000 cycles: 1270880807 heartbeat IPC: 0.773466 cumulative IPC: 0.778398 (Simulation time: 3 hr 27 min 24 sec) 
Heartbeat CPU 2 instructions: 670000003 cycles: 1274179423 heartbeat IPC: 0.385052 cumulative IPC: 0.391593 (Simulation time: 3 hr 27 min 51 sec) 
Heartbeat CPU 0 instructions: 880000000 cycles: 1276475587 heartbeat IPC: 0.564281 cumulative IPC: 0.5631 (Simulation time: 3 hr 28 min 10 sec) 
Heartbeat CPU 1 instructions: 690000001 cycles: 1281231626 heartbeat IPC: 0.429099 cumulative IPC: 0.424965 (Simulation time: 3 hr 28 min 49 sec) 
Heartbeat CPU 3 instructions: 1160000000 cycles: 1285217953 heartbeat IPC: 0.697489 cumulative IPC: 0.777396 (Simulation time: 3 hr 29 min 23 sec) 
Heartbeat CPU 0 instructions: 890000001 cycles: 1294225774 heartbeat IPC: 0.563374 cumulative IPC: 0.563104 (Simulation time: 3 hr 30 min 36 sec) 
Heartbeat CPU 2 instructions: 680000000 cycles: 1297899060 heartbeat IPC: 0.421591 cumulative IPC: 0.392202 (Simulation time: 3 hr 31 min 6 sec) 
Heartbeat CPU 3 instructions: 1170000000 cycles: 1302449917 heartbeat IPC: 0.580317 cumulative IPC: 0.774504 (Simulation time: 3 hr 31 min 46 sec) 
Heartbeat CPU 1 instructions: 700000000 cycles: 1304417717 heartbeat IPC: 0.431293 cumulative IPC: 0.42509 (Simulation time: 3 hr 32 min 2 sec) 
Heartbeat CPU 0 instructions: 900000000 cycles: 1312088441 heartbeat IPC: 0.559827 cumulative IPC: 0.563054 (Simulation time: 3 hr 33 min 7 sec) 
Heartbeat CPU 2 instructions: 690000000 cycles: 1314414202 heartbeat IPC: 0.605505 cumulative IPC: 0.395171 (Simulation time: 3 hr 33 min 27 sec) 
Heartbeat CPU 3 instructions: 1180000000 cycles: 1323457994 heartbeat IPC: 0.476007 cumulative IPC: 0.769257 (Simulation time: 3 hr 34 min 41 sec) 
Heartbeat CPU 1 instructions: 710000000 cycles: 1327466793 heartbeat IPC: 0.433857 cumulative IPC: 0.425258 (Simulation time: 3 hr 35 min 14 sec) 
Heartbeat CPU 0 instructions: 910000002 cycles: 1329893717 heartbeat IPC: 0.561631 cumulative IPC: 0.563033 (Simulation time: 3 hr 35 min 34 sec) 
Heartbeat CPU 2 instructions: 700000000 cycles: 1332783831 heartbeat IPC: 0.544377 cumulative IPC: 0.397447 (Simulation time: 3 hr 35 min 58 sec) 
Heartbeat CPU 3 instructions: 1190000000 cycles: 1345455869 heartbeat IPC: 0.454589 cumulative IPC: 0.763571 (Simulation time: 3 hr 37 min 38 sec) 
Heartbeat CPU 0 instructions: 920000000 cycles: 1347702664 heartbeat IPC: 0.561515 cumulative IPC: 0.563011 (Simulation time: 3 hr 37 min 55 sec) 
Heartbeat CPU 1 instructions: 720000000 cycles: 1350526784 heartbeat IPC: 0.433652 cumulative IPC: 0.425417 (Simulation time: 3 hr 38 min 16 sec) 
Heartbeat CPU 2 instructions: 710000001 cycles: 1355158182 heartbeat IPC: 0.44694 cumulative IPC: 0.398349 (Simulation time: 3 hr 38 min 51 sec) 
Heartbeat CPU 0 instructions: 930000001 cycles: 1365422150 heartbeat IPC: 0.56435 cumulative IPC: 0.56303 (Simulation time: 3 hr 40 min 7 sec) 
Heartbeat CPU 3 instructions: 1200000000 cycles: 1369809269 heartbeat IPC: 0.41062 cumulative IPC: 0.756648 (Simulation time: 3 hr 40 min 38 sec) 
Heartbeat CPU 1 instructions: 730000002 cycles: 1373465477 heartbeat IPC: 0.435945 cumulative IPC: 0.425611 (Simulation time: 3 hr 41 min 5 sec) 
Heartbeat CPU 0 instructions: 940000000 cycles: 1383102372 heartbeat IPC: 0.565604 cumulative IPC: 0.563067 (Simulation time: 3 hr 42 min 15 sec) 
Heartbeat CPU 2 instructions: 720000000 cycles: 1387366213 heartbeat IPC: 0.310482 cumulative IPC: 0.396102 (Simulation time: 3 hr 42 min 46 sec) 
Heartbeat CPU 3 instructions: 1210000000 cycles: 1392101567 heartbeat IPC: 0.448585 cumulative IPC: 0.751214 (Simulation time: 3 hr 43 min 21 sec) 
Heartbeat CPU 1 instructions: 740000000 cycles: 1396685345 heartbeat IPC: 0.430666 cumulative IPC: 0.425703 (Simulation time: 3 hr 43 min 54 sec) 
Heartbeat CPU 0 instructions: 950000002 cycles: 1400731896 heartbeat IPC: 0.56723 cumulative IPC: 0.563124 (Simulation time: 3 hr 44 min 24 sec) 
Heartbeat CPU 3 instructions: 1220000000 cycles: 1413026510 heartbeat IPC: 0.477899 cumulative IPC: 0.746763 (Simulation time: 3 hr 45 min 54 sec) 
Heartbeat CPU 2 instructions: 730000000 cycles: 1418332348 heartbeat IPC: 0.322933 cumulative IPC: 0.394345 (Simulation time: 3 hr 46 min 31 sec) 
Heartbeat CPU 0 instructions: 960000000 cycles: 1418459216 heartbeat IPC: 0.564101 cumulative IPC: 0.563138 (Simulation time: 3 hr 46 min 32 sec) 
Heartbeat CPU 1 instructions: 750000000 cycles: 1419708779 heartbeat IPC: 0.43434 cumulative IPC: 0.425857 (Simulation time: 3 hr 46 min 41 sec) 
Heartbeat CPU 3 instructions: 1230000000 cycles: 1433068767 heartbeat IPC: 0.498946 cumulative IPC: 0.742957 (Simulation time: 3 hr 48 min 17 sec) 
Heartbeat CPU 0 instructions: 970000003 cycles: 1436108120 heartbeat IPC: 0.566608 cumulative IPC: 0.563184 (Simulation time: 3 hr 48 min 39 sec) 
Heartbeat CPU 1 instructions: 760000000 cycles: 1442950201 heartbeat IPC: 0.430266 cumulative IPC: 0.425935 (Simulation time: 3 hr 49 min 31 sec) 
Heartbeat CPU 2 instructions: 740000000 cycles: 1451602035 heartbeat IPC: 0.300574 cumulative IPC: 0.391988 (Simulation time: 3 hr 50 min 38 sec) 
Heartbeat CPU 3 instructions: 1240000000 cycles: 1451694143 heartbeat IPC: 0.536902 cumulative IPC: 0.740057 (Simulation time: 3 hr 50 min 39 sec) 
Heartbeat CPU 0 instructions: 980000000 cycles: 1453798220 heartbeat IPC: 0.565288 cumulative IPC: 0.563213 (Simulation time: 3 hr 50 min 55 sec) 
Heartbeat CPU 1 instructions: 770000001 cycles: 1466621444 heartbeat IPC: 0.422454 cumulative IPC: 0.425873 (Simulation time: 3 hr 53 min 2 sec) 
Heartbeat CPU 3 instructions: 1250000002 cycles: 1470107759 heartbeat IPC: 0.543077 cumulative IPC: 0.737354 (Simulation time: 3 hr 53 min 44 sec) 
Heartbeat CPU 0 instructions: 990000002 cycles: 1471536898 heartbeat IPC: 0.56374 cumulative IPC: 0.563219 (Simulation time: 3 hr 53 min 55 sec) 
Heartbeat CPU 2 instructions: 750000002 cycles: 1486594929 heartbeat IPC: 0.285772 cumulative IPC: 0.389252 (Simulation time: 3 hr 55 min 47 sec) 
Heartbeat CPU 3 instructions: 1260000000 cycles: 1487923396 heartbeat IPC: 0.561305 cumulative IPC: 0.735047 (Simulation time: 3 hr 55 min 57 sec) 
Finished CPU 3 instructions: 1000000001 cycles: 1360637492 cumulative IPC: 0.73495 (Simulation time: 3 hr 56 min 4 sec) 
Heartbeat CPU 0 instructions: 1000000000 cycles: 1489246879 heartbeat IPC: 0.564653 cumulative IPC: 0.563238 (Simulation time: 3 hr 56 min 7 sec) 
Heartbeat CPU 1 instructions: 780000000 cycles: 1489703553 heartbeat IPC: 0.433236 cumulative IPC: 0.425998 (Simulation time: 3 hr 56 min 10 sec) 
Heartbeat CPU 3 instructions: 1270000003 cycles: 1505900022 heartbeat IPC: 0.556278 cumulative IPC: 0.732715 (Simulation time: 3 hr 58 min 16 sec) 
Heartbeat CPU 0 instructions: 1010000001 cycles: 1507085802 heartbeat IPC: 0.560572 cumulative IPC: 0.563204 (Simulation time: 3 hr 58 min 25 sec) 
Heartbeat CPU 1 instructions: 790000000 cycles: 1513066407 heartbeat IPC: 0.42803 cumulative IPC: 0.426033 (Simulation time: 3 hr 59 min 10 sec) 
Heartbeat CPU 2 instructions: 760000000 cycles: 1521706948 heartbeat IPC: 0.284803 cumulative IPC: 0.38662 (Simulation time: 4 hr 0 min 16 sec) 
Heartbeat CPU 3 instructions: 1280000000 cycles: 1523794008 heartbeat IPC: 0.558847 cumulative IPC: 0.730485 (Simulation time: 4 hr 0 min 32 sec) 
Heartbeat CPU 0 instructions: 1020000000 cycles: 1524989263 heartbeat IPC: 0.558551 cumulative IPC: 0.563144 (Simulation time: 4 hr 0 min 42 sec) 
Heartbeat CPU 1 instructions: 800000000 cycles: 1536313978 heartbeat IPC: 0.430152 cumulative IPC: 0.426101 (Simulation time: 4 hr 2 min 10 sec) 
Heartbeat CPU 3 instructions: 1290000000 cycles: 1541274592 heartbeat IPC: 0.572063 cumulative IPC: 0.728526 (Simulation time: 4 hr 2 min 49 sec) 
Heartbeat CPU 0 instructions: 1030000000 cycles: 1542760088 heartbeat IPC: 0.56272 cumulative IPC: 0.563139 (Simulation time: 4 hr 3 min 1 sec) 
Heartbeat CPU 2 instructions: 770000001 cycles: 1552650790 heartbeat IPC: 0.323166 cumulative IPC: 0.385242 (Simulation time: 4 hr 4 min 17 sec) 
Heartbeat CPU 3 instructions: 1300000000 cycles: 1559173135 heartbeat IPC: 0.558705 cumulative IPC: 0.726401 (Simulation time: 4 hr 5 min 8 sec) 
Heartbeat CPU 1 instructions: 810000000 cycles: 1559546677 heartbeat IPC: 0.430428 cumulative IPC: 0.426171 (Simulation time: 4 hr 5 min 11 sec) 
Heartbeat CPU 0 instructions: 1040000000 cycles: 1560680260 heartbeat IPC: 0.55803 cumulative IPC: 0.563075 (Simulation time: 4 hr 5 min 20 sec) 
Heartbeat CPU 3 instructions: 1310000002 cycles: 1577219872 heartbeat IPC: 0.554117 cumulative IPC: 0.724256 (Simulation time: 4 hr 7 min 31 sec) 
Heartbeat CPU 0 instructions: 1050000000 cycles: 1578641859 heartbeat IPC: 0.556743 cumulative IPC: 0.562996 (Simulation time: 4 hr 7 min 42 sec) 
Heartbeat CPU 2 instructions: 780000000 cycles: 1580907272 heartbeat IPC: 0.353901 cumulative IPC: 0.384632 (Simulation time: 4 hr 8 min 0 sec) 
Heartbeat CPU 1 instructions: 820000000 cycles: 1582601707 heartbeat IPC: 0.433745 cumulative IPC: 0.426291 (Simulation time: 4 hr 8 min 13 sec) 
Heartbeat CPU 3 instructions: 1320000000 cycles: 1595974668 heartbeat IPC: 0.533197 cumulative IPC: 0.721814 (Simulation time: 4 hr 9 min 59 sec) 
Heartbeat CPU 0 instructions: 1060000000 cycles: 1596640389 heartbeat IPC: 0.555601 cumulative IPC: 0.562906 (Simulation time: 4 hr 10 min 4 sec) 
Heartbeat CPU 2 instructions: 790000000 cycles: 1607230757 heartbeat IPC: 0.379889 cumulative IPC: 0.384548 (Simulation time: 4 hr 11 min 28 sec) 
Heartbeat CPU 1 instructions: 830000001 cycles: 1607379825 heartbeat IPC: 0.403582 cumulative IPC: 0.42591 (Simulation time: 4 hr 11 min 29 sec) 
Heartbeat CPU 0 instructions: 1070000002 cycles: 1614677098 heartbeat IPC: 0.554425 cumulative IPC: 0.562803 (Simulation time: 4 hr 12 min 29 sec) 
Heartbeat CPU 3 instructions: 1330000001 cycles: 1614927833 heartbeat IPC: 0.527616 cumulative IPC: 0.719339 (Simulation time: 4 hr 12 min 32 sec) 
Heartbeat CPU 2 instructions: 800000000 cycles: 1625700389 heartbeat IPC: 0.541429 cumulative IPC: 0.386483 (Simulation time: 4 hr 14 min 1 sec) 
Heartbeat CPU 1 instructions: 840000000 cycles: 1630386107 heartbeat IPC: 0.434664 cumulative IPC: 0.426044 (Simulation time: 4 hr 14 min 40 sec) 
Heartbeat CPU 0 instructions: 1080000000 cycles: 1632632424 heartbeat IPC: 0.556938 cumulative IPC: 0.562733 (Simulation time: 4 hr 14 min 58 sec) 
Heartbeat CPU 3 instructions: 1340000000 cycles: 1633766538 heartbeat IPC: 0.530822 cumulative IPC: 0.71698 (Simulation time: 4 hr 15 min 8 sec) 
Heartbeat CPU 2 instructions: 810000000 cycles: 1647872095 heartbeat IPC: 0.451025 cumulative IPC: 0.387424 (Simulation time: 4 hr 17 min 1 sec) 
Heartbeat CPU 0 instructions: 1090000003 cycles: 1650595453 heartbeat IPC: 0.556699 cumulative IPC: 0.562662 (Simulation time: 4 hr 17 min 21 sec) 
Heartbeat CPU 3 instructions: 1350000001 cycles: 1652626819 heartbeat IPC: 0.530215 cumulative IPC: 0.714669 (Simulation time: 4 hr 17 min 37 sec) 
Heartbeat CPU 1 instructions: 850000001 cycles: 1653397798 heartbeat IPC: 0.434562 cumulative IPC: 0.426173 (Simulation time: 4 hr 17 min 43 sec) 
Heartbeat CPU 0 instructions: 1100000000 cycles: 1668535489 heartbeat IPC: 0.557412 cumulative IPC: 0.5626 (Simulation time: 4 hr 19 min 38 sec) 
Heartbeat CPU 3 instructions: 1360000000 cycles: 1670566175 heartbeat IPC: 0.557434 cumulative IPC: 0.71284 (Simulation time: 4 hr 19 min 54 sec) 
Heartbeat CPU 1 instructions: 860000000 cycles: 1676273199 heartbeat IPC: 0.437151 cumulative IPC: 0.426335 (Simulation time: 4 hr 20 min 38 sec) 
Heartbeat CPU 2 instructions: 820000000 cycles: 1680657380 heartbeat IPC: 0.305015 cumulative IPC: 0.385684 (Simulation time: 4 hr 21 min 13 sec) 
Heartbeat CPU 0 instructions: 1110000001 cycles: 1686459319 heartbeat IPC: 0.557917 cumulative IPC: 0.562547 (Simulation time: 4 hr 21 min 58 sec) 
Heartbeat CPU 3 instructions: 1370000003 cycles: 1689319234 heartbeat IPC: 0.533247 cumulative IPC: 0.710683 (Simulation time: 4 hr 22 min 21 sec) 
Heartbeat CPU 1 instructions: 870000001 cycles: 1699256410 heartbeat IPC: 0.4351 cumulative IPC: 0.426463 (Simulation time: 4 hr 23 min 38 sec) 
Heartbeat CPU 0 instructions: 1120000000 cycles: 1704346618 heartbeat IPC: 0.559056 cumulative IPC: 0.562507 (Simulation time: 4 hr 24 min 19 sec) 
Heartbeat CPU 3 instructions: 1380000000 cycles: 1707707486 heartbeat IPC: 0.543825 cumulative IPC: 0.708741 (Simulation time: 4 hr 24 min 45 sec) 
Heartbeat CPU 2 instructions: 830000000 cycles: 1710169427 heartbeat IPC: 0.338845 cumulative IPC: 0.38481 (Simulation time: 4 hr 25 min 3 sec) 
Heartbeat CPU 0 instructions: 1130000000 cycles: 1722040039 heartbeat IPC: 0.565182 cumulative IPC: 0.562537 (Simulation time: 4 hr 26 min 35 sec) 
Heartbeat CPU 1 instructions: 880000000 cycles: 1722156300 heartbeat IPC: 0.436683 cumulative IPC: 0.42661 (Simulation time: 4 hr 26 min 36 sec) 
Heartbeat CPU 3 instructions: 1390000002 cycles: 1725860216 heartbeat IPC: 0.550881 cumulative IPC: 0.706947 (Simulation time: 4 hr 27 min 3 sec) 
Heartbeat CPU 0 instructions: 1140000000 cycles: 1739676176 heartbeat IPC: 0.567018 cumulative IPC: 0.562586 (Simulation time: 4 hr 28 min 50 sec) 
Heartbeat CPU 3 instructions: 1400000000 cycles: 1744012977 heartbeat IPC: 0.55088 cumulative IPC: 0.705194 (Simulation time: 4 hr 29 min 23 sec) 
Heartbeat CPU 2 instructions: 840000000 cycles: 1744290112 heartbeat IPC: 0.293077 cumulative IPC: 0.382873 (Simulation time: 4 hr 29 min 25 sec) 
Heartbeat CPU 1 instructions: 890000002 cycles: 1745249379 heartbeat IPC: 0.43303 cumulative IPC: 0.426702 (Simulation time: 4 hr 29 min 33 sec) 
Heartbeat CPU 0 instructions: 1150000000 cycles: 1757431571 heartbeat IPC: 0.563209 cumulative IPC: 0.562593 (Simulation time: 4 hr 31 min 9 sec) 
Heartbeat CPU 3 instructions: 1410000000 cycles: 1762250143 heartbeat IPC: 0.548331 cumulative IPC: 0.703443 (Simulation time: 4 hr 31 min 47 sec) 
Heartbeat CPU 1 instructions: 900000000 cycles: 1768124130 heartbeat IPC: 0.437163 cumulative IPC: 0.426848 (Simulation time: 4 hr 32 min 33 sec) 
Heartbeat CPU 2 instructions: 850000000 cycles: 1774152115 heartbeat IPC: 0.334874 cumulative IPC: 0.382003 (Simulation time: 4 hr 33 min 20 sec) 
Heartbeat CPU 0 instructions: 1160000000 cycles: 1775257318 heartbeat IPC: 0.560986 cumulative IPC: 0.562575 (Simulation time: 4 hr 33 min 29 sec) 
Heartbeat CPU 3 instructions: 1420000000 cycles: 1780548396 heartbeat IPC: 0.5465 cumulative IPC: 0.701705 (Simulation time: 4 hr 34 min 12 sec) 
Heartbeat CPU 1 instructions: 910000002 cycles: 1790871915 heartbeat IPC: 0.439603 cumulative IPC: 0.427022 (Simulation time: 4 hr 35 min 33 sec) 
Heartbeat CPU 0 instructions: 1170000000 cycles: 1792918678 heartbeat IPC: 0.566208 cumulative IPC: 0.562614 (Simulation time: 4 hr 35 min 49 sec) 
Heartbeat CPU 3 instructions: 1430000000 cycles: 1799162405 heartbeat IPC: 0.53723 cumulative IPC: 0.699873 (Simulation time: 4 hr 36 min 37 sec) 
Heartbeat CPU 2 instructions: 860000000 cycles: 1799886323 heartbeat IPC: 0.388588 cumulative IPC: 0.382104 (Simulation time: 4 hr 36 min 42 sec) 
Heartbeat CPU 0 instructions: 1180000000 cycles: 1810591471 heartbeat IPC: 0.565841 cumulative IPC: 0.562648 (Simulation time: 4 hr 38 min 5 sec) 
Heartbeat CPU 1 instructions: 920000000 cycles: 1813698661 heartbeat IPC: 0.438083 cumulative IPC: 0.427172 (Simulation time: 4 hr 38 min 29 sec) 
Heartbeat CPU 3 instructions: 1440000000 cycles: 1817937663 heartbeat IPC: 0.532616 cumulative IPC: 0.698014 (Simulation time: 4 hr 39 min 2 sec) 
Heartbeat CPU 0 instructions: 1190000000 cycles: 1828233584 heartbeat IPC: 0.566826 cumulative IPC: 0.562691 (Simulation time: 4 hr 40 min 23 sec) 
Heartbeat CPU 2 instructions: 870000000 cycles: 1831890385 heartbeat IPC: 0.31246 cumulative IPC: 0.380796 (Simulation time: 4 hr 40 min 51 sec) 
Heartbeat CPU 1 instructions: 930000000 cycles: 1836331149 heartbeat IPC: 0.441843 cumulative IPC: 0.427367 (Simulation time: 4 hr 41 min 26 sec) 
Heartbeat CPU 3 instructions: 1450000001 cycles: 1836542465 heartbeat IPC: 0.537496 cumulative IPC: 0.696266 (Simulation time: 4 hr 41 min 28 sec) 
Heartbeat CPU 0 instructions: 1200000000 cycles: 1845883131 heartbeat IPC: 0.566587 cumulative IPC: 0.562731 (Simulation time: 4 hr 42 min 42 sec) 
Heartbeat CPU 3 instructions: 1460000000 cycles: 1854915070 heartbeat IPC: 0.544289 cumulative IPC: 0.694649 (Simulation time: 4 hr 43 min 53 sec) 
Heartbeat CPU 1 instructions: 940000000 cycles: 1858919532 heartbeat IPC: 0.442705 cumulative IPC: 0.427567 (Simulation time: 4 hr 44 min 26 sec) 
Heartbeat CPU 2 instructions: 880000000 cycles: 1860491196 heartbeat IPC: 0.34964 cumulative IPC: 0.380281 (Simulation time: 4 hr 44 min 38 sec) 
Heartbeat CPU 0 instructions: 1210000003 cycles: 1863588000 heartbeat IPC: 0.564817 cumulative IPC: 0.562752 (Simulation time: 4 hr 45 min 3 sec) 
Heartbeat CPU 3 instructions: 1470000001 cycles: 1872782972 heartbeat IPC: 0.559663 cumulative IPC: 0.693267 (Simulation time: 4 hr 46 min 20 sec) 
Heartbeat CPU 0 instructions: 1220000000 cycles: 1881248803 heartbeat IPC: 0.566226 cumulative IPC: 0.562787 (Simulation time: 4 hr 47 min 28 sec) 
Heartbeat CPU 1 instructions: 950000002 cycles: 1881700991 heartbeat IPC: 0.438954 cumulative IPC: 0.427715 (Simulation time: 4 hr 47 min 31 sec) 
Heartbeat CPU 2 instructions: 890000000 cycles: 1882888021 heartbeat IPC: 0.446492 cumulative IPC: 0.381126 (Simulation time: 4 hr 47 min 40 sec) 
Heartbeat CPU 3 instructions: 1480000000 cycles: 1891391556 heartbeat IPC: 0.537386 cumulative IPC: 0.691621 (Simulation time: 4 hr 49 min 3 sec) 
Heartbeat CPU 0 instructions: 1230000001 cycles: 1898771809 heartbeat IPC: 0.570678 cumulative IPC: 0.562865 (Simulation time: 4 hr 51 min 2 sec) 
Heartbeat CPU 1 instructions: 960000000 cycles: 1904337317 heartbeat IPC: 0.441768 cumulative IPC: 0.427894 (Simulation time: 4 hr 52 min 33 sec) 
Finished CPU 0 instructions: 1000000000 cycles: 1776615674 cumulative IPC: 0.562868 (Simulation time: 4 hr 52 min 41 sec) 
Heartbeat CPU 3 instructions: 1490000003 cycles: 1909522773 heartbeat IPC: 0.551535 cumulative IPC: 0.690196 (Simulation time: 4 hr 53 min 56 sec) 
Heartbeat CPU 0 instructions: 1240000000 cycles: 1916446738 heartbeat IPC: 0.565773 cumulative IPC: 0.562894 (Simulation time: 4 hr 55 min 37 sec) 
Heartbeat CPU 2 instructions: 900000000 cycles: 1917430399 heartbeat IPC: 0.289499 cumulative IPC: 0.379357 (Simulation time: 4 hr 55 min 53 sec) 
Heartbeat CPU 1 instructions: 970000000 cycles: 1926940524 heartbeat IPC: 0.442415 cumulative IPC: 0.428076 (Simulation time: 4 hr 57 min 46 sec) 
Heartbeat CPU 3 instructions: 1500000000 cycles: 1928090012 heartbeat IPC: 0.538583 cumulative IPC: 0.688632 (Simulation time: 4 hr 57 min 54 sec) 
Heartbeat CPU 0 instructions: 1250000003 cycles: 1934106386 heartbeat IPC: 0.566263 cumulative IPC: 0.562927 (Simulation time: 4 hr 58 min 42 sec) 
Heartbeat CPU 3 instructions: 1510000001 cycles: 1946599104 heartbeat IPC: 0.540275 cumulative IPC: 0.687121 (Simulation time: 5 hr 0 min 20 sec) 
Heartbeat CPU 2 instructions: 910000000 cycles: 1948610363 heartbeat IPC: 0.320719 cumulative IPC: 0.378353 (Simulation time: 5 hr 0 min 36 sec) 
Heartbeat CPU 1 instructions: 980000000 cycles: 1949592871 heartbeat IPC: 0.441455 cumulative IPC: 0.428243 (Simulation time: 5 hr 0 min 44 sec) 
Heartbeat CPU 0 instructions: 1260000000 cycles: 1951721697 heartbeat IPC: 0.567688 cumulative IPC: 0.562973 (Simulation time: 5 hr 1 min 1 sec) 
Heartbeat CPU 3 instructions: 1520000000 cycles: 1964605110 heartbeat IPC: 0.55537 cumulative IPC: 0.68583 (Simulation time: 5 hr 2 min 43 sec) 
Heartbeat CPU 0 instructions: 1270000000 cycles: 1969348551 heartbeat IPC: 0.567316 cumulative IPC: 0.563015 (Simulation time: 5 hr 3 min 20 sec) 
Heartbeat CPU 1 instructions: 990000000 cycles: 1972106783 heartbeat IPC: 0.44417 cumulative IPC: 0.428437 (Simulation time: 5 hr 3 min 42 sec) 
Heartbeat CPU 2 instructions: 920000000 cycles: 1976887139 heartbeat IPC: 0.353647 cumulative IPC: 0.377975 (Simulation time: 5 hr 4 min 21 sec) 
Heartbeat CPU 3 instructions: 1530000003 cycles: 1983455899 heartbeat IPC: 0.530482 cumulative IPC: 0.684251 (Simulation time: 5 hr 5 min 13 sec) 
Heartbeat CPU 0 instructions: 1280000000 cycles: 1986976157 heartbeat IPC: 0.567292 cumulative IPC: 0.563055 (Simulation time: 5 hr 5 min 42 sec) 
Heartbeat CPU 1 instructions: 1000000000 cycles: 1994377846 heartbeat IPC: 0.449013 cumulative IPC: 0.428683 (Simulation time: 5 hr 6 min 44 sec) 
Heartbeat CPU 2 instructions: 930000003 cycles: 1999081372 heartbeat IPC: 0.450568 cumulative IPC: 0.378836 (Simulation time: 5 hr 7 min 23 sec) 
Heartbeat CPU 3 instructions: 1540000000 cycles: 2002058558 heartbeat IPC: 0.537557 cumulative IPC: 0.682795 (Simulation time: 5 hr 7 min 47 sec) 
Heartbeat CPU 0 instructions: 1290000000 cycles: 2004605733 heartbeat IPC: 0.567229 cumulative IPC: 0.563094 (Simulation time: 5 hr 8 min 8 sec) 
Heartbeat CPU 1 instructions: 1010000000 cycles: 2016566469 heartbeat IPC: 0.450681 cumulative IPC: 0.428941 (Simulation time: 5 hr 9 min 44 sec) 
Heartbeat CPU 3 instructions: 1550000000 cycles: 2020643985 heartbeat IPC: 0.538056 cumulative IPC: 0.681373 (Simulation time: 5 hr 10 min 16 sec) 
Heartbeat CPU 0 instructions: 1300000000 cycles: 2022198512 heartbeat IPC: 0.568415 cumulative IPC: 0.563144 (Simulation time: 5 hr 10 min 27 sec) 
Heartbeat CPU 2 instructions: 940000000 cycles: 2025111779 heartbeat IPC: 0.384166 cumulative IPC: 0.378909 (Simulation time: 5 hr 10 min 48 sec) 
Heartbeat CPU 1 instructions: 1020000000 cycles: 2038937910 heartbeat IPC: 0.446998 cumulative IPC: 0.429153 (Simulation time: 5 hr 12 min 36 sec) 
Heartbeat CPU 3 instructions: 1560000000 cycles: 2039335824 heartbeat IPC: 0.534993 cumulative IPC: 0.679942 (Simulation time: 5 hr 12 min 39 sec) 
Heartbeat CPU 0 instructions: 1310000000 cycles: 2039811863 heartbeat IPC: 0.567751 cumulative IPC: 0.563186 (Simulation time: 5 hr 12 min 43 sec) 
Heartbeat CPU 2 instructions: 950000001 cycles: 2056965255 heartbeat IPC: 0.313938 cumulative IPC: 0.377836 (Simulation time: 5 hr 14 min 58 sec) 
Heartbeat CPU 0 instructions: 1320000000 cycles: 2057424474 heartbeat IPC: 0.567775 cumulative IPC: 0.563228 (Simulation time: 5 hr 15 min 2 sec) 
Heartbeat CPU 3 instructions: 1570000002 cycles: 2057633185 heartbeat IPC: 0.546527 cumulative IPC: 0.678677 (Simulation time: 5 hr 15 min 4 sec) 
Heartbeat CPU 1 instructions: 1030000001 cycles: 2061352986 heartbeat IPC: 0.446128 cumulative IPC: 0.429349 (Simulation time: 5 hr 15 min 33 sec) 
Heartbeat CPU 0 instructions: 1330000002 cycles: 2075081453 heartbeat IPC: 0.566348 cumulative IPC: 0.563256 (Simulation time: 5 hr 17 min 20 sec) 
Heartbeat CPU 3 instructions: 1580000000 cycles: 2076371171 heartbeat IPC: 0.533675 cumulative IPC: 0.677282 (Simulation time: 5 hr 17 min 30 sec) 
Heartbeat CPU 1 instructions: 1040000000 cycles: 2083907737 heartbeat IPC: 0.443366 cumulative IPC: 0.429511 (Simulation time: 5 hr 18 min 31 sec) 
Heartbeat CPU 2 instructions: 960000000 cycles: 2087627613 heartbeat IPC: 0.326133 cumulative IPC: 0.377027 (Simulation time: 5 hr 19 min 1 sec) 
Heartbeat CPU 0 instructions: 1340000000 cycles: 2092763597 heartbeat IPC: 0.565542 cumulative IPC: 0.563277 (Simulation time: 5 hr 19 min 47 sec) 
Heartbeat CPU 3 instructions: 1590000003 cycles: 2095155047 heartbeat IPC: 0.532372 cumulative IPC: 0.675898 (Simulation time: 5 hr 20 min 7 sec) 
Heartbeat CPU 1 instructions: 1050000002 cycles: 2106190435 heartbeat IPC: 0.448779 cumulative IPC: 0.429728 (Simulation time: 5 hr 21 min 35 sec) 
Heartbeat CPU 0 instructions: 1350000000 cycles: 2110363441 heartbeat IPC: 0.568187 cumulative IPC: 0.563321 (Simulation time: 5 hr 22 min 9 sec) 
Heartbeat CPU 3 instructions: 1600000000 cycles: 2113771750 heartbeat IPC: 0.537152 cumulative IPC: 0.674597 (Simulation time: 5 hr 22 min 37 sec) 
Heartbeat CPU 2 instructions: 970000000 cycles: 2118089303 heartbeat IPC: 0.328281 cumulative IPC: 0.376281 (Simulation time: 5 hr 23 min 18 sec) 
Heartbeat CPU 0 instructions: 1360000000 cycles: 2127910344 heartbeat IPC: 0.569901 cumulative IPC: 0.563378 (Simulation time: 5 hr 24 min 51 sec) 
Heartbeat CPU 1 instructions: 1060000000 cycles: 2128574190 heartbeat IPC: 0.446752 cumulative IPC: 0.429919 (Simulation time: 5 hr 24 min 57 sec) 
Heartbeat CPU 3 instructions: 1610000002 cycles: 2132444615 heartbeat IPC: 0.535537 cumulative IPC: 0.673302 (Simulation time: 5 hr 25 min 29 sec) 
Heartbeat CPU 0 instructions: 1370000003 cycles: 2145521262 heartbeat IPC: 0.56783 cumulative IPC: 0.563417 (Simulation time: 5 hr 27 min 15 sec) 
Heartbeat CPU 2 instructions: 980000000 cycles: 2146026339 heartbeat IPC: 0.357948 cumulative IPC: 0.376027 (Simulation time: 5 hr 27 min 19 sec) 
Heartbeat CPU 1 instructions: 1070000002 cycles: 2150835230 heartbeat IPC: 0.449215 cumulative IPC: 0.430131 (Simulation time: 5 hr 27 min 58 sec) 
Heartbeat CPU 3 instructions: 1620000000 cycles: 2150940626 heartbeat IPC: 0.540657 cumulative IPC: 0.672089 (Simulation time: 5 hr 27 min 59 sec) 
Heartbeat CPU 0 instructions: 1380000000 cycles: 2163120767 heartbeat IPC: 0.568198 cumulative IPC: 0.563459 (Simulation time: 5 hr 29 min 39 sec) 
Heartbeat CPU 3 instructions: 1630000003 cycles: 2169423988 heartbeat IPC: 0.541027 cumulative IPC: 0.670902 (Simulation time: 5 hr 30 min 31 sec) 
Heartbeat CPU 2 instructions: 990000000 cycles: 2172316708 heartbeat IPC: 0.380367 cumulative IPC: 0.376083 (Simulation time: 5 hr 30 min 54 sec) 
Heartbeat CPU 1 instructions: 1080000000 cycles: 2173436670 heartbeat IPC: 0.44245 cumulative IPC: 0.430267 (Simulation time: 5 hr 31 min 4 sec) 
Heartbeat CPU 0 instructions: 1390000003 cycles: 2180703209 heartbeat IPC: 0.568749 cumulative IPC: 0.563504 (Simulation time: 5 hr 32 min 4 sec) 
Heartbeat CPU 3 instructions: 1640000000 cycles: 2187749216 heartbeat IPC: 0.545696 cumulative IPC: 0.669788 (Simulation time: 5 hr 33 min 5 sec) 
Heartbeat CPU 2 instructions: 1000000000 cycles: 2191689327 heartbeat IPC: 0.516192 cumulative IPC: 0.377399 (Simulation time: 5 hr 33 min 40 sec) 
Heartbeat CPU 1 instructions: 1090000003 cycles: 2195943781 heartbeat IPC: 0.444304 cumulative IPC: 0.43042 (Simulation time: 5 hr 34 min 16 sec) 
Heartbeat CPU 0 instructions: 1400000000 cycles: 2198315643 heartbeat IPC: 0.56778 cumulative IPC: 0.56354 (Simulation time: 5 hr 34 min 37 sec) 
Heartbeat CPU 3 instructions: 1650000002 cycles: 2205984194 heartbeat IPC: 0.548397 cumulative IPC: 0.668723 (Simulation time: 5 hr 35 min 43 sec) 
Heartbeat CPU 2 instructions: 1010000000 cycles: 2211045849 heartbeat IPC: 0.516622 cumulative IPC: 0.378692 (Simulation time: 5 hr 36 min 26 sec) 
Heartbeat CPU 0 instructions: 1410000002 cycles: 2216018832 heartbeat IPC: 0.56487 cumulative IPC: 0.563552 (Simulation time: 5 hr 37 min 7 sec) 
Heartbeat CPU 1 instructions: 1100000000 cycles: 2218489141 heartbeat IPC: 0.44355 cumulative IPC: 0.430562 (Simulation time: 5 hr 37 min 27 sec) 
Heartbeat CPU 3 instructions: 1660000000 cycles: 2224161227 heartbeat IPC: 0.550145 cumulative IPC: 0.667694 (Simulation time: 5 hr 38 min 13 sec) 
Heartbeat CPU 0 instructions: 1420000000 cycles: 2233607989 heartbeat IPC: 0.568532 cumulative IPC: 0.563593 (Simulation time: 5 hr 39 min 28 sec) 
Heartbeat CPU 2 instructions: 1020000000 cycles: 2238559177 heartbeat IPC: 0.36346 cumulative IPC: 0.378494 (Simulation time: 5 hr 40 min 4 sec) 
Heartbeat CPU 1 instructions: 1110000002 cycles: 2240912770 heartbeat IPC: 0.445958 cumulative IPC: 0.430725 (Simulation time: 5 hr 40 min 23 sec) 
Heartbeat CPU 3 instructions: 1670000000 cycles: 2242910181 heartbeat IPC: 0.533363 cumulative IPC: 0.666503 (Simulation time: 5 hr 40 min 39 sec) 
Heartbeat CPU 0 instructions: 1430000002 cycles: 2251324207 heartbeat IPC: 0.564455 cumulative IPC: 0.5636 (Simulation time: 5 hr 41 min 46 sec) 
Heartbeat CPU 3 instructions: 1680000000 cycles: 2261819543 heartbeat IPC: 0.528839 cumulative IPC: 0.665283 (Simulation time: 5 hr 43 min 9 sec) 
Heartbeat CPU 1 instructions: 1120000000 cycles: 2263861128 heartbeat IPC: 0.435761 cumulative IPC: 0.430779 (Simulation time: 5 hr 43 min 26 sec) 
Heartbeat CPU 0 instructions: 1440000000 cycles: 2268939706 heartbeat IPC: 0.567682 cumulative IPC: 0.563634 (Simulation time: 5 hr 44 min 6 sec) 
Heartbeat CPU 2 instructions: 1030000003 cycles: 2270237659 heartbeat IPC: 0.315672 cumulative IPC: 0.377565 (Simulation time: 5 hr 44 min 16 sec) 
Heartbeat CPU 3 instructions: 1690000002 cycles: 2281401309 heartbeat IPC: 0.510679 cumulative IPC: 0.663877 (Simulation time: 5 hr 45 min 40 sec) 
Heartbeat CPU 0 instructions: 1450000000 cycles: 2286568636 heartbeat IPC: 0.567249 cumulative IPC: 0.563663 (Simulation time: 5 hr 46 min 20 sec) 
Heartbeat CPU 1 instructions: 1130000003 cycles: 2286889679 heartbeat IPC: 0.434244 cumulative IPC: 0.430816 (Simulation time: 5 hr 46 min 22 sec) 
Heartbeat CPU 2 instructions: 1040000000 cycles: 2298160052 heartbeat IPC: 0.358135 cumulative IPC: 0.377315 (Simulation time: 5 hr 47 min 48 sec) 
Heartbeat CPU 3 instructions: 1700000000 cycles: 2300626397 heartbeat IPC: 0.520154 cumulative IPC: 0.662605 (Simulation time: 5 hr 48 min 8 sec) 
Heartbeat CPU 0 instructions: 1460000000 cycles: 2304237525 heartbeat IPC: 0.565967 cumulative IPC: 0.563682 (Simulation time: 5 hr 48 min 36 sec) 
Heartbeat CPU 1 instructions: 1140000000 cycles: 2309889763 heartbeat IPC: 0.434781 cumulative IPC: 0.430858 (Simulation time: 5 hr 49 min 21 sec) 
Heartbeat CPU 3 instructions: 1710000000 cycles: 2319758811 heartbeat IPC: 0.522673 cumulative IPC: 0.661384 (Simulation time: 5 hr 50 min 35 sec) 
Heartbeat CPU 0 instructions: 1470000001 cycles: 2321853453 heartbeat IPC: 0.567668 cumulative IPC: 0.563714 (Simulation time: 5 hr 50 min 51 sec) 
Heartbeat CPU 2 instructions: 1050000000 cycles: 2322410695 heartbeat IPC: 0.41236 cumulative IPC: 0.377702 (Simulation time: 5 hr 50 min 55 sec) 
Heartbeat CPU 1 instructions: 1150000003 cycles: 2333053309 heartbeat IPC: 0.431713 cumulative IPC: 0.430867 (Simulation time: 5 hr 52 min 11 sec) 
Heartbeat CPU 3 instructions: 1720000000 cycles: 2338077394 heartbeat IPC: 0.545894 cumulative IPC: 0.660426 (Simulation time: 5 hr 52 min 49 sec) 
[...]
Heartbeat CPU 2 instructions: 1150000000 cycles: 2604059663 heartbeat IPC: 0.370268 cumulative IPC: 0.375125 (Simulation time: 6 hr 26 min 17 sec) 
Heartbeat CPU 0 instructions: 1630000002 cycles: 2604523451 heartbeat IPC: 0.563599 cumulative IPC: 0.563979 (Simulation time: 6 hr 26 min 21 sec) 
Heartbeat CPU 1 instructions: 1270000003 cycles: 2613020783 heartbeat IPC: 0.431373 cumulative IPC: 0.430614 (Simulation time: 6 hr 27 min 25 sec) 
Heartbeat CPU 3 instructions: 1870000000 cycles: 2613635629 heartbeat IPC: 0.550716 cumulative IPC: 0.647557 (Simulation time: 6 hr 27 min 30 sec) 
Heartbeat CPU 0 instructions: 1640000000 cycles: 2622264885 heartbeat IPC: 0.563652 cumulative IPC: 0.563976 (Simulation time: 6 hr 28 min 38 sec) 
Heartbeat CPU 2 instructions: 1160000000 cycles: 2624061174 heartbeat IPC: 0.499962 cumulative IPC: 0.376126 (Simulation time: 6 hr 28 min 53 sec) 
Heartbeat CPU 3 instructions: 1880000000 cycles: 2631481408 heartbeat IPC: 0.560357 cumulative IPC: 0.646935 (Simulation time: 6 hr 29 min 50 sec) 
Heartbeat CPU 1 instructions: 1280000000 cycles: 2636004724 heartbeat IPC: 0.435086 cumulative IPC: 0.430655 (Simulation time: 6 hr 30 min 25 sec) 
Heartbeat CPU 0 instructions: 1650000000 cycles: 2640005025 heartbeat IPC: 0.563693 cumulative IPC: 0.563974 (Simulation time: 6 hr 30 min 55 sec) 
Heartbeat CPU 2 instructions: 1170000000 cycles: 2645733880 heartbeat IPC: 0.46141 cumulative IPC: 0.37686 (Simulation time: 6 hr 31 min 38 sec) 
Heartbeat CPU 3 instructions: 1890000002 cycles: 2649136646 heartbeat IPC: 0.566404 cumulative IPC: 0.646371 (Simulation time: 6 hr 32 min 4 sec) 
Heartbeat CPU 0 instructions: 1660000000 cycles: 2657804945 heartbeat IPC: 0.5618 cumulative IPC: 0.563959 (Simulation time: 6 hr 33 min 6 sec) 
Heartbeat CPU 1 instructions: 1290000000 cycles: 2659164788 heartbeat IPC: 0.431778 cumulative IPC: 0.430665 (Simulation time: 6 hr 33 min 15 sec) 
Heartbeat CPU 3 instructions: 1900000000 cycles: 2666808689 heartbeat IPC: 0.565865 cumulative IPC: 0.645811 (Simulation time: 6 hr 34 min 11 sec) 
Heartbeat CPU 0 instructions: 1670000000 cycles: 2675699414 heartbeat IPC: 0.558832 cumulative IPC: 0.563923 (Simulation time: 6 hr 35 min 16 sec) 
Heartbeat CPU 2 instructions: 1180000000 cycles: 2677951847 heartbeat IPC: 0.310386 cumulative IPC: 0.37602 (Simulation time: 6 hr 35 min 33 sec) 
Heartbeat CPU 1 instructions: 1300000000 cycles: 2682283511 heartbeat IPC: 0.43255 cumulative IPC: 0.430682 (Simulation time: 6 hr 36 min 5 sec) 
Heartbeat CPU 3 instructions: 1910000000 cycles: 2684922441 heartbeat IPC: 0.552067 cumulative IPC: 0.645147 (Simulation time: 6 hr 36 min 25 sec) 
Heartbeat CPU 0 instructions: 1680000000 cycles: 2693622023 heartbeat IPC: 0.557954 cumulative IPC: 0.563881 (Simulation time: 6 hr 37 min 29 sec) 
Heartbeat CPU 3 instructions: 1920000000 cycles: 2703029418 heartbeat IPC: 0.552273 cumulative IPC: 0.644494 (Simulation time: 6 hr 38 min 38 sec) 
Heartbeat CPU 1 instructions: 1310000001 cycles: 2705410340 heartbeat IPC: 0.432398 cumulative IPC: 0.430698 (Simulation time: 6 hr 38 min 54 sec) 
Heartbeat CPU 2 instructions: 1190000000 cycles: 2708984890 heartbeat IPC: 0.322237 cumulative IPC: 0.375373 (Simulation time: 6 hr 39 min 20 sec) 
Heartbeat CPU 0 instructions: 1690000003 cycles: 2711458259 heartbeat IPC: 0.560657 cumulative IPC: 0.563859 (Simulation time: 6 hr 39 min 38 sec) 
Heartbeat CPU 3 instructions: 1930000001 cycles: 2721172224 heartbeat IPC: 0.551183 cumulative IPC: 0.643841 (Simulation time: 6 hr 40 min 49 sec) 
Heartbeat CPU 1 instructions: 1320000000 cycles: 2728434502 heartbeat IPC: 0.434326 cumulative IPC: 0.43073 (Simulation time: 6 hr 41 min 43 sec) 
Heartbeat CPU 0 instructions: 1700000000 cycles: 2729267402 heartbeat IPC: 0.561509 cumulative IPC: 0.563843 (Simulation time: 6 hr 41 min 49 sec) 
Heartbeat CPU 3 instructions: 1940000000 cycles: 2738937590 heartbeat IPC: 0.562893 cumulative IPC: 0.64329 (Simulation time: 6 hr 43 min 0 sec) 
Heartbeat CPU 2 instructions: 1200000000 cycles: 2740162969 heartbeat IPC: 0.320738 cumulative IPC: 0.374721 (Simulation time: 6 hr 43 min 9 sec) 
Heartbeat CPU 0 instructions: 1710000001 cycles: 2747191373 heartbeat IPC: 0.557912 cumulative IPC: 0.563802 (Simulation time: 6 hr 44 min 1 sec) 
Heartbeat CPU 1 instructions: 1330000000 cycles: 2751472988 heartbeat IPC: 0.434056 cumulative IPC: 0.430759 (Simulation time: 6 hr 44 min 33 sec) 
Heartbeat CPU 3 instructions: 1950000000 cycles: 2757075121 heartbeat IPC: 0.551343 cumulative IPC: 0.642656 (Simulation time: 6 hr 45 min 15 sec) 
Heartbeat CPU 0 instructions: 1720000000 cycles: 2764996332 heartbeat IPC: 0.561641 cumulative IPC: 0.563788 (Simulation time: 6 hr 46 min 14 sec) 
Heartbeat CPU 2 instructions: 1210000001 cycles: 2768438805 heartbeat IPC: 0.353659 cumulative IPC: 0.374496 (Simulation time: 6 hr 46 min 40 sec) 
Heartbeat CPU 1 instructions: 1340000000 cycles: 2774269930 heartbeat IPC: 0.438655 cumulative IPC: 0.430827 (Simulation time: 6 hr 47 min 23 sec) 
Heartbeat CPU 3 instructions: 1960000000 cycles: 2775232772 heartbeat IPC: 0.550732 cumulative IPC: 0.642025 (Simulation time: 6 hr 47 min 31 sec) 
Heartbeat CPU 0 instructions: 1730000001 cycles: 2782752028 heartbeat IPC: 0.5632 cumulative IPC: 0.563784 (Simulation time: 6 hr 48 min 27 sec) 
Heartbeat CPU 2 instructions: 1220000000 cycles: 2792664896 heartbeat IPC: 0.412778 cumulative IPC: 0.374844 (Simulation time: 6 hr 49 min 42 sec) 
Heartbeat CPU 3 instructions: 1970000003 cycles: 2793710239 heartbeat IPC: 0.5412 cumulative IPC: 0.641326 (Simulation time: 6 hr 49 min 51 sec) 
Finished CPU 2 instructions: 1000000001 cycles: 2666757891 cumulative IPC: 0.374987 (Simulation time: 6 hr 50 min 0 sec) 

CPU 0 Branch Prediction Accuracy: 98.2549% MPKI: 2.14044

CPU 1 Branch Prediction Accuracy: 85.1983% MPKI: 16.3874

CPU 2 Branch Prediction Accuracy: 99.278% MPKI: 1.80686

CPU 3 Branch Prediction Accuracy: 97.8067% MPKI: 0.330999

ChampSim completed all CPUs

Total Simulation Statistics (not including warmup)

CPU 0 cumulative IPC: 0.563771 instructions: 1503440276 cycles: 2666757890
L1D TOTAL     ACCESS:  446291892  HIT:  432389272  MISS:   13902620
L1D LOAD      ACCESS:  419379322  HIT:  405485308  MISS:   13894014
L1D RFO       ACCESS:   26912570  HIT:   26903964  MISS:       8606
L1D PREFETCH  ACCESS:          0  HIT:          0  MISS:          0
L1D WRITEBACK ACCESS:          0  HIT:          0  MISS:          0
L1I TOTAL     ACCESS:  510388022  HIT:  510388022  MISS:          0
L1I LOAD      ACCESS:  510388022  HIT:  510388022  MISS:          0
L1I RFO       ACCESS:          0  HIT:          0  MISS:          0
L1I PREFETCH  ACCESS:          0  HIT:          0  MISS:          0
L1I WRITEBACK ACCESS:          0  HIT:          0  MISS:          0
L2C TOTAL     ACCESS:   14932459  HIT:   13164393  MISS:    1768066
L2C LOAD      ACCESS:   13894014  HIT:   13139592  MISS:     754422
L2C RFO       ACCESS:       8606  HIT:       7411  MISS:       1195
L2C PREFETCH  ACCESS:    1021232  HIT:       8785  MISS:    1012447
L2C WRITEBACK ACCESS:       8607  HIT:       8605  MISS:          2

L2C DA-AMPM prefetcher final stats
LLC TOTAL     ACCESS:    1769261  HIT:     454356  MISS:    1314905
LLC LOAD      ACCESS:     754159  HIT:     453926  MISS:     300233
LLC RFO       ACCESS:       1195  HIT:        116  MISS:       1079
LLC PREFETCH  ACCESS:    1012710  HIT:          0  MISS:    1012710
LLC WRITEBACK ACCESS:       1197  HIT:        314  MISS:        883

CPU 1 cumulative IPC: 0.430867 instructions: 1149016849 cycles: 2666757890
L1D TOTAL     ACCESS:  371375446  HIT:  366915189  MISS:    4460257
L1D LOAD      ACCESS:  235534434  HIT:  232101252  MISS:    3433182
L1D RFO       ACCESS:  135841012  HIT:  134813937  MISS:    1027075
L1D PREFETCH  ACCESS:          0  HIT:          0  MISS:          0
L1D WRITEBACK ACCESS:          0  HIT:          0  MISS:          0
L1I TOTAL     ACCESS:  268852573  HIT:  268539031  MISS:     313542
L1I LOAD      ACCESS:  268852573  HIT:  268539031  MISS:     313542
L1I RFO       ACCESS:          0  HIT:          0  MISS:          0
L1I PREFETCH  ACCESS:          0  HIT:          0  MISS:          0
L1I WRITEBACK ACCESS:          0  HIT:          0  MISS:          0
L2C TOTAL     ACCESS:    6545766  HIT:    6378725  MISS:     167041
L2C LOAD      ACCESS:    3746700  HIT:    3684355  MISS:      62345
L2C RFO       ACCESS:    1027042  HIT:     979968  MISS:      47074
L2C PREFETCH  ACCESS:      77472  HIT:      20195  MISS:      57277
L2C WRITEBACK ACCESS:    1694552  HIT:    1694207  MISS:        345

L2C DA-AMPM prefetcher final stats
LLC TOTAL     ACCESS:     234272  HIT:      72479  MISS:     161793
LLC LOAD      ACCESS:      58270  HIT:      11488  MISS:      46782
LLC RFO       ACCESS:      47068  HIT:       1340  MISS:      45728
LLC PREFETCH  ACCESS:      61358  HIT:      19062  MISS:      42296
LLC WRITEBACK ACCESS:      67576  HIT:      40589  MISS:      26987

CPU 2 cumulative IPC: 0.374987 instructions: 1000000001 cycles: 2666757891
L1D TOTAL     ACCESS:  243362100  HIT:  190797602  MISS:   52564498
L1D LOAD      ACCESS:  175878571  HIT:  124999375  MISS:   50879196
L1D RFO       ACCESS:   67483529  HIT:   65798227  MISS:    1685302
L1D PREFETCH  ACCESS:          0  HIT:          0  MISS:          0
L1D WRITEBACK ACCESS:          0  HIT:          0  MISS:          0
L1I TOTAL     ACCESS:  436268163  HIT:  433846071  MISS:    2422092
L1I LOAD      ACCESS:  436268163  HIT:  433846071  MISS:    2422092
L1I RFO       ACCESS:          0  HIT:          0  MISS:          0
L1I PREFETCH  ACCESS:          0  HIT:          0  MISS:          0
L1I WRITEBACK ACCESS:          0  HIT:          0  MISS:          0
L2C TOTAL     ACCESS:   66528334  HIT:   38401932  MISS:   28126402
L2C LOAD      ACCESS:   53300931  HIT:   30892129  MISS:   22408802
L2C RFO       ACCESS:    1685267  HIT:     287528  MISS:    1397739
L2C PREFETCH  ACCESS:    8778830  HIT:    4459682  MISS:    4319148
L2C WRITEBACK ACCESS:    2763306  HIT:    2762593  MISS:        713

L2C DA-AMPM prefetcher final stats
LLC TOTAL     ACCESS:   30126157  HIT:   28068776  MISS:    2057381
LLC LOAD      ACCESS:   22263339  HIT:   21754180  MISS:     509159
LLC RFO       ACCESS:    1394873  HIT:     160449  MISS:    1234424
LLC PREFETCH  ACCESS:    4467442  HIT:    4208278  MISS:     259164
LLC WRITEBACK ACCESS:    2000503  HIT:    1945869  MISS:      54634

CPU 3 cumulative IPC: 0.641258 instructions: 1710079217 cycles: 2666757891
L1D TOTAL     ACCESS:  468884363  HIT:  359541725  MISS:  109342638
L1D LOAD      ACCESS:  175718934  HIT:  159132005  MISS:   16586929
L1D RFO       ACCESS:  293165429  HIT:  200409720  MISS:   92755709
L1D PREFETCH  ACCESS:          0  HIT:          0  MISS:          0
L1D WRITEBACK ACCESS:          0  HIT:          0  MISS:          0
L1I TOTAL     ACCESS:  406467895  HIT:  406467892  MISS:          3
L1I LOAD      ACCESS:  406467895  HIT:  406467892  MISS:          3
L1I RFO       ACCESS:          0  HIT:          0  MISS:          0
L1I PREFETCH  ACCESS:          0  HIT:          0  MISS:          0
L1I WRITEBACK ACCESS:          0  HIT:          0  MISS:          0
L2C TOTAL     ACCESS:  215892829  HIT:  135251319  MISS:   80641510
L2C LOAD      ACCESS:   16586932  HIT:   13712321  MISS:    2874611
L2C RFO       ACCESS:   92755053  HIT:   28705735  MISS:   64049318
L2C PREFETCH  ACCESS:   13795130  HIT:      97814  MISS:   13697316
L2C WRITEBACK ACCESS:   92755714  HIT:   92735449  MISS:      20265

L2C DA-AMPM prefetcher final stats
LLC TOTAL     ACCESS:  144653000  HIT:   78421211  MISS:   66231789
LLC LOAD      ACCESS:    2291754  HIT:      14784  MISS:    2276970
LLC RFO       ACCESS:   64012582  HIT:   14340179  MISS:   49672403
LLC PREFETCH  ACCESS:   14280173  HIT:          5  MISS:   14280168
LLC WRITEBACK ACCESS:   64068491  HIT:   64066243  MISS:       2248

Region of Interest Statistics

CPU 0 cumulative IPC: 0.562868 instructions: 1000000000 cycles: 1776615674
L1D TOTAL     ACCESS:  296733383  HIT:  287503915  MISS:    9229468
L1D LOAD      ACCESS:  278611038  HIT:  269386764  MISS:    9224274
L1D RFO       ACCESS:   18122345  HIT:   18117151  MISS:       5194
L1D PREFETCH  ACCESS:          0  HIT:          0  MISS:          0
L1D WRITEBACK ACCESS:          0  HIT:          0  MISS:          0
L1D PREFETCH  REQUESTED:          0  ISSUED:          0  USEFUL:          0  USELESS:          0
L1I TOTAL     ACCESS:  338859246  HIT:  338859246  MISS:          0
L1I LOAD      ACCESS:  338859246  HIT:  338859246  MISS:          0
L1I RFO       ACCESS:          0  HIT:          0  MISS:          0
L1I PREFETCH  ACCESS:          0  HIT:          0  MISS:          0
L1I WRITEBACK ACCESS:          0  HIT:          0  MISS:          0
L1I PREFETCH  REQUESTED:          0  ISSUED:          0  USEFUL:          0  USELESS:          0
L2C TOTAL     ACCESS:    9910006  HIT:    8591421  MISS:    1318585
L2C LOAD      ACCESS:    9224274  HIT:    8575781  MISS:     648493
L2C RFO       ACCESS:       5194  HIT:       4427  MISS:        767
L2C PREFETCH  ACCESS:     675343  HIT:       6018  MISS:     669325
L2C WRITEBACK ACCESS:       5195  HIT:       5195  MISS:          0
L2C PREFETCH  REQUESTED:    1206240  ISSUED:    1206240  USEFUL:    1034329  USELESS:     135864
LLC TOTAL     ACCESS:    1319351  HIT:     436950  MISS:     882401
LLC LOAD      ACCESS:     648315  HIT:     436602  MISS:     211713
LLC RFO       ACCESS:        767  HIT:        116  MISS:        651
LLC PREFETCH  ACCESS:     669503  HIT:          0  MISS:     669503
LLC WRITEBACK ACCESS:        766  HIT:        232  MISS:        534
LLC PREFETCH  REQUESTED:          0  ISSUED:          0  USEFUL:      39701  USELESS:   18528742
Major fault: 0 Minor fault: 21239

CPU 1 cumulative IPC: 0.430499 instructions: 1000000000 cycles: 2322884816
L1D TOTAL     ACCESS:  323763721  HIT:  319931587  MISS:    3832134
L1D LOAD      ACCESS:  205379849  HIT:  202430786  MISS:    2949063
L1D RFO       ACCESS:  118383872  HIT:  117500801  MISS:     883071
L1D PREFETCH  ACCESS:          0  HIT:          0  MISS:          0
L1D WRITEBACK ACCESS:          0  HIT:          0  MISS:          0
L1D PREFETCH  REQUESTED:          0  ISSUED:          0  USEFUL:          0  USELESS:          0
L1I TOTAL     ACCESS:  233819122  HIT:  233546071  MISS:     273051
L1I LOAD      ACCESS:  233819122  HIT:  233546071  MISS:     273051
L1I RFO       ACCESS:          0  HIT:          0  MISS:          0
L1I PREFETCH  ACCESS:          0  HIT:          0  MISS:          0
L1I WRITEBACK ACCESS:          0  HIT:          0  MISS:          0
L1I PREFETCH  REQUESTED:          0  ISSUED:          0  USEFUL:          0  USELESS:          0
L2C TOTAL     ACCESS:    5614675  HIT:    5465865  MISS:     148810
L2C LOAD      ACCESS:    3222101  HIT:    3171088  MISS:      51013
L2C RFO       ACCESS:     883040  HIT:     836903  MISS:      46137
L2C PREFETCH  ACCESS:      66462  HIT:      15101  MISS:      51361
L2C WRITEBACK ACCESS:    1443072  HIT:    1442773  MISS:        299
L2C PREFETCH  REQUESTED:     208566  ISSUED:     208566  USEFUL:     150133  USELESS:      23192
LLC TOTAL     ACCESS:     209943  HIT:      69644  MISS:     140299
LLC LOAD      ACCESS:      48087  HIT:       9836  MISS:      38251
LLC RFO       ACCESS:      46133  HIT:       1269  MISS:      44864
LLC PREFETCH  ACCESS:      54291  HIT:      18523  MISS:      35768
LLC WRITEBACK ACCESS:      61432  HIT:      40016  MISS:      21416
LLC PREFETCH  REQUESTED:          0  ISSUED:          0  USEFUL:      39701  USELESS:   18528742
Major fault: 0 Minor fault: 1624

CPU 2 cumulative IPC: 0.374987 instructions: 1000000001 cycles: 2666757891
L1D TOTAL     ACCESS:  243362100  HIT:  190797602  MISS:   52564498
L1D LOAD      ACCESS:  175878571  HIT:  124999375  MISS:   50879196
L1D RFO       ACCESS:   67483529  HIT:   65798227  MISS:    1685302
L1D PREFETCH  ACCESS:          0  HIT:          0  MISS:          0
L1D WRITEBACK ACCESS:          0  HIT:          0  MISS:          0
L1D PREFETCH  REQUESTED:          0  ISSUED:          0  USEFUL:          0  USELESS:          0
L1I TOTAL     ACCESS:  436268163  HIT:  433846071  MISS:    2422092
L1I LOAD      ACCESS:  436268163  HIT:  433846071  MISS:    2422092
L1I RFO       ACCESS:          0  HIT:          0  MISS:          0
L1I PREFETCH  ACCESS:          0  HIT:          0  MISS:          0
L1I WRITEBACK ACCESS:          0  HIT:          0  MISS:          0
L1I PREFETCH  REQUESTED:          0  ISSUED:          0  USEFUL:          0  USELESS:          0
L2C TOTAL     ACCESS:   66528334  HIT:   38401932  MISS:   28126402
L2C LOAD      ACCESS:   53300931  HIT:   30892129  MISS:   22408802
L2C RFO       ACCESS:    1685267  HIT:     287528  MISS:    1397739
L2C PREFETCH  ACCESS:    8778830  HIT:    4459682  MISS:    4319148
L2C WRITEBACK ACCESS:    2763306  HIT:    2762593  MISS:        713
L2C PREFETCH  REQUESTED:   11465546  ISSUED:   11465546  USEFUL:    1731515  USELESS:    3597655
LLC TOTAL     ACCESS:   30126157  HIT:   28068776  MISS:    2057381
LLC LOAD      ACCESS:   22263339  HIT:   21754180  MISS:     509159
LLC RFO       ACCESS:    1394873  HIT:     160449  MISS:    1234424
LLC PREFETCH  ACCESS:    4467442  HIT:    4208278  MISS:     259164
LLC WRITEBACK ACCESS:    2000503  HIT:    1945869  MISS:      54634
LLC PREFETCH  REQUESTED:          0  ISSUED:          0  USEFUL:      39701  USELESS:   18528742
Major fault: 0 Minor fault: 6230

CPU 3 cumulative IPC: 0.73495 instructions: 1000000001 cycles: 1360637492
L1D TOTAL     ACCESS:  267731766  HIT:  213791594  MISS:   53940172
L1D LOAD      ACCESS:  104186171  HIT:   96006459  MISS:    8179712
L1D RFO       ACCESS:  163545595  HIT:  117785135  MISS:   45760460
L1D PREFETCH  ACCESS:          0  HIT:          0  MISS:          0
L1D WRITEBACK ACCESS:          0  HIT:          0  MISS:          0
L1D PREFETCH  REQUESTED:          0  ISSUED:          0  USEFUL:          0  USELESS:          0
L1I TOTAL     ACCESS:  236485213  HIT:  236485210  MISS:          3
L1I LOAD      ACCESS:  236485213  HIT:  236485210  MISS:          3
L1I RFO       ACCESS:          0  HIT:          0  MISS:          0
L1I PREFETCH  ACCESS:          0  HIT:          0  MISS:          0
L1I WRITEBACK ACCESS:          0  HIT:          0  MISS:          0
L1I PREFETCH  REQUESTED:          0  ISSUED:          0  USEFUL:          0  USELESS:          0
L2C TOTAL     ACCESS:  106572715  HIT:   66808970  MISS:   39763745
L2C LOAD      ACCESS:    8179715  HIT:    6828799  MISS:    1350916
L2C RFO       ACCESS:   45760233  HIT:   14177904  MISS:   31582329
L2C PREFETCH  ACCESS:    6872299  HIT:      48771  MISS:    6823528
L2C WRITEBACK ACCESS:   45760468  HIT:   45753496  MISS:       6972
L2C PREFETCH  REQUESTED:   17638300  ISSUED:   17638300  USEFUL:   16440298  USELESS:         73
LLC TOTAL     ACCESS:   71326253  HIT:   38646712  MISS:   32679541
LLC LOAD      ACCESS:    1099508  HIT:       5034  MISS:    1094474
LLC RFO       ACCESS:   31563210  HIT:    7053983  MISS:   24509227
LLC PREFETCH  ACCESS:    7074936  HIT:          4  MISS:    7074932
LLC WRITEBACK ACCESS:   31588599  HIT:   31587691  MISS:        908
LLC PREFETCH  REQUESTED:          0  ISSUED:          0  USEFUL:      39701  USELESS:   18528742
Major fault: 0 Minor fault: 620942

L2C DA-AMPM prefetcher final stats

L2C DA-AMPM prefetcher final stats

L2C DA-AMPM prefetcher final stats

L2C DA-AMPM prefetcher final stats

DRAM Statistics
 CHANNEL 0
 RQ ROW_BUFFER_HIT:    7973787  ROW_BUFFER_MISS:   26858026
 DBUS_CONGESTED:   75771511
 WQ ROW_BUFFER_HIT:    3051546  ROW_BUFFER_MISS:   22567959  FULL:          0

 CHANNEL 1
 RQ ROW_BUFFER_HIT:    7996656  ROW_BUFFER_MISS:   26852609
 DBUS_CONGESTED:   75771511
 WQ ROW_BUFFER_HIT:    3047228  ROW_BUFFER_MISS:   22572888  FULL:          0

 AVG_CONGESTED_CYCLE: 14
