
*** ChampSim Multicore Out-of-Order Simulator ***

Warmup Instructions: 200000000
Simulation Instructions: 1000000000
Number of CPUs: 4
LLC sets: 8192
LLC ways: 16
Off-chip DRAM Size: 8192 MB Channels: 2 Width: 64-bit Data Rate: 1600 MT/s

CPU 0 runs /scratch/user/djimenez/champsim-traces/speccpu2017/xz/607.cactuBSSN_s/607.cactuBSSN_s-2421B.champsimtrace.xz
CPU 1 runs /scratch/user/djimenez/champsim-traces/speccpu2017/xz/648.exchange2_s/648.exchange2_s-1712B.champsimtrace.xz
CPU 2 runs /scratch/user/djimenez/champsim-traces/speccpu2017/xz/602.gcc_s/602.gcc_s-2226B.champsimtrace.xz
CPU 3 runs /scratch/user/djimenez/champsim-traces/speccpu2017/xz/641.leela_s/641.leela_s-1083B.champsimtrace.xz
L2C DA-AMPM prefetcher
L2C DA-AMPM prefetcher
L2C DA-AMPM prefetcher
L2C DA-AMPM prefetcher
Heartbeat CPU 1 instructions: 10000000 cycles: 4419278 heartbeat IPC: 2.26281 cumulative IPC: 2.26281 (Simulation time: 0 hr 1 min 41 sec) 
Heartbeat CPU 2 instructions: 10000000 cycles: 4868607 heartbeat IPC: 2.05398 cumulative IPC: 2.05398 (Simulation time: 0 hr 1 min 51 sec) 
Heartbeat CPU 0 instructions: 10000000 cycles: 5800972 heartbeat IPC: 1.72385 cumulative IPC: 1.72385 (Simulation time: 0 hr 2 min 11 sec) 
Heartbeat CPU 3 instructions: 10000000 cycles: 6306961 heartbeat IPC: 1.58555 cumulative IPC: 1.58555 (Simulation time: 0 hr 2 min 22 sec) 
Heartbeat CPU 1 instructions: 20000000 cycles: 8771664 heartbeat IPC: 2.29759 cumulative IPC: 2.28007 (Simulation time: 0 hr 3 min 16 sec) 
Heartbeat CPU 2 instructions: 20000000 cycles: 9733494 heartbeat IPC: 2.05555 cumulative IPC: 2.05476 (Simulation time: 0 hr 3 min 38 sec) 
Heartbeat CPU 0 instructions: 20000000 cycles: 11600915 heartbeat IPC: 1.72415 cumulative IPC: 1.724 (Simulation time: 0 hr 4 min 22 sec) 
Heartbeat CPU 3 instructions: 20000000 cycles: 12630774 heartbeat IPC: 1.58132 cumulative IPC: 1.58343 (Simulation time: 0 hr 4 min 44 sec) 
Heartbeat CPU 1 instructions: 30000003 cycles: 13154708 heartbeat IPC: 2.28152 cumulative IPC: 2.28055 (Simulation time: 0 hr 4 min 55 sec) 
Heartbeat CPU 2 instructions: 30000000 cycles: 14593342 heartbeat IPC: 2.05768 cumulative IPC: 2.05573 (Simulation time: 0 hr 5 min 29 sec) 
Heartbeat CPU 0 instructions: 30000001 cycles: 17402915 heartbeat IPC: 1.72354 cumulative IPC: 1.72385 (Simulation time: 0 hr 6 min 30 sec) 
Heartbeat CPU 1 instructions: 40000000 cycles: 17519570 heartbeat IPC: 2.29102 cumulative IPC: 2.28316 (Simulation time: 0 hr 6 min 32 sec) 
Heartbeat CPU 3 instructions: 30000002 cycles: 18979099 heartbeat IPC: 1.57522 cumulative IPC: 1.58069 (Simulation time: 0 hr 7 min 3 sec) 
Heartbeat CPU 2 instructions: 40000000 cycles: 19453161 heartbeat IPC: 2.05769 cumulative IPC: 2.05622 (Simulation time: 0 hr 7 min 12 sec) 
Heartbeat CPU 1 instructions: 50000000 cycles: 21918954 heartbeat IPC: 2.27305 cumulative IPC: 2.28113 (Simulation time: 0 hr 8 min 6 sec) 
Heartbeat CPU 0 instructions: 40000000 cycles: 23205028 heartbeat IPC: 1.72351 cumulative IPC: 1.72376 (Simulation time: 0 hr 8 min 33 sec) 
Heartbeat CPU 2 instructions: 50000003 cycles: 24321110 heartbeat IPC: 2.05425 cumulative IPC: 2.05583 (Simulation time: 0 hr 8 min 59 sec) 
Heartbeat CPU 3 instructions: 40000000 cycles: 25306709 heartbeat IPC: 1.58038 cumulative IPC: 1.58061 (Simulation time: 0 hr 9 min 23 sec) 
Heartbeat CPU 1 instructions: 60000000 cycles: 26309638 heartbeat IPC: 2.27755 cumulative IPC: 2.28053 (Simulation time: 0 hr 9 min 47 sec) 
Heartbeat CPU 0 instructions: 50000003 cycles: 29006477 heartbeat IPC: 1.72371 cumulative IPC: 1.72375 (Simulation time: 0 hr 10 min 53 sec) 
Heartbeat CPU 2 instructions: 60000000 cycles: 29187399 heartbeat IPC: 2.05495 cumulative IPC: 2.05568 (Simulation time: 0 hr 10 min 57 sec) 
Heartbeat CPU 1 instructions: 70000002 cycles: 30720146 heartbeat IPC: 2.26731 cumulative IPC: 2.27864 (Simulation time: 0 hr 11 min 35 sec) 
Heartbeat CPU 3 instructions: 50000001 cycles: 31638289 heartbeat IPC: 1.57938 cumulative IPC: 1.58036 (Simulation time: 0 hr 11 min 55 sec) 
Heartbeat CPU 0 instructions: 60000000 cycles: 33710670 heartbeat IPC: 2.12576 cumulative IPC: 1.77985 (Simulation time: 0 hr 12 min 40 sec) 
Heartbeat CPU 2 instructions: 70000000 cycles: 34046667 heartbeat IPC: 2.05792 cumulative IPC: 2.056 (Simulation time: 0 hr 12 min 47 sec) 
Heartbeat CPU 1 instructions: 80000000 cycles: 35123284 heartbeat IPC: 2.27111 cumulative IPC: 2.27769 (Simulation time: 0 hr 13 min 10 sec) 
Heartbeat CPU 3 instructions: 60000000 cycles: 37964717 heartbeat IPC: 1.58067 cumulative IPC: 1.58041 (Simulation time: 0 hr 14 min 12 sec) 
Heartbeat CPU 0 instructions: 70000000 cycles: 38140013 heartbeat IPC: 2.25767 cumulative IPC: 1.83534 (Simulation time: 0 hr 14 min 16 sec) 
Heartbeat CPU 2 instructions: 80000000 cycles: 38915056 heartbeat IPC: 2.05407 cumulative IPC: 2.05576 (Simulation time: 0 hr 14 min 35 sec) 
Heartbeat CPU 1 instructions: 90000000 cycles: 39518555 heartbeat IPC: 2.27517 cumulative IPC: 2.27741 (Simulation time: 0 hr 14 min 52 sec) 
Heartbeat CPU 0 instructions: 80000000 cycles: 42568541 heartbeat IPC: 2.25809 cumulative IPC: 1.87932 (Simulation time: 0 hr 16 min 6 sec) 
Heartbeat CPU 2 instructions: 90000000 cycles: 43782568 heartbeat IPC: 2.05444 cumulative IPC: 2.05561 (Simulation time: 0 hr 16 min 35 sec) 
Heartbeat CPU 1 instructions: 100000000 cycles: 43920193 heartbeat IPC: 2.27188 cumulative IPC: 2.27686 (Simulation time: 0 hr 16 min 38 sec) 
Heartbeat CPU 3 instructions: 70000003 cycles: 44300384 heartbeat IPC: 1.57837 cumulative IPC: 1.58012 (Simulation time: 0 hr 16 min 46 sec) 
Heartbeat CPU 0 instructions: 90000002 cycles: 46997781 heartbeat IPC: 2.25772 cumulative IPC: 1.91498 (Simulation time: 0 hr 18 min 0 sec) 
Heartbeat CPU 1 instructions: 110000000 cycles: 48329035 heartbeat IPC: 2.26817 cumulative IPC: 2.27606 (Simulation time: 0 hr 18 min 33 sec) 
Heartbeat CPU 2 instructions: 100000000 cycles: 48647698 heartbeat IPC: 2.05544 cumulative IPC: 2.0556 (Simulation time: 0 hr 18 min 40 sec) 
Heartbeat CPU 3 instructions: 80000000 cycles: 50617117 heartbeat IPC: 1.5831 cumulative IPC: 1.58049 (Simulation time: 0 hr 19 min 34 sec) 
Heartbeat CPU 0 instructions: 100000000 cycles: 51426865 heartbeat IPC: 2.2578 cumulative IPC: 1.94451 (Simulation time: 0 hr 19 min 52 sec) 
Heartbeat CPU 1 instructions: 120000000 cycles: 52743239 heartbeat IPC: 2.26541 cumulative IPC: 2.27517 (Simulation time: 0 hr 20 min 21 sec) 
Heartbeat CPU 2 instructions: 110000001 cycles: 53506790 heartbeat IPC: 2.058 cumulative IPC: 2.05581 (Simulation time: 0 hr 20 min 37 sec) 
Heartbeat CPU 0 instructions: 110000003 cycles: 55856279 heartbeat IPC: 2.25764 cumulative IPC: 1.96934 (Simulation time: 0 hr 21 min 30 sec) 
Heartbeat CPU 3 instructions: 90000001 cycles: 57000338 heartbeat IPC: 1.56661 cumulative IPC: 1.57894 (Simulation time: 0 hr 21 min 56 sec) 
Heartbeat CPU 1 instructions: 130000003 cycles: 57183162 heartbeat IPC: 2.25229 cumulative IPC: 2.2734 (Simulation time: 0 hr 22 min 0 sec) 
Heartbeat CPU 2 instructions: 120000000 cycles: 58393056 heartbeat IPC: 2.04655 cumulative IPC: 2.05504 (Simulation time: 0 hr 22 min 26 sec) 
Heartbeat CPU 0 instructions: 120000000 cycles: 60285507 heartbeat IPC: 2.25773 cumulative IPC: 1.99053 (Simulation time: 0 hr 23 min 7 sec) 
Heartbeat CPU 1 instructions: 140000000 cycles: 61611596 heartbeat IPC: 2.25813 cumulative IPC: 2.2723 (Simulation time: 0 hr 23 min 36 sec) 
Heartbeat CPU 2 instructions: 130000000 cycles: 63260251 heartbeat IPC: 2.05457 cumulative IPC: 2.055 (Simulation time: 0 hr 24 min 11 sec) 
Heartbeat CPU 3 instructions: 100000000 cycles: 63359169 heartbeat IPC: 1.57262 cumulative IPC: 1.5783 (Simulation time: 0 hr 24 min 13 sec) 
Heartbeat CPU 0 instructions: 130000000 cycles: 64714624 heartbeat IPC: 2.25779 cumulative IPC: 2.00882 (Simulation time: 0 hr 24 min 43 sec) 
Heartbeat CPU 1 instructions: 150000002 cycles: 66026685 heartbeat IPC: 2.26496 cumulative IPC: 2.27181 (Simulation time: 0 hr 25 min 11 sec) 
Heartbeat CPU 2 instructions: 140000000 cycles: 68122441 heartbeat IPC: 2.05669 cumulative IPC: 2.05512 (Simulation time: 0 hr 25 min 56 sec) 
Heartbeat CPU 0 instructions: 140000000 cycles: 69143985 heartbeat IPC: 2.25766 cumulative IPC: 2.02476 (Simulation time: 0 hr 26 min 18 sec) 
Heartbeat CPU 3 instructions: 110000000 cycles: 69647831 heartbeat IPC: 1.59016 cumulative IPC: 1.57937 (Simulation time: 0 hr 26 min 29 sec) 
Heartbeat CPU 1 instructions: 160000000 cycles: 70470325 heartbeat IPC: 2.25041 cumulative IPC: 2.27046 (Simulation time: 0 hr 26 min 46 sec) 
Heartbeat CPU 2 instructions: 150000000 cycles: 72984067 heartbeat IPC: 2.05693 cumulative IPC: 2.05524 (Simulation time: 0 hr 27 min 40 sec) 
Heartbeat CPU 0 instructions: 150000000 cycles: 73574180 heartbeat IPC: 2.25724 cumulative IPC: 2.03876 (Simulation time: 0 hr 27 min 53 sec) 
Heartbeat CPU 1 instructions: 170000000 cycles: 74906147 heartbeat IPC: 2.25437 cumulative IPC: 2.26951 (Simulation time: 0 hr 28 min 21 sec) 
Heartbeat CPU 3 instructions: 120000000 cycles: 75944747 heartbeat IPC: 1.58808 cumulative IPC: 1.5801 (Simulation time: 0 hr 28 min 43 sec) 
Heartbeat CPU 2 instructions: 160000000 cycles: 77855733 heartbeat IPC: 2.05269 cumulative IPC: 2.05508 (Simulation time: 0 hr 29 min 24 sec) 
Heartbeat CPU 0 instructions: 160000000 cycles: 78003544 heartbeat IPC: 2.25766 cumulative IPC: 2.05119 (Simulation time: 0 hr 29 min 27 sec) 
Heartbeat CPU 1 instructions: 180000000 cycles: 79357503 heartbeat IPC: 2.24651 cumulative IPC: 2.26822 (Simulation time: 0 hr 29 min 55 sec) 
Heartbeat CPU 3 instructions: 130000002 cycles: 82270338 heartbeat IPC: 1.58088 cumulative IPC: 1.58016 (Simulation time: 0 hr 30 min 57 sec) 
Heartbeat CPU 0 instructions: 170000000 cycles: 82432826 heartbeat IPC: 2.2577 cumulative IPC: 2.06229 (Simulation time: 0 hr 31 min 0 sec) 
Heartbeat CPU 2 instructions: 170000000 cycles: 82722862 heartbeat IPC: 2.0546 cumulative IPC: 2.05505 (Simulation time: 0 hr 31 min 7 sec) 
Heartbeat CPU 1 instructions: 190000002 cycles: 83803243 heartbeat IPC: 2.24934 cumulative IPC: 2.26722 (Simulation time: 0 hr 31 min 30 sec) 
Heartbeat CPU 0 instructions: 180000000 cycles: 86862028 heartbeat IPC: 2.25774 cumulative IPC: 2.07225 (Simulation time: 0 hr 32 min 35 sec) 
Heartbeat CPU 2 instructions: 180000000 cycles: 87581920 heartbeat IPC: 2.05801 cumulative IPC: 2.05522 (Simulation time: 0 hr 32 min 50 sec) 
Heartbeat CPU 1 instructions: 200000000 cycles: 88174678 heartbeat IPC: 2.28758 cumulative IPC: 2.26822 (Simulation time: 0 hr 33 min 3 sec) 
Heartbeat CPU 3 instructions: 140000000 cycles: 88610102 heartbeat IPC: 1.57735 cumulative IPC: 1.57996 (Simulation time: 0 hr 33 min 12 sec) 
Heartbeat CPU 0 instructions: 190000002 cycles: 91291427 heartbeat IPC: 2.25764 cumulative IPC: 2.08125 (Simulation time: 0 hr 34 min 9 sec) 
Heartbeat CPU 2 instructions: 190000001 cycles: 92462939 heartbeat IPC: 2.04875 cumulative IPC: 2.05488 (Simulation time: 0 hr 34 min 34 sec) 
Heartbeat CPU 1 instructions: 210000003 cycles: 92510486 heartbeat IPC: 2.30638 cumulative IPC: 0.108096 (Simulation time: 0 hr 34 min 35 sec) 
Heartbeat CPU 3 instructions: 150000000 cycles: 94922713 heartbeat IPC: 1.58413 cumulative IPC: 1.58023 (Simulation time: 0 hr 35 min 26 sec) 
Heartbeat CPU 0 instructions: 200000000 cycles: 95720599 heartbeat IPC: 2.25776 cumulative IPC: 2.08941 (Simulation time: 0 hr 35 min 43 sec) 
Heartbeat CPU 1 instructions: 220000000 cycles: 96804114 heartbeat IPC: 2.32903 cumulative IPC: 0.206603 (Simulation time: 0 hr 36 min 6 sec) 
Heartbeat CPU 2 instructions: 200000000 cycles: 97329978 heartbeat IPC: 2.05464 cumulative IPC: 2.05487 (Simulation time: 0 hr 36 min 17 sec) 
Heartbeat CPU 0 instructions: 210000000 cycles: 100149960 heartbeat IPC: 2.25766 cumulative IPC: 0.0998503 (Simulation time: 0 hr 37 min 17 sec) 
Heartbeat CPU 1 instructions: 230000001 cycles: 101137893 heartbeat IPC: 2.30746 cumulative IPC: 0.296625 (Simulation time: 0 hr 37 min 38 sec) 
Heartbeat CPU 3 instructions: 160000000 cycles: 101212883 heartbeat IPC: 1.58978 cumulative IPC: 1.58083 (Simulation time: 0 hr 37 min 40 sec) 
Heartbeat CPU 2 instructions: 210000002 cycles: 102193671 heartbeat IPC: 2.05605 cumulative IPC: 0.0978534 (Simulation time: 0 hr 38 min 1 sec) 
Heartbeat CPU 0 instructions: 220000000 cycles: 104578845 heartbeat IPC: 2.2579 cumulative IPC: 0.191243 (Simulation time: 0 hr 38 min 51 sec) 
Heartbeat CPU 1 instructions: 240000000 cycles: 105427095 heartbeat IPC: 2.33144 cumulative IPC: 0.379409 (Simulation time: 0 hr 39 min 9 sec) 
Heartbeat CPU 2 instructions: 220000000 cycles: 107052590 heartbeat IPC: 2.05807 cumulative IPC: 0.186824 (Simulation time: 0 hr 39 min 44 sec) 
Heartbeat CPU 3 instructions: 170000002 cycles: 107512976 heartbeat IPC: 1.58728 cumulative IPC: 1.5812 (Simulation time: 0 hr 39 min 54 sec) 
Heartbeat CPU 0 instructions: 230000002 cycles: 109007910 heartbeat IPC: 2.25781 cumulative IPC: 0.275209 (Simulation time: 0 hr 40 min 25 sec) 
Heartbeat CPU 1 instructions: 250000003 cycles: 109732102 heartbeat IPC: 2.32288 cumulative IPC: 0.455655 (Simulation time: 0 hr 40 min 41 sec) 
Heartbeat CPU 2 instructions: 230000000 cycles: 111924107 heartbeat IPC: 2.05275 cumulative IPC: 0.268039 (Simulation time: 0 hr 41 min 27 sec) 
Heartbeat CPU 0 instructions: 240000000 cycles: 113437211 heartbeat IPC: 2.25769 cumulative IPC: 0.352618 (Simulation time: 0 hr 41 min 58 sec) 
Heartbeat CPU 3 instructions: 180000000 cycles: 113836139 heartbeat IPC: 1.58149 cumulative IPC: 1.58122 (Simulation time: 0 hr 42 min 6 sec) 
Heartbeat CPU 1 instructions: 260000000 cycles: 114082447 heartbeat IPC: 2.29867 cumulative IPC: 0.525935 (Simulation time: 0 hr 42 min 11 sec) 
Heartbeat CPU 2 instructions: 240000000 cycles: 116790870 heartbeat IPC: 2.05475 cumulative IPC: 0.342493 (Simulation time: 0 hr 43 min 8 sec) 
Heartbeat CPU 0 instructions: 250000003 cycles: 117866861 heartbeat IPC: 2.25752 cumulative IPC: 0.424207 (Simulation time: 0 hr 43 min 30 sec) 
Heartbeat CPU 1 instructions: 270000001 cycles: 118395105 heartbeat IPC: 2.31876 cumulative IPC: 0.591241 (Simulation time: 0 hr 43 min 41 sec) 
Heartbeat CPU 3 instructions: 190000001 cycles: 120137479 heartbeat IPC: 1.58696 cumulative IPC: 1.58152 (Simulation time: 0 hr 44 min 18 sec) 
Heartbeat CPU 2 instructions: 250000003 cycles: 121653069 heartbeat IPC: 2.05668 cumulative IPC: 0.411005 (Simulation time: 0 hr 44 min 50 sec) 
Heartbeat CPU 0 instructions: 260000000 cycles: 122296351 heartbeat IPC: 2.2576 cumulative IPC: 0.490612 (Simulation time: 0 hr 45 min 3 sec) 
Heartbeat CPU 1 instructions: 280000000 cycles: 122697807 heartbeat IPC: 2.32412 cumulative IPC: 0.652008 (Simulation time: 0 hr 45 min 12 sec) 
Heartbeat CPU 3 instructions: 200000000 cycles: 126458435 heartbeat IPC: 1.58204 cumulative IPC: 1.58155 (Simulation time: 0 hr 46 min 31 sec) 

Warmup complete CPU 0 instructions: 269395367 cycles: 126458437 (Simulation time: 0 hr 46 min 31 sec) 
Warmup complete CPU 1 instructions: 288777365 cycles: 126458437 (Simulation time: 0 hr 46 min 31 sec) 
Warmup complete CPU 2 instructions: 259881548 cycles: 126458437 (Simulation time: 0 hr 46 min 31 sec) 
Warmup complete CPU 3 instructions: 200000001 cycles: 126458437 (Simulation time: 0 hr 46 min 31 sec) 

Heartbeat CPU 2 instructions: 260000000 cycles: 126866860 heartbeat IPC: 1.91799 cumulative IPC: 0.290023 (Simulation time: 0 hr 46 min 35 sec) 
Heartbeat CPU 0 instructions: 270000003 cycles: 126997489 heartbeat IPC: 2.12715 cumulative IPC: 1.12167 (Simulation time: 0 hr 46 min 37 sec) 
Heartbeat CPU 1 instructions: 290000000 cycles: 127192040 heartbeat IPC: 2.22507 cumulative IPC: 1.66662 (Simulation time: 0 hr 46 min 39 sec) 
Heartbeat CPU 1 instructions: 300000000 cycles: 133207000 heartbeat IPC: 1.66252 cumulative IPC: 1.66297 (Simulation time: 0 hr 47 min 47 sec) 
Heartbeat CPU 0 instructions: 280000000 cycles: 135882537 heartbeat IPC: 1.12549 cumulative IPC: 1.12527 (Simulation time: 0 hr 48 min 17 sec) 
Heartbeat CPU 1 instructions: 310000003 cycles: 139230081 heartbeat IPC: 1.66028 cumulative IPC: 1.6617 (Simulation time: 0 hr 48 min 55 sec) 
Heartbeat CPU 0 instructions: 290000000 cycles: 144864793 heartbeat IPC: 1.11331 cumulative IPC: 1.11943 (Simulation time: 0 hr 49 min 58 sec) 
Heartbeat CPU 1 instructions: 320000000 cycles: 145303622 heartbeat IPC: 1.64649 cumulative IPC: 1.6568 (Simulation time: 0 hr 50 min 3 sec) 
Heartbeat CPU 3 instructions: 210000002 cycles: 149661027 heartbeat IPC: 0.430986 cumulative IPC: 0.430986 (Simulation time: 0 hr 50 min 52 sec) 
Heartbeat CPU 1 instructions: 330000000 cycles: 151402375 heartbeat IPC: 1.63968 cumulative IPC: 1.65261 (Simulation time: 0 hr 51 min 11 sec) 
Heartbeat CPU 0 instructions: 300000000 cycles: 153842843 heartbeat IPC: 1.11383 cumulative IPC: 1.11759 (Simulation time: 0 hr 51 min 38 sec) 
Heartbeat CPU 1 instructions: 340000000 cycles: 157587894 heartbeat IPC: 1.61668 cumulative IPC: 1.64547 (Simulation time: 0 hr 52 min 20 sec) 
Heartbeat CPU 2 instructions: 270000000 cycles: 162573479 heartbeat IPC: 0.28006 cumulative IPC: 0.280173 (Simulation time: 0 hr 53 min 15 sec) 
Heartbeat CPU 0 instructions: 310000001 cycles: 162811382 heartbeat IPC: 1.11501 cumulative IPC: 1.11696 (Simulation time: 0 hr 53 min 17 sec) 
Heartbeat CPU 1 instructions: 350000000 cycles: 163739160 heartbeat IPC: 1.62568 cumulative IPC: 1.64221 (Simulation time: 0 hr 53 min 28 sec) 
Heartbeat CPU 1 instructions: 360000000 cycles: 171665795 heartbeat IPC: 1.26157 cumulative IPC: 1.57547 (Simulation time: 0 hr 54 min 50 sec) 
Heartbeat CPU 0 instructions: 320000000 cycles: 171734428 heartbeat IPC: 1.12069 cumulative IPC: 1.11769 (Simulation time: 0 hr 54 min 50 sec) 
Heartbeat CPU 3 instructions: 220000000 cycles: 172845190 heartbeat IPC: 0.431329 cumulative IPC: 0.431158 (Simulation time: 0 hr 55 min 2 sec) 
Heartbeat CPU 1 instructions: 370000003 cycles: 179051202 heartbeat IPC: 1.35402 cumulative IPC: 1.54437 (Simulation time: 0 hr 56 min 8 sec) 
Heartbeat CPU 0 instructions: 330000001 cycles: 180657464 heartbeat IPC: 1.12069 cumulative IPC: 1.11819 (Simulation time: 0 hr 56 min 27 sec) 
Heartbeat CPU 1 instructions: 380000000 cycles: 185147470 heartbeat IPC: 1.64035 cumulative IPC: 1.55434 (Simulation time: 0 hr 57 min 17 sec) 
Heartbeat CPU 0 instructions: 340000000 cycles: 189674515 heartbeat IPC: 1.10901 cumulative IPC: 1.11688 (Simulation time: 0 hr 58 min 8 sec) 
Heartbeat CPU 1 instructions: 390000000 cycles: 191253033 heartbeat IPC: 1.63785 cumulative IPC: 1.56221 (Simulation time: 0 hr 58 min 26 sec) 
Heartbeat CPU 3 instructions: 230000000 cycles: 196093442 heartbeat IPC: 0.43014 cumulative IPC: 0.430818 (Simulation time: 0 hr 59 min 21 sec) 
Heartbeat CPU 1 instructions: 400000000 cycles: 197353983 heartbeat IPC: 1.63909 cumulative IPC: 1.56882 (Simulation time: 0 hr 59 min 35 sec) 
Heartbeat CPU 2 instructions: 280000000 cycles: 198470893 heartbeat IPC: 0.278572 cumulative IPC: 0.279375 (Simulation time: 0 hr 59 min 48 sec) 
Heartbeat CPU 0 instructions: 350000002 cycles: 198648049 heartbeat IPC: 1.11439 cumulative IPC: 1.11657 (Simulation time: 0 hr 59 min 50 sec) 
Heartbeat CPU 1 instructions: 410000003 cycles: 203443687 heartbeat IPC: 1.64212 cumulative IPC: 1.57462 (Simulation time: 1 hr 0 min 44 sec) 
Heartbeat CPU 0 instructions: 360000000 cycles: 207608894 heartbeat IPC: 1.11597 cumulative IPC: 1.1165 (Simulation time: 1 hr 1 min 32 sec) 
Heartbeat CPU 1 instructions: 420000000 cycles: 209511769 heartbeat IPC: 1.64797 cumulative IPC: 1.57998 (Simulation time: 1 hr 1 min 53 sec) 
Heartbeat CPU 1 instructions: 430000003 cycles: 215628135 heartbeat IPC: 1.63496 cumulative IPC: 1.58375 (Simulation time: 1 hr 3 min 3 sec) 
Heartbeat CPU 0 instructions: 370000002 cycles: 216553245 heartbeat IPC: 1.11802 cumulative IPC: 1.11665 (Simulation time: 1 hr 3 min 13 sec) 
Heartbeat CPU 3 instructions: 240000000 cycles: 219022424 heartbeat IPC: 0.436129 cumulative IPC: 0.432133 (Simulation time: 1 hr 3 min 41 sec) 
Heartbeat CPU 1 instructions: 440000000 cycles: 221736186 heartbeat IPC: 1.63718 cumulative IPC: 1.58718 (Simulation time: 1 hr 4 min 12 sec) 
Heartbeat CPU 0 instructions: 380000000 cycles: 225497072 heartbeat IPC: 1.11809 cumulative IPC: 1.11678 (Simulation time: 1 hr 4 min 54 sec) 
Heartbeat CPU 1 instructions: 450000001 cycles: 227853757 heartbeat IPC: 1.63464 cumulative IPC: 1.59004 (Simulation time: 1 hr 5 min 21 sec) 
Heartbeat CPU 1 instructions: 460000000 cycles: 233946464 heartbeat IPC: 1.64131 cumulative IPC: 1.59295 (Simulation time: 1 hr 6 min 29 sec) 
Heartbeat CPU 0 instructions: 390000002 cycles: 234669078 heartbeat IPC: 1.09027 cumulative IPC: 1.11454 (Simulation time: 1 hr 6 min 37 sec) 
Heartbeat CPU 2 instructions: 290000002 cycles: 234771062 heartbeat IPC: 0.275481 cumulative IPC: 0.27807 (Simulation time: 1 hr 6 min 38 sec) 
Heartbeat CPU 1 instructions: 470000000 cycles: 240035242 heartbeat IPC: 1.64237 cumulative IPC: 1.5956 (Simulation time: 1 hr 7 min 37 sec) 
Heartbeat CPU 0 instructions: 400000000 cycles: 243864540 heartbeat IPC: 1.08749 cumulative IPC: 1.11242 (Simulation time: 1 hr 8 min 19 sec) 
Heartbeat CPU 1 instructions: 480000000 cycles: 246153348 heartbeat IPC: 1.63449 cumulative IPC: 1.59758 (Simulation time: 1 hr 8 min 44 sec) 
Heartbeat CPU 1 instructions: 490000003 cycles: 252277559 heartbeat IPC: 1.63286 cumulative IPC: 1.5993 (Simulation time: 1 hr 9 min 51 sec) 
Heartbeat CPU 0 instructions: 410000002 cycles: 253175076 heartbeat IPC: 1.07405 cumulative IPC: 1.1096 (Simulation time: 1 hr 10 min 1 sec) 
Heartbeat CPU 1 instructions: 500000000 cycles: 259198635 heartbeat IPC: 1.44486 cumulative IPC: 1.59125 (Simulation time: 1 hr 11 min 3 sec) 
Heartbeat CPU 0 instructions: 420000000 cycles: 262575039 heartbeat IPC: 1.06383 cumulative IPC: 1.10644 (Simulation time: 1 hr 11 min 40 sec) 
Heartbeat CPU 1 instructions: 510000002 cycles: 265281101 heartbeat IPC: 1.64407 cumulative IPC: 1.59356 (Simulation time: 1 hr 12 min 10 sec) 
Heartbeat CPU 1 instructions: 520000000 cycles: 271324239 heartbeat IPC: 1.65477 cumulative IPC: 1.59612 (Simulation time: 1 hr 13 min 16 sec) 
Heartbeat CPU 0 instructions: 430000001 cycles: 271963798 heartbeat IPC: 1.0651 cumulative IPC: 1.10377 (Simulation time: 1 hr 13 min 23 sec) 
Heartbeat CPU 1 instructions: 530000001 cycles: 277894106 heartbeat IPC: 1.5221 cumulative IPC: 1.59291 (Simulation time: 1 hr 14 min 26 sec) 
Heartbeat CPU 2 instructions: 300000000 cycles: 278119159 heartbeat IPC: 0.230691 cumulative IPC: 0.264528 (Simulation time: 1 hr 14 min 28 sec) 
Heartbeat CPU 3 instructions: 250000000 cycles: 278454160 heartbeat IPC: 0.16826 cumulative IPC: 0.328957 (Simulation time: 1 hr 14 min 32 sec) 
Heartbeat CPU 0 instructions: 440000000 cycles: 281286100 heartbeat IPC: 1.0727 cumulative IPC: 1.1019 (Simulation time: 1 hr 15 min 3 sec) 
Heartbeat CPU 1 instructions: 540000000 cycles: 283798539 heartbeat IPC: 1.69364 cumulative IPC: 1.59669 (Simulation time: 1 hr 15 min 31 sec) 
Heartbeat CPU 1 instructions: 550000001 cycles: 289712101 heartbeat IPC: 1.69103 cumulative IPC: 1.6001 (Simulation time: 1 hr 16 min 36 sec) 
Heartbeat CPU 0 instructions: 450000000 cycles: 290562289 heartbeat IPC: 1.07803 cumulative IPC: 1.10055 (Simulation time: 1 hr 16 min 46 sec) 
Heartbeat CPU 1 instructions: 560000000 cycles: 296352631 heartbeat IPC: 1.5059 cumulative IPC: 1.59642 (Simulation time: 1 hr 17 min 47 sec) 
Heartbeat CPU 0 instructions: 460000000 cycles: 299866016 heartbeat IPC: 1.07484 cumulative IPC: 1.09917 (Simulation time: 1 hr 18 min 25 sec) 
Heartbeat CPU 1 instructions: 570000001 cycles: 303058608 heartbeat IPC: 1.49121 cumulative IPC: 1.59243 (Simulation time: 1 hr 19 min 2 sec) 
Heartbeat CPU 0 instructions: 470000001 cycles: 308934992 heartbeat IPC: 1.10266 cumulative IPC: 1.09934 (Simulation time: 1 hr 20 min 6 sec) 
Heartbeat CPU 1 instructions: 580000000 cycles: 309744720 heartbeat IPC: 1.49564 cumulative IPC: 1.58889 (Simulation time: 1 hr 20 min 15 sec) 
Heartbeat CPU 1 instructions: 590000000 cycles: 315826288 heartbeat IPC: 1.64431 cumulative IPC: 1.59067 (Simulation time: 1 hr 21 min 23 sec) 
Heartbeat CPU 3 instructions: 260000000 cycles: 316489652 heartbeat IPC: 0.262912 cumulative IPC: 0.315738 (Simulation time: 1 hr 21 min 30 sec) 
Heartbeat CPU 0 instructions: 480000000 cycles: 317903035 heartbeat IPC: 1.11507 cumulative IPC: 1.10008 (Simulation time: 1 hr 21 min 46 sec) 
Heartbeat CPU 2 instructions: 310000003 cycles: 318329137 heartbeat IPC: 0.248695 cumulative IPC: 0.26121 (Simulation time: 1 hr 21 min 51 sec) 
Heartbeat CPU 1 instructions: 600000000 cycles: 322809474 heartbeat IPC: 1.43201 cumulative IPC: 1.58503 (Simulation time: 1 hr 22 min 37 sec) 
Heartbeat CPU 0 instructions: 490000002 cycles: 326851389 heartbeat IPC: 1.11752 cumulative IPC: 1.10086 (Simulation time: 1 hr 23 min 21 sec) 
Heartbeat CPU 1 instructions: 610000003 cycles: 329809707 heartbeat IPC: 1.42852 cumulative IPC: 1.57964 (Simulation time: 1 hr 23 min 53 sec) 
Heartbeat CPU 0 instructions: 500000000 cycles: 335824702 heartbeat IPC: 1.11442 cumulative IPC: 1.10144 (Simulation time: 1 hr 25 min 1 sec) 
Heartbeat CPU 1 instructions: 620000000 cycles: 335826848 heartbeat IPC: 1.66192 cumulative IPC: 1.58201 (Simulation time: 1 hr 25 min 1 sec) 
Heartbeat CPU 3 instructions: 270000002 cycles: 340125357 heartbeat IPC: 0.423089 cumulative IPC: 0.327613 (Simulation time: 1 hr 25 min 49 sec) 
Heartbeat CPU 1 instructions: 630000001 cycles: 341870113 heartbeat IPC: 1.65473 cumulative IPC: 1.58405 (Simulation time: 1 hr 26 min 9 sec) 
Heartbeat CPU 0 instructions: 510000001 cycles: 344842867 heartbeat IPC: 1.10887 cumulative IPC: 1.10175 (Simulation time: 1 hr 26 min 43 sec) 
Heartbeat CPU 1 instructions: 640000000 cycles: 347946752 heartbeat IPC: 1.64565 cumulative IPC: 1.58574 (Simulation time: 1 hr 27 min 17 sec) 
Heartbeat CPU 0 instructions: 520000000 cycles: 353873793 heartbeat IPC: 1.10731 cumulative IPC: 1.10197 (Simulation time: 1 hr 28 min 21 sec) 
Heartbeat CPU 2 instructions: 320000000 cycles: 353905542 heartbeat IPC: 0.281085 cumulative IPC: 0.264318 (Simulation time: 1 hr 28 min 22 sec) 
Heartbeat CPU 1 instructions: 650000003 cycles: 354642931 heartbeat IPC: 1.49339 cumulative IPC: 1.58303 (Simulation time: 1 hr 28 min 30 sec) 
Heartbeat CPU 1 instructions: 660000000 cycles: 360766326 heartbeat IPC: 1.63308 cumulative IPC: 1.58434 (Simulation time: 1 hr 29 min 39 sec) 
Heartbeat CPU 0 instructions: 530000000 cycles: 362867583 heartbeat IPC: 1.11188 cumulative IPC: 1.10235 (Simulation time: 1 hr 30 min 2 sec) 
Heartbeat CPU 3 instructions: 280000000 cycles: 363585178 heartbeat IPC: 0.426261 cumulative IPC: 0.337372 (Simulation time: 1 hr 30 min 10 sec) 
Heartbeat CPU 1 instructions: 670000001 cycles: 366842224 heartbeat IPC: 1.64585 cumulative IPC: 1.58589 (Simulation time: 1 hr 30 min 47 sec) 
Heartbeat CPU 0 instructions: 540000000 cycles: 371827081 heartbeat IPC: 1.11613 cumulative IPC: 1.10285 (Simulation time: 1 hr 31 min 43 sec) 
Heartbeat CPU 1 instructions: 680000000 cycles: 372908779 heartbeat IPC: 1.64838 cumulative IPC: 1.58743 (Simulation time: 1 hr 31 min 55 sec) 
Heartbeat CPU 1 instructions: 690000002 cycles: 379032019 heartbeat IPC: 1.63312 cumulative IPC: 1.58854 (Simulation time: 1 hr 33 min 4 sec) 
Heartbeat CPU 0 instructions: 550000001 cycles: 380798944 heartbeat IPC: 1.1146 cumulative IPC: 1.10326 (Simulation time: 1 hr 33 min 24 sec) 
Heartbeat CPU 1 instructions: 700000000 cycles: 385097558 heartbeat IPC: 1.64866 cumulative IPC: 1.58995 (Simulation time: 1 hr 34 min 12 sec) 
Heartbeat CPU 3 instructions: 290000000 cycles: 387194503 heartbeat IPC: 0.423561 cumulative IPC: 0.345177 (Simulation time: 1 hr 34 min 36 sec) 
Heartbeat CPU 2 instructions: 330000003 cycles: 389145221 heartbeat IPC: 0.283771 cumulative IPC: 0.266928 (Simulation time: 1 hr 34 min 58 sec) 
Heartbeat CPU 0 instructions: 560000000 cycles: 389754628 heartbeat IPC: 1.11661 cumulative IPC: 1.10372 (Simulation time: 1 hr 35 min 5 sec) 
Heartbeat CPU 1 instructions: 710000002 cycles: 391240238 heartbeat IPC: 1.62795 cumulative IPC: 1.59083 (Simulation time: 1 hr 35 min 21 sec) 
Heartbeat CPU 1 instructions: 720000000 cycles: 397376324 heartbeat IPC: 1.6297 cumulative IPC: 1.59171 (Simulation time: 1 hr 36 min 31 sec) 
Heartbeat CPU 0 instructions: 570000001 cycles: 398751350 heartbeat IPC: 1.11152 cumulative IPC: 1.10398 (Simulation time: 1 hr 36 min 47 sec) 
Heartbeat CPU 1 instructions: 730000001 cycles: 403561143 heartbeat IPC: 1.61686 cumulative IPC: 1.59227 (Simulation time: 1 hr 37 min 40 sec) 
Heartbeat CPU 0 instructions: 580000000 cycles: 407882837 heartbeat IPC: 1.09511 cumulative IPC: 1.10369 (Simulation time: 1 hr 38 min 27 sec) 
Heartbeat CPU 1 instructions: 740000000 cycles: 410765147 heartbeat IPC: 1.38812 cumulative IPC: 1.5871 (Simulation time: 1 hr 38 min 55 sec) 
Heartbeat CPU 3 instructions: 300000000 cycles: 415119395 heartbeat IPC: 0.358103 cumulative IPC: 0.346427 (Simulation time: 1 hr 39 min 44 sec) 
Heartbeat CPU 0 instructions: 590000001 cycles: 416850152 heartbeat IPC: 1.11516 cumulative IPC: 1.10404 (Simulation time: 1 hr 40 min 3 sec) 
Heartbeat CPU 1 instructions: 750000003 cycles: 416905102 heartbeat IPC: 1.62868 cumulative IPC: 1.58798 (Simulation time: 1 hr 40 min 4 sec) 
Heartbeat CPU 1 instructions: 760000000 cycles: 423770257 heartbeat IPC: 1.45663 cumulative IPC: 1.58494 (Simulation time: 1 hr 41 min 19 sec) 
Heartbeat CPU 0 instructions: 600000000 cycles: 425817321 heartbeat IPC: 1.11518 cumulative IPC: 1.10438 (Simulation time: 1 hr 41 min 41 sec) 
Heartbeat CPU 2 instructions: 340000000 cycles: 426019708 heartbeat IPC: 0.27119 cumulative IPC: 0.267453 (Simulation time: 1 hr 41 min 43 sec) 
Heartbeat CPU 1 instructions: 770000001 cycles: 430598688 heartbeat IPC: 1.46447 cumulative IPC: 1.58224 (Simulation time: 1 hr 42 min 33 sec) 
Heartbeat CPU 0 instructions: 610000002 cycles: 434802380 heartbeat IPC: 1.11296 cumulative IPC: 1.10463 (Simulation time: 1 hr 43 min 19 sec) 
Heartbeat CPU 1 instructions: 780000000 cycles: 436809237 heartbeat IPC: 1.61016 cumulative IPC: 1.5828 (Simulation time: 1 hr 43 min 42 sec) 
Heartbeat CPU 3 instructions: 310000003 cycles: 438595034 heartbeat IPC: 0.425974 cumulative IPC: 0.35241 (Simulation time: 1 hr 44 min 1 sec) 
Heartbeat CPU 1 instructions: 790000001 cycles: 442963420 heartbeat IPC: 1.62491 cumulative IPC: 1.58362 (Simulation time: 1 hr 44 min 50 sec) 
Heartbeat CPU 0 instructions: 620000000 cycles: 443836148 heartbeat IPC: 1.10696 cumulative IPC: 1.10469 (Simulation time: 1 hr 45 min 0 sec) 
Heartbeat CPU 1 instructions: 800000000 cycles: 449097580 heartbeat IPC: 1.63021 cumulative IPC: 1.5845 (Simulation time: 1 hr 45 min 58 sec) 
Heartbeat CPU 0 instructions: 630000000 cycles: 452826020 heartbeat IPC: 1.11236 cumulative IPC: 1.1049 (Simulation time: 1 hr 46 min 40 sec) 
Heartbeat CPU 1 instructions: 810000000 cycles: 455323524 heartbeat IPC: 1.60618 cumulative IPC: 1.58491 (Simulation time: 1 hr 47 min 7 sec) 
Heartbeat CPU 1 instructions: 820000000 cycles: 461444493 heartbeat IPC: 1.63373 cumulative IPC: 1.58581 (Simulation time: 1 hr 48 min 16 sec) 
Heartbeat CPU 0 instructions: 640000000 cycles: 461810133 heartbeat IPC: 1.11308 cumulative IPC: 1.10512 (Simulation time: 1 hr 48 min 20 sec) 
Heartbeat CPU 2 instructions: 350000003 cycles: 461994535 heartbeat IPC: 0.277972 cumulative IPC: 0.26858 (Simulation time: 1 hr 48 min 22 sec) 
Heartbeat CPU 3 instructions: 320000000 cycles: 462185377 heartbeat IPC: 0.423902 cumulative IPC: 0.357433 (Simulation time: 1 hr 48 min 24 sec) 
Heartbeat CPU 1 instructions: 830000000 cycles: 468242962 heartbeat IPC: 1.47092 cumulative IPC: 1.58352 (Simulation time: 1 hr 49 min 28 sec) 
Heartbeat CPU 0 instructions: 650000002 cycles: 470806086 heartbeat IPC: 1.11161 cumulative IPC: 1.10529 (Simulation time: 1 hr 49 min 57 sec) 
Heartbeat CPU 1 instructions: 840000000 cycles: 476186215 heartbeat IPC: 1.25893 cumulative IPC: 1.57615 (Simulation time: 1 hr 50 min 51 sec) 
Heartbeat CPU 0 instructions: 660000000 cycles: 479761889 heartbeat IPC: 1.11659 cumulative IPC: 1.10558 (Simulation time: 1 hr 51 min 31 sec) 
Heartbeat CPU 1 instructions: 850000001 cycles: 482867382 heartbeat IPC: 1.49674 cumulative IPC: 1.57466 (Simulation time: 1 hr 52 min 4 sec) 
Heartbeat CPU 3 instructions: 330000002 cycles: 485646812 heartbeat IPC: 0.426231 cumulative IPC: 0.361927 (Simulation time: 1 hr 52 min 36 sec) 
Heartbeat CPU 0 instructions: 670000002 cycles: 488751472 heartbeat IPC: 1.1124 cumulative IPC: 1.10575 (Simulation time: 1 hr 53 min 10 sec) 
Heartbeat CPU 1 instructions: 860000000 cycles: 488965684 heartbeat IPC: 1.6398 cumulative IPC: 1.57576 (Simulation time: 1 hr 53 min 13 sec) 
Heartbeat CPU 1 instructions: 870000003 cycles: 495169735 heartbeat IPC: 1.61185 cumulative IPC: 1.57636 (Simulation time: 1 hr 54 min 21 sec) 
Heartbeat CPU 2 instructions: 360000000 cycles: 497261602 heartbeat IPC: 0.283551 cumulative IPC: 0.270004 (Simulation time: 1 hr 54 min 43 sec) 
Heartbeat CPU 0 instructions: 680000000 cycles: 497689305 heartbeat IPC: 1.11884 cumulative IPC: 1.10606 (Simulation time: 1 hr 54 min 47 sec) 
Heartbeat CPU 1 instructions: 880000000 cycles: 502024603 heartbeat IPC: 1.45882 cumulative IPC: 1.57422 (Simulation time: 1 hr 55 min 36 sec) 
Heartbeat CPU 0 instructions: 690000001 cycles: 506617511 heartbeat IPC: 1.12005 cumulative IPC: 1.10639 (Simulation time: 1 hr 56 min 27 sec) 
Heartbeat CPU 1 instructions: 890000000 cycles: 508206385 heartbeat IPC: 1.61766 cumulative IPC: 1.57492 (Simulation time: 1 hr 56 min 45 sec) 
Heartbeat CPU 3 instructions: 340000000 cycles: 509251836 heartbeat IPC: 0.423639 cumulative IPC: 0.365733 (Simulation time: 1 hr 56 min 56 sec) 
Heartbeat CPU 1 instructions: 900000000 cycles: 514889359 heartbeat IPC: 1.49634 cumulative IPC: 1.57357 (Simulation time: 1 hr 57 min 58 sec) 
Heartbeat CPU 0 instructions: 700000000 cycles: 515638816 heartbeat IPC: 1.10849 cumulative IPC: 1.10644 (Simulation time: 1 hr 58 min 6 sec) 
Heartbeat CPU 1 instructions: 910000000 cycles: 521075730 heartbeat IPC: 1.61646 cumulative IPC: 1.57424 (Simulation time: 1 hr 59 min 6 sec) 
Heartbeat CPU 0 instructions: 710000000 cycles: 524675469 heartbeat IPC: 1.1066 cumulative IPC: 1.10644 (Simulation time: 1 hr 59 min 46 sec) 
Heartbeat CPU 1 instructions: 920000000 cycles: 527323704 heartbeat IPC: 1.60052 cumulative IPC: 1.57465 (Simulation time: 2 hr 0 min 15 sec) 
Heartbeat CPU 2 instructions: 370000003 cycles: 532654340 heartbeat IPC: 0.282544 cumulative IPC: 0.271097 (Simulation time: 2 hr 1 min 14 sec) 
Heartbeat CPU 3 instructions: 350000002 cycles: 532677137 heartbeat IPC: 0.426889 cumulative IPC: 0.369259 (Simulation time: 2 hr 1 min 14 sec) 
Heartbeat CPU 1 instructions: 930000000 cycles: 533502794 heartbeat IPC: 1.61836 cumulative IPC: 1.57531 (Simulation time: 2 hr 1 min 24 sec) 
Heartbeat CPU 0 instructions: 720000000 cycles: 533672429 heartbeat IPC: 1.11149 cumulative IPC: 1.10655 (Simulation time: 2 hr 1 min 25 sec) 
Heartbeat CPU 1 instructions: 940000000 cycles: 539777341 heartbeat IPC: 1.59374 cumulative IPC: 1.57559 (Simulation time: 2 hr 2 min 33 sec) 
Heartbeat CPU 0 instructions: 730000003 cycles: 542634858 heartbeat IPC: 1.11577 cumulative IPC: 1.10675 (Simulation time: 2 hr 3 min 2 sec) 
Heartbeat CPU 1 instructions: 950000000 cycles: 546598808 heartbeat IPC: 1.46596 cumulative IPC: 1.57381 (Simulation time: 2 hr 3 min 46 sec) 
Heartbeat CPU 0 instructions: 740000000 cycles: 551580156 heartbeat IPC: 1.11791 cumulative IPC: 1.10699 (Simulation time: 2 hr 4 min 39 sec) 
Heartbeat CPU 1 instructions: 960000000 cycles: 553351179 heartbeat IPC: 1.48096 cumulative IPC: 1.57234 (Simulation time: 2 hr 4 min 59 sec) 
Heartbeat CPU 3 instructions: 360000000 cycles: 556097624 heartbeat IPC: 0.426977 cumulative IPC: 0.372405 (Simulation time: 2 hr 5 min 28 sec) 
Heartbeat CPU 1 instructions: 970000001 cycles: 560188135 heartbeat IPC: 1.46264 cumulative IPC: 1.57062 (Simulation time: 2 hr 6 min 14 sec) 
Heartbeat CPU 0 instructions: 750000001 cycles: 560494115 heartbeat IPC: 1.12184 cumulative IPC: 1.10729 (Simulation time: 2 hr 6 min 17 sec) 
Heartbeat CPU 1 instructions: 980000000 cycles: 566539682 heartbeat IPC: 1.57442 cumulative IPC: 1.57067 (Simulation time: 2 hr 7 min 23 sec) 
Heartbeat CPU 2 instructions: 380000000 cycles: 568579324 heartbeat IPC: 0.278358 cumulative IPC: 0.271687 (Simulation time: 2 hr 7 min 45 sec) 
Heartbeat CPU 0 instructions: 760000000 cycles: 569459925 heartbeat IPC: 1.11535 cumulative IPC: 1.10746 (Simulation time: 2 hr 7 min 54 sec) 
Heartbeat CPU 1 instructions: 990000003 cycles: 573216251 heartbeat IPC: 1.49778 cumulative IPC: 1.56958 (Simulation time: 2 hr 8 min 36 sec) 
Heartbeat CPU 0 instructions: 770000002 cycles: 578438604 heartbeat IPC: 1.11375 cumulative IPC: 1.10758 (Simulation time: 2 hr 9 min 33 sec) 
Heartbeat CPU 3 instructions: 370000000 cycles: 579371361 heartbeat IPC: 0.429669 cumulative IPC: 0.375348 (Simulation time: 2 hr 9 min 43 sec) 
Heartbeat CPU 1 instructions: 1000000000 cycles: 579443483 heartbeat IPC: 1.60585 cumulative IPC: 1.57008 (Simulation time: 2 hr 9 min 44 sec) 
Heartbeat CPU 1 instructions: 1010000000 cycles: 585664580 heartbeat IPC: 1.60743 cumulative IPC: 1.57059 (Simulation time: 2 hr 10 min 53 sec) 
Heartbeat CPU 0 instructions: 780000000 cycles: 587412937 heartbeat IPC: 1.11429 cumulative IPC: 1.10771 (Simulation time: 2 hr 11 min 12 sec) 
Heartbeat CPU 1 instructions: 1020000000 cycles: 591961718 heartbeat IPC: 1.58802 cumulative IPC: 1.57082 (Simulation time: 2 hr 12 min 2 sec) 
Heartbeat CPU 0 instructions: 790000001 cycles: 596407784 heartbeat IPC: 1.11175 cumulative IPC: 1.10779 (Simulation time: 2 hr 12 min 52 sec) 
Heartbeat CPU 1 instructions: 1030000001 cycles: 598151842 heartbeat IPC: 1.61548 cumulative IPC: 1.57141 (Simulation time: 2 hr 13 min 10 sec) 
Heartbeat CPU 3 instructions: 380000000 cycles: 602839992 heartbeat IPC: 0.426101 cumulative IPC: 0.377848 (Simulation time: 2 hr 14 min 0 sec) 
Heartbeat CPU 2 instructions: 390000001 cycles: 604416768 heartbeat IPC: 0.279038 cumulative IPC: 0.272238 (Simulation time: 2 hr 14 min 17 sec) 
Heartbeat CPU 1 instructions: 1040000000 cycles: 604444659 heartbeat IPC: 1.58911 cumulative IPC: 1.57164 (Simulation time: 2 hr 14 min 17 sec) 
Heartbeat CPU 0 instructions: 800000000 cycles: 605366794 heartbeat IPC: 1.11619 cumulative IPC: 1.10795 (Simulation time: 2 hr 14 min 27 sec) 
Heartbeat CPU 1 instructions: 1050000002 cycles: 610569890 heartbeat IPC: 1.63259 cumulative IPC: 1.57241 (Simulation time: 2 hr 15 min 26 sec) 
Heartbeat CPU 0 instructions: 810000000 cycles: 614277616 heartbeat IPC: 1.12223 cumulative IPC: 1.10821 (Simulation time: 2 hr 16 min 7 sec) 
Heartbeat CPU 1 instructions: 1060000000 cycles: 616794714 heartbeat IPC: 1.60647 cumulative IPC: 1.57284 (Simulation time: 2 hr 16 min 35 sec) 
Heartbeat CPU 1 instructions: 1070000000 cycles: 623090957 heartbeat IPC: 1.58825 cumulative IPC: 1.57304 (Simulation time: 2 hr 17 min 45 sec) 
Heartbeat CPU 0 instructions: 820000000 cycles: 623248459 heartbeat IPC: 1.11472 cumulative IPC: 1.10832 (Simulation time: 2 hr 17 min 46 sec) 
Heartbeat CPU 3 instructions: 390000002 cycles: 626190557 heartbeat IPC: 0.428255 cumulative IPC: 0.380204 (Simulation time: 2 hr 18 min 18 sec) 
Heartbeat CPU 1 instructions: 1080000000 cycles: 629841513 heartbeat IPC: 1.48136 cumulative IPC: 1.57181 (Simulation time: 2 hr 18 min 58 sec) 
Heartbeat CPU 0 instructions: 830000002 cycles: 632166470 heartbeat IPC: 1.12133 cumulative IPC: 1.10855 (Simulation time: 2 hr 19 min 24 sec) 
Heartbeat CPU 1 instructions: 1090000001 cycles: 636074677 heartbeat IPC: 1.60432 cumulative IPC: 1.57221 (Simulation time: 2 hr 20 min 8 sec) 
Heartbeat CPU 2 instructions: 400000000 cycles: 639561269 heartbeat IPC: 0.28454 cumulative IPC: 0.273081 (Simulation time: 2 hr 20 min 47 sec) 
Heartbeat CPU 0 instructions: 840000000 cycles: 641132217 heartbeat IPC: 1.11536 cumulative IPC: 1.10867 (Simulation time: 2 hr 21 min 5 sec) 
Heartbeat CPU 1 instructions: 1100000000 cycles: 642335203 heartbeat IPC: 1.59731 cumulative IPC: 1.57251 (Simulation time: 2 hr 21 min 20 sec) 
Heartbeat CPU 1 instructions: 1110000000 cycles: 648548353 heartbeat IPC: 1.60949 cumulative IPC: 1.57295 (Simulation time: 2 hr 22 min 32 sec) 
Heartbeat CPU 3 instructions: 400000000 cycles: 649398729 heartbeat IPC: 0.430883 cumulative IPC: 0.382453 (Simulation time: 2 hr 22 min 42 sec) 
Heartbeat CPU 0 instructions: 850000000 cycles: 650124708 heartbeat IPC: 1.11204 cumulative IPC: 1.10873 (Simulation time: 2 hr 22 min 50 sec) 
Heartbeat CPU 1 instructions: 1120000000 cycles: 654796110 heartbeat IPC: 1.60057 cumulative IPC: 1.57328 (Simulation time: 2 hr 23 min 42 sec) 
Heartbeat CPU 0 instructions: 860000000 cycles: 659081796 heartbeat IPC: 1.11643 cumulative IPC: 1.10886 (Simulation time: 2 hr 24 min 29 sec) 
Heartbeat CPU 1 instructions: 1130000000 cycles: 661074993 heartbeat IPC: 1.59264 cumulative IPC: 1.57351 (Simulation time: 2 hr 24 min 51 sec) 
Heartbeat CPU 1 instructions: 1140000000 cycles: 667426581 heartbeat IPC: 1.57441 cumulative IPC: 1.57352 (Simulation time: 2 hr 26 min 1 sec) 
Heartbeat CPU 0 instructions: 870000000 cycles: 668000506 heartbeat IPC: 1.12124 cumulative IPC: 1.10906 (Simulation time: 2 hr 26 min 7 sec) 
Heartbeat CPU 3 instructions: 410000003 cycles: 672623568 heartbeat IPC: 0.430574 cumulative IPC: 0.384499 (Simulation time: 2 hr 26 min 57 sec) 
Heartbeat CPU 1 instructions: 1150000003 cycles: 674755260 heartbeat IPC: 1.3645 cumulative IPC: 1.57072 (Simulation time: 2 hr 27 min 19 sec) 
Heartbeat CPU 2 instructions: 410000001 cycles: 675280257 heartbeat IPC: 0.279963 cumulative IPC: 0.273529 (Simulation time: 2 hr 27 min 25 sec) 
Heartbeat CPU 0 instructions: 880000000 cycles: 676953872 heartbeat IPC: 1.1169 cumulative IPC: 1.10919 (Simulation time: 2 hr 27 min 43 sec) 
Heartbeat CPU 1 instructions: 1160000000 cycles: 681588864 heartbeat IPC: 1.46336 cumulative IPC: 1.5694 (Simulation time: 2 hr 28 min 33 sec) 
Heartbeat CPU 0 instructions: 890000001 cycles: 685869247 heartbeat IPC: 1.12166 cumulative IPC: 1.10939 (Simulation time: 2 hr 29 min 21 sec) 
Heartbeat CPU 1 instructions: 1170000000 cycles: 687818376 heartbeat IPC: 1.60526 cumulative IPC: 1.5698 (Simulation time: 2 hr 29 min 43 sec) 
Heartbeat CPU 1 instructions: 1180000000 cycles: 694554639 heartbeat IPC: 1.4845 cumulative IPC: 1.56879 (Simulation time: 2 hr 30 min 55 sec) 
Heartbeat CPU 0 instructions: 900000000 cycles: 694905712 heartbeat IPC: 1.10663 cumulative IPC: 1.10935 (Simulation time: 2 hr 30 min 59 sec) 
Heartbeat CPU 3 instructions: 420000000 cycles: 695873053 heartbeat IPC: 0.430117 cumulative IPC: 0.386362 (Simulation time: 2 hr 31 min 10 sec) 
Heartbeat CPU 1 instructions: 1190000003 cycles: 701286348 heartbeat IPC: 1.48551 cumulative IPC: 1.56781 (Simulation time: 2 hr 32 min 13 sec) 
Heartbeat CPU 0 instructions: 910000000 cycles: 703861193 heartbeat IPC: 1.11663 cumulative IPC: 1.10946 (Simulation time: 2 hr 32 min 50 sec) 
Heartbeat CPU 1 instructions: 1200000000 cycles: 707382009 heartbeat IPC: 1.64051 cumulative IPC: 1.56858 (Simulation time: 2 hr 33 min 29 sec) 
Heartbeat CPU 2 instructions: 420000000 cycles: 711165871 heartbeat IPC: 0.278663 cumulative IPC: 0.273844 (Simulation time: 2 hr 34 min 12 sec) 
Heartbeat CPU 0 instructions: 920000000 cycles: 712818073 heartbeat IPC: 1.11646 cumulative IPC: 1.10957 (Simulation time: 2 hr 34 min 31 sec) 
Heartbeat CPU 1 instructions: 1210000003 cycles: 713388515 heartbeat IPC: 1.66486 cumulative IPC: 1.56956 (Simulation time: 2 hr 34 min 37 sec) 
Heartbeat CPU 3 instructions: 430000001 cycles: 719098185 heartbeat IPC: 0.430568 cumulative IPC: 0.388094 (Simulation time: 2 hr 35 min 42 sec) 
Heartbeat CPU 1 instructions: 1220000000 cycles: 719405903 heartbeat IPC: 1.66185 cumulative IPC: 1.5705 (Simulation time: 2 hr 35 min 45 sec) 
Heartbeat CPU 0 instructions: 930000002 cycles: 721772274 heartbeat IPC: 1.11679 cumulative IPC: 1.10967 (Simulation time: 2 hr 36 min 12 sec) 
Heartbeat CPU 1 instructions: 1230000001 cycles: 725543772 heartbeat IPC: 1.62923 cumulative IPC: 1.5711 (Simulation time: 2 hr 36 min 54 sec) 
Heartbeat CPU 0 instructions: 940000000 cycles: 730725406 heartbeat IPC: 1.11693 cumulative IPC: 1.10978 (Simulation time: 2 hr 37 min 52 sec) 
Heartbeat CPU 1 instructions: 1240000000 cycles: 731669474 heartbeat IPC: 1.63247 cumulative IPC: 1.57172 (Simulation time: 2 hr 38 min 2 sec) 
Heartbeat CPU 1 instructions: 1250000000 cycles: 737803268 heartbeat IPC: 1.63031 cumulative IPC: 1.57231 (Simulation time: 2 hr 39 min 11 sec) 
Heartbeat CPU 0 instructions: 950000001 cycles: 739671252 heartbeat IPC: 1.11784 cumulative IPC: 1.1099 (Simulation time: 2 hr 39 min 31 sec) 
Heartbeat CPU 3 instructions: 440000000 cycles: 742317445 heartbeat IPC: 0.430677 cumulative IPC: 0.3897 (Simulation time: 2 hr 40 min 1 sec) 
Heartbeat CPU 1 instructions: 1260000000 cycles: 744021026 heartbeat IPC: 1.6083 cumulative IPC: 1.57267 (Simulation time: 2 hr 40 min 20 sec) 
Heartbeat CPU 2 instructions: 430000000 cycles: 746585336 heartbeat IPC: 0.282331 cumulative IPC: 0.274328 (Simulation time: 2 hr 40 min 49 sec) 
Heartbeat CPU 0 instructions: 960000000 cycles: 748601287 heartbeat IPC: 1.11982 cumulative IPC: 1.11004 (Simulation time: 2 hr 41 min 11 sec) 
Heartbeat CPU 1 instructions: 1270000000 cycles: 750205516 heartbeat IPC: 1.61695 cumulative IPC: 1.57311 (Simulation time: 2 hr 41 min 29 sec) 
Heartbeat CPU 1 instructions: 1280000000 cycles: 756345353 heartbeat IPC: 1.62871 cumulative IPC: 1.57365 (Simulation time: 2 hr 42 min 38 sec) 
Heartbeat CPU 0 instructions: 970000001 cycles: 757561521 heartbeat IPC: 1.11604 cumulative IPC: 1.11013 (Simulation time: 2 hr 42 min 52 sec) 
Finished CPU 1 instructions: 1000000000 cycles: 635279198 cumulative IPC: 1.57411 (Simulation time: 2 hr 43 min 39 sec) 
Heartbeat CPU 1 instructions: 1290000001 cycles: 762480319 heartbeat IPC: 1.63 cumulative IPC: 1.5742 (Simulation time: 2 hr 43 min 47 sec) 
Heartbeat CPU 3 instructions: 450000003 cycles: 765364185 heartbeat IPC: 0.433901 cumulative IPC: 0.391294 (Simulation time: 2 hr 44 min 20 sec) 
Heartbeat CPU 0 instructions: 980000000 cycles: 766470636 heartbeat IPC: 1.12245 cumulative IPC: 1.1103 (Simulation time: 2 hr 44 min 32 sec) 
Heartbeat CPU 1 instructions: 1300000000 cycles: 768599450 heartbeat IPC: 1.63422 cumulative IPC: 1.57477 (Simulation time: 2 hr 44 min 56 sec) 
Heartbeat CPU 1 instructions: 1310000003 cycles: 774668030 heartbeat IPC: 1.64783 cumulative IPC: 1.57545 (Simulation time: 2 hr 46 min 4 sec) 
Heartbeat CPU 0 instructions: 990000000 cycles: 775523465 heartbeat IPC: 1.10463 cumulative IPC: 1.11022 (Simulation time: 2 hr 46 min 14 sec) 
Heartbeat CPU 1 instructions: 1320000000 cycles: 780796194 heartbeat IPC: 1.63181 cumulative IPC: 1.57598 (Simulation time: 2 hr 47 min 13 sec) 
Heartbeat CPU 2 instructions: 440000000 cycles: 781944393 heartbeat IPC: 0.282813 cumulative IPC: 0.274786 (Simulation time: 2 hr 47 min 26 sec) 
Heartbeat CPU 0 instructions: 1000000000 cycles: 784465745 heartbeat IPC: 1.11828 cumulative IPC: 1.11033 (Simulation time: 2 hr 47 min 54 sec) 
Heartbeat CPU 1 instructions: 1330000002 cycles: 786845699 heartbeat IPC: 1.65303 cumulative IPC: 1.57668 (Simulation time: 2 hr 48 min 21 sec) 
Heartbeat CPU 3 instructions: 460000000 cycles: 788658405 heartbeat IPC: 0.429291 cumulative IPC: 0.392631 (Simulation time: 2 hr 48 min 41 sec) 
Heartbeat CPU 1 instructions: 1340000000 cycles: 792776981 heartbeat IPC: 1.68598 cumulative IPC: 1.57766 (Simulation time: 2 hr 49 min 28 sec) 
Heartbeat CPU 0 instructions: 1010000000 cycles: 793377812 heartbeat IPC: 1.12207 cumulative IPC: 1.11049 (Simulation time: 2 hr 49 min 34 sec) 
Heartbeat CPU 1 instructions: 1350000000 cycles: 798887807 heartbeat IPC: 1.63644 cumulative IPC: 1.57819 (Simulation time: 2 hr 50 min 35 sec) 
Heartbeat CPU 0 instructions: 1020000000 cycles: 802293534 heartbeat IPC: 1.12161 cumulative IPC: 1.11063 (Simulation time: 2 hr 51 min 13 sec) 
Heartbeat CPU 1 instructions: 1360000000 cycles: 805056842 heartbeat IPC: 1.621 cumulative IPC: 1.57858 (Simulation time: 2 hr 51 min 43 sec) 
Heartbeat CPU 1 instructions: 1370000001 cycles: 811106658 heartbeat IPC: 1.65294 cumulative IPC: 1.57924 (Simulation time: 2 hr 52 min 51 sec) 
Heartbeat CPU 0 instructions: 1030000002 cycles: 811236733 heartbeat IPC: 1.11817 cumulative IPC: 1.11073 (Simulation time: 2 hr 52 min 52 sec) 
Heartbeat CPU 3 instructions: 470000001 cycles: 811839206 heartbeat IPC: 0.431392 cumulative IPC: 0.393942 (Simulation time: 2 hr 52 min 59 sec) 
Heartbeat CPU 1 instructions: 1380000000 cycles: 817136429 heartbeat IPC: 1.65844 cumulative IPC: 1.57993 (Simulation time: 2 hr 53 min 59 sec) 
Heartbeat CPU 2 instructions: 450000003 cycles: 818129678 heartbeat IPC: 0.276356 cumulative IPC: 0.274868 (Simulation time: 2 hr 54 min 11 sec) 
Heartbeat CPU 0 instructions: 1040000000 cycles: 820173549 heartbeat IPC: 1.11897 cumulative IPC: 1.11084 (Simulation time: 2 hr 54 min 34 sec) 
Heartbeat CPU 1 instructions: 1390000002 cycles: 823165942 heartbeat IPC: 1.65851 cumulative IPC: 1.58061 (Simulation time: 2 hr 55 min 8 sec) 
Heartbeat CPU 0 instructions: 1050000000 cycles: 829149373 heartbeat IPC: 1.1141 cumulative IPC: 1.11088 (Simulation time: 2 hr 56 min 16 sec) 
Heartbeat CPU 1 instructions: 1400000000 cycles: 829215709 heartbeat IPC: 1.65296 cumulative IPC: 1.58123 (Simulation time: 2 hr 56 min 17 sec) 
Heartbeat CPU 3 instructions: 480000000 cycles: 835089481 heartbeat IPC: 0.430102 cumulative IPC: 0.395128 (Simulation time: 2 hr 57 min 23 sec) 
Heartbeat CPU 1 instructions: 1410000000 cycles: 835234593 heartbeat IPC: 1.66144 cumulative IPC: 1.58191 (Simulation time: 2 hr 57 min 25 sec) 
Heartbeat CPU 0 instructions: 1060000000 cycles: 838115217 heartbeat IPC: 1.11534 cumulative IPC: 1.11094 (Simulation time: 2 hr 57 min 57 sec) 
Heartbeat CPU 1 instructions: 1420000000 cycles: 841308119 heartbeat IPC: 1.64649 cumulative IPC: 1.58246 (Simulation time: 2 hr 58 min 33 sec) 
Heartbeat CPU 0 instructions: 1070000000 cycles: 847096278 heartbeat IPC: 1.11345 cumulative IPC: 1.11097 (Simulation time: 2 hr 59 min 39 sec) 
Heartbeat CPU 1 instructions: 1430000000 cycles: 847388041 heartbeat IPC: 1.64476 cumulative IPC: 1.58299 (Simulation time: 2 hr 59 min 42 sec) 
Heartbeat CPU 1 instructions: 1440000000 cycles: 853311004 heartbeat IPC: 1.68834 cumulative IPC: 1.58385 (Simulation time: 3 hr 0 min 49 sec) 
Heartbeat CPU 2 instructions: 460000000 cycles: 854051963 heartbeat IPC: 0.278379 cumulative IPC: 0.275042 (Simulation time: 3 hr 0 min 57 sec) 
Heartbeat CPU 0 instructions: 1080000000 cycles: 856134535 heartbeat IPC: 1.10641 cumulative IPC: 1.11091 (Simulation time: 3 hr 1 min 20 sec) 
Heartbeat CPU 3 instructions: 490000000 cycles: 858469154 heartbeat IPC: 0.427722 cumulative IPC: 0.396169 (Simulation time: 3 hr 1 min 47 sec) 
Heartbeat CPU 1 instructions: 1450000000 cycles: 859305741 heartbeat IPC: 1.66813 cumulative IPC: 1.58454 (Simulation time: 3 hr 1 min 56 sec) 
Heartbeat CPU 0 instructions: 1090000000 cycles: 865104251 heartbeat IPC: 1.11486 cumulative IPC: 1.11096 (Simulation time: 3 hr 3 min 2 sec) 
Heartbeat CPU 1 instructions: 1460000000 cycles: 865217724 heartbeat IPC: 1.69148 cumulative IPC: 1.58539 (Simulation time: 3 hr 3 min 3 sec) 
Heartbeat CPU 1 instructions: 1470000001 cycles: 871241793 heartbeat IPC: 1.66001 cumulative IPC: 1.58599 (Simulation time: 3 hr 4 min 11 sec) 
Heartbeat CPU 0 instructions: 1100000000 cycles: 874083778 heartbeat IPC: 1.11364 cumulative IPC: 1.11099 (Simulation time: 3 hr 4 min 43 sec) 
Heartbeat CPU 1 instructions: 1480000000 cycles: 877267555 heartbeat IPC: 1.65954 cumulative IPC: 1.58659 (Simulation time: 3 hr 5 min 20 sec) 
Heartbeat CPU 3 instructions: 500000000 cycles: 881504945 heartbeat IPC: 0.434107 cumulative IPC: 0.397327 (Simulation time: 3 hr 6 min 8 sec) 
Heartbeat CPU 0 instructions: 1110000000 cycles: 883034001 heartbeat IPC: 1.11729 cumulative IPC: 1.11107 (Simulation time: 3 hr 6 min 25 sec) 
Heartbeat CPU 1 instructions: 1490000003 cycles: 883333030 heartbeat IPC: 1.64868 cumulative IPC: 1.58708 (Simulation time: 3 hr 6 min 29 sec) 
Heartbeat CPU 1 instructions: 1500000000 cycles: 889437697 heartbeat IPC: 1.63809 cumulative IPC: 1.58749 (Simulation time: 3 hr 7 min 38 sec) 
Heartbeat CPU 2 instructions: 470000000 cycles: 889518764 heartbeat IPC: 0.281954 cumulative IPC: 0.275363 (Simulation time: 3 hr 7 min 38 sec) 
Heartbeat CPU 0 instructions: 1120000000 cycles: 891979683 heartbeat IPC: 1.11786 cumulative IPC: 1.11114 (Simulation time: 3 hr 8 min 6 sec) 
Heartbeat CPU 1 instructions: 1510000000 cycles: 895484210 heartbeat IPC: 1.65385 cumulative IPC: 1.58801 (Simulation time: 3 hr 8 min 46 sec) 
Heartbeat CPU 0 instructions: 1130000001 cycles: 900983883 heartbeat IPC: 1.11059 cumulative IPC: 1.11114 (Simulation time: 3 hr 9 min 48 sec) 
Heartbeat CPU 1 instructions: 1520000000 cycles: 901498359 heartbeat IPC: 1.66275 cumulative IPC: 1.58859 (Simulation time: 3 hr 9 min 54 sec) 
Heartbeat CPU 3 instructions: 510000001 cycles: 904783803 heartbeat IPC: 0.429574 cumulative IPC: 0.398291 (Simulation time: 3 hr 10 min 31 sec) 
Heartbeat CPU 1 instructions: 1530000001 cycles: 907506879 heartbeat IPC: 1.6643 cumulative IPC: 1.58917 (Simulation time: 3 hr 11 min 2 sec) 
Heartbeat CPU 0 instructions: 1140000000 cycles: 909961688 heartbeat IPC: 1.11386 cumulative IPC: 1.11117 (Simulation time: 3 hr 11 min 30 sec) 
Heartbeat CPU 1 instructions: 1540000000 cycles: 913445835 heartbeat IPC: 1.6838 cumulative IPC: 1.58989 (Simulation time: 3 hr 12 min 9 sec) 
Heartbeat CPU 0 instructions: 1150000001 cycles: 918926604 heartbeat IPC: 1.11546 cumulative IPC: 1.11122 (Simulation time: 3 hr 13 min 12 sec) 
Heartbeat CPU 1 instructions: 1550000001 cycles: 919344218 heartbeat IPC: 1.69538 cumulative IPC: 1.59067 (Simulation time: 3 hr 13 min 16 sec) 
Heartbeat CPU 2 instructions: 480000000 cycles: 924914555 heartbeat IPC: 0.282519 cumulative IPC: 0.27568 (Simulation time: 3 hr 14 min 20 sec) 
Heartbeat CPU 1 instructions: 1560000000 cycles: 925261465 heartbeat IPC: 1.68997 cumulative IPC: 1.59141 (Simulation time: 3 hr 14 min 24 sec) 
Heartbeat CPU 0 instructions: 1160000000 cycles: 927915989 heartbeat IPC: 1.11242 cumulative IPC: 1.11123 (Simulation time: 3 hr 14 min 55 sec) 
Heartbeat CPU 3 instructions: 520000000 cycles: 927924683 heartbeat IPC: 0.432136 cumulative IPC: 0.399268 (Simulation time: 3 hr 14 min 55 sec) 
Heartbeat CPU 1 instructions: 1570000001 cycles: 931477263 heartbeat IPC: 1.6088 cumulative IPC: 1.59154 (Simulation time: 3 hr 15 min 50 sec) 
Heartbeat CPU 0 instructions: 1170000001 cycles: 936852640 heartbeat IPC: 1.11899 cumulative IPC: 1.11132 (Simulation time: 3 hr 17 min 3 sec) 
Heartbeat CPU 1 instructions: 1580000000 cycles: 937809231 heartbeat IPC: 1.57929 cumulative IPC: 1.59145 (Simulation time: 3 hr 17 min 14 sec) 
Heartbeat CPU 1 instructions: 1590000001 cycles: 943936628 heartbeat IPC: 1.63201 cumulative IPC: 1.59175 (Simulation time: 3 hr 18 min 21 sec) 
Heartbeat CPU 0 instructions: 1180000000 cycles: 945906667 heartbeat IPC: 1.10448 cumulative IPC: 1.11124 (Simulation time: 3 hr 18 min 43 sec) 
Heartbeat CPU 1 instructions: 1600000000 cycles: 950140800 heartbeat IPC: 1.61182 cumulative IPC: 1.5919 (Simulation time: 3 hr 19 min 30 sec) 
Heartbeat CPU 3 instructions: 530000001 cycles: 950896434 heartbeat IPC: 0.435317 cumulative IPC: 0.400273 (Simulation time: 3 hr 19 min 39 sec) 
Heartbeat CPU 0 instructions: 1190000003 cycles: 954861359 heartbeat IPC: 1.11673 cumulative IPC: 1.1113 (Simulation time: 3 hr 20 min 30 sec) 
Heartbeat CPU 1 instructions: 1610000002 cycles: 956187368 heartbeat IPC: 1.65383 cumulative IPC: 1.59235 (Simulation time: 3 hr 20 min 47 sec) 
Heartbeat CPU 2 instructions: 490000000 cycles: 960584545 heartbeat IPC: 0.280348 cumulative IPC: 0.27588 (Simulation time: 3 hr 21 min 44 sec) 
Heartbeat CPU 1 instructions: 1620000000 cycles: 962181746 heartbeat IPC: 1.66823 cumulative IPC: 1.5929 (Simulation time: 3 hr 22 min 2 sec) 
Heartbeat CPU 0 instructions: 1200000000 cycles: 963825491 heartbeat IPC: 1.11556 cumulative IPC: 1.11135 (Simulation time: 3 hr 22 min 20 sec) 
Heartbeat CPU 1 instructions: 1630000003 cycles: 968186223 heartbeat IPC: 1.66542 cumulative IPC: 1.59342 (Simulation time: 3 hr 23 min 10 sec) 
Heartbeat CPU 0 instructions: 1210000002 cycles: 972792416 heartbeat IPC: 1.11521 cumulative IPC: 1.11139 (Simulation time: 3 hr 24 min 1 sec) 
Heartbeat CPU 3 instructions: 540000000 cycles: 973609211 heartbeat IPC: 0.440281 cumulative IPC: 0.401345 (Simulation time: 3 hr 24 min 10 sec) 
Heartbeat CPU 1 instructions: 1640000000 cycles: 974232107 heartbeat IPC: 1.65402 cumulative IPC: 1.59385 (Simulation time: 3 hr 24 min 18 sec) 
Heartbeat CPU 1 instructions: 1650000003 cycles: 980260452 heartbeat IPC: 1.65883 cumulative IPC: 1.59431 (Simulation time: 3 hr 25 min 26 sec) 
Heartbeat CPU 0 instructions: 1220000000 cycles: 981751645 heartbeat IPC: 1.11617 cumulative IPC: 1.11144 (Simulation time: 3 hr 25 min 43 sec) 
Heartbeat CPU 1 instructions: 1660000000 cycles: 986176495 heartbeat IPC: 1.69032 cumulative IPC: 1.59497 (Simulation time: 3 hr 26 min 33 sec) 
Heartbeat CPU 0 instructions: 1230000002 cycles: 990722062 heartbeat IPC: 1.11478 cumulative IPC: 1.11147 (Simulation time: 3 hr 27 min 25 sec) 
Heartbeat CPU 1 instructions: 1670000000 cycles: 992105177 heartbeat IPC: 1.68672 cumulative IPC: 1.5956 (Simulation time: 3 hr 27 min 40 sec) 
Heartbeat CPU 2 instructions: 500000000 cycles: 996544881 heartbeat IPC: 0.278084 cumulative IPC: 0.275971 (Simulation time: 3 hr 28 min 29 sec) 
Heartbeat CPU 3 instructions: 550000000 cycles: 996695150 heartbeat IPC: 0.433164 cumulative IPC: 0.402189 (Simulation time: 3 hr 28 min 31 sec) 
Heartbeat CPU 1 instructions: 1680000000 cycles: 998025615 heartbeat IPC: 1.68906 cumulative IPC: 1.59623 (Simulation time: 3 hr 28 min 46 sec) 
Heartbeat CPU 0 instructions: 1240000000 cycles: 999704923 heartbeat IPC: 1.11323 cumulative IPC: 1.11149 (Simulation time: 3 hr 29 min 5 sec) 
Heartbeat CPU 1 instructions: 1690000000 cycles: 1003935061 heartbeat IPC: 1.69221 cumulative IPC: 1.59688 (Simulation time: 3 hr 29 min 53 sec) 
Heartbeat CPU 0 instructions: 1250000002 cycles: 1008693153 heartbeat IPC: 1.11257 cumulative IPC: 1.1115 (Simulation time: 3 hr 30 min 46 sec) 
Heartbeat CPU 1 instructions: 1700000000 cycles: 1009935773 heartbeat IPC: 1.66647 cumulative IPC: 1.59735 (Simulation time: 3 hr 31 min 1 sec) 
Heartbeat CPU 1 instructions: 1710000001 cycles: 1015988022 heartbeat IPC: 1.65228 cumulative IPC: 1.59772 (Simulation time: 3 hr 32 min 9 sec) 
Heartbeat CPU 0 instructions: 1260000000 cycles: 1017687832 heartbeat IPC: 1.11177 cumulative IPC: 1.1115 (Simulation time: 3 hr 32 min 28 sec) 
Heartbeat CPU 3 instructions: 560000000 cycles: 1019841436 heartbeat IPC: 0.432035 cumulative IPC: 0.402963 (Simulation time: 3 hr 32 min 53 sec) 
Heartbeat CPU 1 instructions: 1720000000 cycles: 1022046150 heartbeat IPC: 1.65067 cumulative IPC: 1.59808 (Simulation time: 3 hr 33 min 18 sec) 
Finished CPU 0 instructions: 1000000001 cycles: 899742502 cumulative IPC: 1.11143 (Simulation time: 3 hr 34 min 5 sec) 
Heartbeat CPU 0 instructions: 1270000000 cycles: 1026744829 heartbeat IPC: 1.10412 cumulative IPC: 1.11143 (Simulation time: 3 hr 34 min 11 sec) 
Heartbeat CPU 1 instructions: 1730000000 cycles: 1028112700 heartbeat IPC: 1.64838 cumulative IPC: 1.59842 (Simulation time: 3 hr 34 min 27 sec) 
Heartbeat CPU 2 instructions: 510000000 cycles: 1031849369 heartbeat IPC: 0.28325 cumulative IPC: 0.276255 (Simulation time: 3 hr 35 min 9 sec) 
Heartbeat CPU 1 instructions: 1740000000 cycles: 1034085040 heartbeat IPC: 1.67439 cumulative IPC: 1.59892 (Simulation time: 3 hr 35 min 35 sec) 
Heartbeat CPU 0 instructions: 1280000000 cycles: 1035684402 heartbeat IPC: 1.11862 cumulative IPC: 1.1115 (Simulation time: 3 hr 35 min 53 sec) 
Heartbeat CPU 1 instructions: 1750000002 cycles: 1040203185 heartbeat IPC: 1.63448 cumulative IPC: 1.59916 (Simulation time: 3 hr 36 min 43 sec) 
Heartbeat CPU 3 instructions: 570000001 cycles: 1042875683 heartbeat IPC: 0.434136 cumulative IPC: 0.403746 (Simulation time: 3 hr 37 min 14 sec) 
Heartbeat CPU 0 instructions: 1290000000 cycles: 1044652467 heartbeat IPC: 1.11507 cumulative IPC: 1.11153 (Simulation time: 3 hr 37 min 33 sec) 
Heartbeat CPU 1 instructions: 1760000000 cycles: 1046260280 heartbeat IPC: 1.65096 cumulative IPC: 1.5995 (Simulation time: 3 hr 37 min 51 sec) 
Heartbeat CPU 1 instructions: 1770000000 cycles: 1052263370 heartbeat IPC: 1.66581 cumulative IPC: 1.59993 (Simulation time: 3 hr 39 min 0 sec) 
Heartbeat CPU 0 instructions: 1300000000 cycles: 1053588634 heartbeat IPC: 1.11905 cumulative IPC: 1.11161 (Simulation time: 3 hr 39 min 15 sec) 
Heartbeat CPU 1 instructions: 1780000000 cycles: 1058288317 heartbeat IPC: 1.65977 cumulative IPC: 1.60032 (Simulation time: 3 hr 40 min 8 sec) 
Heartbeat CPU 0 instructions: 1310000000 cycles: 1062552554 heartbeat IPC: 1.11558 cumulative IPC: 1.11165 (Simulation time: 3 hr 40 min 56 sec) 
Heartbeat CPU 1 instructions: 1790000003 cycles: 1064267523 heartbeat IPC: 1.67246 cumulative IPC: 1.60078 (Simulation time: 3 hr 41 min 15 sec) 
Heartbeat CPU 3 instructions: 580000000 cycles: 1065721674 heartbeat IPC: 0.437714 cumulative IPC: 0.404572 (Simulation time: 3 hr 41 min 30 sec) 
Heartbeat CPU 2 instructions: 520000000 cycles: 1067256744 heartbeat IPC: 0.282427 cumulative IPC: 0.276487 (Simulation time: 3 hr 41 min 47 sec) 
Heartbeat CPU 1 instructions: 1800000000 cycles: 1070209248 heartbeat IPC: 1.68301 cumulative IPC: 1.60129 (Simulation time: 3 hr 42 min 19 sec) 
Heartbeat CPU 0 instructions: 1320000000 cycles: 1071468638 heartbeat IPC: 1.12157 cumulative IPC: 1.11174 (Simulation time: 3 hr 42 min 32 sec) 
Heartbeat CPU 1 instructions: 1810000000 cycles: 1076118815 heartbeat IPC: 1.69217 cumulative IPC: 1.60186 (Simulation time: 3 hr 43 min 21 sec) 
Heartbeat CPU 0 instructions: 1330000000 cycles: 1080417893 heartbeat IPC: 1.11741 cumulative IPC: 1.11179 (Simulation time: 3 hr 44 min 8 sec) 
Heartbeat CPU 1 instructions: 1820000000 cycles: 1081933527 heartbeat IPC: 1.71978 cumulative IPC: 1.60258 (Simulation time: 3 hr 44 min 24 sec) 
Heartbeat CPU 1 instructions: 1830000003 cycles: 1087788298 heartbeat IPC: 1.70801 cumulative IPC: 1.60322 (Simulation time: 3 hr 45 min 27 sec) 
Heartbeat CPU 3 instructions: 590000003 cycles: 1088977790 heartbeat IPC: 0.429995 cumulative IPC: 0.405187 (Simulation time: 3 hr 45 min 40 sec) 
Heartbeat CPU 0 instructions: 1340000000 cycles: 1089385610 heartbeat IPC: 1.11511 cumulative IPC: 1.11182 (Simulation time: 3 hr 45 min 44 sec) 
Heartbeat CPU 1 instructions: 1840000000 cycles: 1093814735 heartbeat IPC: 1.65935 cumulative IPC: 1.60357 (Simulation time: 3 hr 46 min 31 sec) 
Heartbeat CPU 0 instructions: 1350000003 cycles: 1098323273 heartbeat IPC: 1.11886 cumulative IPC: 1.11189 (Simulation time: 3 hr 47 min 19 sec) 
Heartbeat CPU 1 instructions: 1850000002 cycles: 1099891331 heartbeat IPC: 1.64566 cumulative IPC: 1.60383 (Simulation time: 3 hr 47 min 36 sec) 
Heartbeat CPU 2 instructions: 530000000 cycles: 1103038614 heartbeat IPC: 0.279471 cumulative IPC: 0.276596 (Simulation time: 3 hr 48 min 9 sec) 
Heartbeat CPU 1 instructions: 1860000000 cycles: 1105934497 heartbeat IPC: 1.65476 cumulative IPC: 1.60415 (Simulation time: 3 hr 48 min 40 sec) 
Heartbeat CPU 0 instructions: 1360000000 cycles: 1107329868 heartbeat IPC: 1.1103 cumulative IPC: 1.11187 (Simulation time: 3 hr 48 min 55 sec) 
Heartbeat CPU 1 instructions: 1870000000 cycles: 1111912730 heartbeat IPC: 1.67274 cumulative IPC: 1.60456 (Simulation time: 3 hr 49 min 47 sec) 
Heartbeat CPU 3 instructions: 600000000 cycles: 1112098066 heartbeat IPC: 0.432521 cumulative IPC: 0.405828 (Simulation time: 3 hr 49 min 49 sec) 
Heartbeat CPU 0 instructions: 1370000003 cycles: 1116304059 heartbeat IPC: 1.11431 cumulative IPC: 1.1119 (Simulation time: 3 hr 50 min 32 sec) 
Heartbeat CPU 1 instructions: 1880000000 cycles: 1118962809 heartbeat IPC: 1.41842 cumulative IPC: 1.60324 (Simulation time: 3 hr 51 min 2 sec) 
Heartbeat CPU 0 instructions: 1380000000 cycles: 1125230986 heartbeat IPC: 1.12021 cumulative IPC: 1.11197 (Simulation time: 3 hr 52 min 8 sec) 
Heartbeat CPU 1 instructions: 1890000000 cycles: 1125726218 heartbeat IPC: 1.47854 cumulative IPC: 1.6024 (Simulation time: 3 hr 52 min 13 sec) 
Heartbeat CPU 1 instructions: 1900000000 cycles: 1132480185 heartbeat IPC: 1.48061 cumulative IPC: 1.60158 (Simulation time: 3 hr 53 min 21 sec) 
Heartbeat CPU 0 instructions: 1390000003 cycles: 1134212869 heartbeat IPC: 1.11335 cumulative IPC: 1.11198 (Simulation time: 3 hr 53 min 39 sec) 
Heartbeat CPU 3 instructions: 610000000 cycles: 1135369850 heartbeat IPC: 0.429705 cumulative IPC: 0.406379 (Simulation time: 3 hr 53 min 51 sec) 
Heartbeat CPU 2 instructions: 540000000 cycles: 1138897684 heartbeat IPC: 0.278869 cumulative IPC: 0.276677 (Simulation time: 3 hr 54 min 27 sec) 
Heartbeat CPU 1 instructions: 1910000001 cycles: 1139120900 heartbeat IPC: 1.50586 cumulative IPC: 1.60095 (Simulation time: 3 hr 54 min 29 sec) 
Heartbeat CPU 0 instructions: 1400000000 cycles: 1143201173 heartbeat IPC: 1.11256 cumulative IPC: 1.11199 (Simulation time: 3 hr 55 min 10 sec) 
Heartbeat CPU 1 instructions: 1920000000 cycles: 1145891498 heartbeat IPC: 1.47697 cumulative IPC: 1.60013 (Simulation time: 3 hr 55 min 38 sec) 
Heartbeat CPU 0 instructions: 1410000002 cycles: 1152201670 heartbeat IPC: 1.11105 cumulative IPC: 1.11198 (Simulation time: 3 hr 56 min 42 sec) 
Heartbeat CPU 1 instructions: 1930000001 cycles: 1152574202 heartbeat IPC: 1.4964 cumulative IPC: 1.59945 (Simulation time: 3 hr 56 min 45 sec) 
Heartbeat CPU 3 instructions: 620000000 cycles: 1158577742 heartbeat IPC: 0.430888 cumulative IPC: 0.40693 (Simulation time: 3 hr 57 min 46 sec) 
Heartbeat CPU 1 instructions: 1940000000 cycles: 1159253704 heartbeat IPC: 1.49712 cumulative IPC: 1.59879 (Simulation time: 3 hr 57 min 53 sec) 
Heartbeat CPU 0 instructions: 1420000000 cycles: 1161154724 heartbeat IPC: 1.11694 cumulative IPC: 1.11202 (Simulation time: 3 hr 58 min 13 sec) 
Heartbeat CPU 1 instructions: 1950000002 cycles: 1166007051 heartbeat IPC: 1.48075 cumulative IPC: 1.59802 (Simulation time: 3 hr 59 min 4 sec) 
Heartbeat CPU 0 instructions: 1430000001 cycles: 1170103250 heartbeat IPC: 1.1175 cumulative IPC: 1.11207 (Simulation time: 3 hr 59 min 49 sec) 
Heartbeat CPU 1 instructions: 1960000000 cycles: 1172783903 heartbeat IPC: 1.47561 cumulative IPC: 1.59723 (Simulation time: 4 hr 0 min 17 sec) 
Heartbeat CPU 2 instructions: 550000000 cycles: 1174039877 heartbeat IPC: 0.284558 cumulative IPC: 0.276941 (Simulation time: 4 hr 0 min 30 sec) 
Heartbeat CPU 0 instructions: 1440000000 cycles: 1179096836 heartbeat IPC: 1.1119 cumulative IPC: 1.11207 (Simulation time: 4 hr 1 min 24 sec) 
Heartbeat CPU 1 instructions: 1970000000 cycles: 1179604848 heartbeat IPC: 1.46607 cumulative IPC: 1.59638 (Simulation time: 4 hr 1 min 30 sec) 
Heartbeat CPU 3 instructions: 630000001 cycles: 1181563851 heartbeat IPC: 0.435045 cumulative IPC: 0.407542 (Simulation time: 4 hr 1 min 50 sec) 
Heartbeat CPU 1 instructions: 1980000000 cycles: 1186372062 heartbeat IPC: 1.47771 cumulative IPC: 1.59562 (Simulation time: 4 hr 2 min 42 sec) 
Heartbeat CPU 0 instructions: 1450000000 cycles: 1188078531 heartbeat IPC: 1.11338 cumulative IPC: 1.11208 (Simulation time: 4 hr 3 min 0 sec) 
Heartbeat CPU 1 instructions: 1990000001 cycles: 1193166236 heartbeat IPC: 1.47185 cumulative IPC: 1.59483 (Simulation time: 4 hr 3 min 54 sec) 
Heartbeat CPU 0 instructions: 1460000000 cycles: 1197081121 heartbeat IPC: 1.11079 cumulative IPC: 1.11207 (Simulation time: 4 hr 4 min 33 sec) 
*** Reached end of trace for Core: 1 Repeating trace: /scratch/user/djimenez/champsim-traces/speccpu2017/xz/648.exchange2_s/648.exchange2_s-1712B.champsimtrace.xz
Heartbeat CPU 1 instructions: 2000000000 cycles: 1199908511 heartbeat IPC: 1.48318 cumulative IPC: 1.59413 (Simulation time: 4 hr 5 min 2 sec) 
Heartbeat CPU 3 instructions: 640000000 cycles: 1204525350 heartbeat IPC: 0.435512 cumulative IPC: 0.408138 (Simulation time: 4 hr 5 min 53 sec) 
Heartbeat CPU 0 instructions: 1470000001 cycles: 1206012197 heartbeat IPC: 1.11969 cumulative IPC: 1.11213 (Simulation time: 4 hr 6 min 9 sec) 
Heartbeat CPU 1 instructions: 2010000000 cycles: 1206084986 heartbeat IPC: 1.61905 cumulative IPC: 1.59428 (Simulation time: 4 hr 6 min 10 sec) 
Heartbeat CPU 2 instructions: 560000000 cycles: 1208208716 heartbeat IPC: 0.292664 cumulative IPC: 0.277438 (Simulation time: 4 hr 6 min 34 sec) 
Heartbeat CPU 1 instructions: 2020000000 cycles: 1212127232 heartbeat IPC: 1.65501 cumulative IPC: 1.59461 (Simulation time: 4 hr 7 min 18 sec) 
Heartbeat CPU 0 instructions: 1480000000 cycles: 1214996939 heartbeat IPC: 1.113 cumulative IPC: 1.11214 (Simulation time: 4 hr 7 min 50 sec) 
Heartbeat CPU 1 instructions: 2030000002 cycles: 1218263536 heartbeat IPC: 1.62965 cumulative IPC: 1.59481 (Simulation time: 4 hr 8 min 27 sec) 
Heartbeat CPU 0 instructions: 1490000000 cycles: 1223961436 heartbeat IPC: 1.11551 cumulative IPC: 1.11217 (Simulation time: 4 hr 9 min 31 sec) 
Heartbeat CPU 1 instructions: 2040000000 cycles: 1224354193 heartbeat IPC: 1.64186 cumulative IPC: 1.59507 (Simulation time: 4 hr 9 min 35 sec) 
Heartbeat CPU 3 instructions: 650000002 cycles: 1227523074 heartbeat IPC: 0.434826 cumulative IPC: 0.408695 (Simulation time: 4 hr 10 min 11 sec) 
Heartbeat CPU 1 instructions: 2050000000 cycles: 1230518693 heartbeat IPC: 1.62219 cumulative IPC: 1.59522 (Simulation time: 4 hr 10 min 44 sec) 
Heartbeat CPU 0 instructions: 1500000000 cycles: 1232902683 heartbeat IPC: 1.11841 cumulative IPC: 1.11222 (Simulation time: 4 hr 11 min 11 sec) 
Heartbeat CPU 1 instructions: 2060000000 cycles: 1236694174 heartbeat IPC: 1.61931 cumulative IPC: 1.59536 (Simulation time: 4 hr 11 min 53 sec) 
Heartbeat CPU 0 instructions: 1510000000 cycles: 1241881681 heartbeat IPC: 1.11371 cumulative IPC: 1.11223 (Simulation time: 4 hr 12 min 51 sec) 
Heartbeat CPU 1 instructions: 2070000002 cycles: 1242851626 heartbeat IPC: 1.62405 cumulative IPC: 1.59552 (Simulation time: 4 hr 13 min 2 sec) 
Heartbeat CPU 2 instructions: 570000000 cycles: 1244199439 heartbeat IPC: 0.277849 cumulative IPC: 0.277451 (Simulation time: 4 hr 13 min 17 sec) 
Heartbeat CPU 1 instructions: 2080000000 cycles: 1249043981 heartbeat IPC: 1.61489 cumulative IPC: 1.59562 (Simulation time: 4 hr 14 min 11 sec) 
Heartbeat CPU 3 instructions: 660000000 cycles: 1250679382 heartbeat IPC: 0.431848 cumulative IPC: 0.409172 (Simulation time: 4 hr 14 min 30 sec) 
Heartbeat CPU 0 instructions: 1520000000 cycles: 1250859892 heartbeat IPC: 1.11381 cumulative IPC: 1.11224 (Simulation time: 4 hr 14 min 32 sec) 
Heartbeat CPU 1 instructions: 2090000001 cycles: 1255248415 heartbeat IPC: 1.61175 cumulative IPC: 1.59571 (Simulation time: 4 hr 15 min 21 sec) 
Heartbeat CPU 0 instructions: 1530000001 cycles: 1259831430 heartbeat IPC: 1.11464 cumulative IPC: 1.11226 (Simulation time: 4 hr 16 min 12 sec) 
Heartbeat CPU 1 instructions: 2100000000 cycles: 1261520391 heartbeat IPC: 1.59439 cumulative IPC: 1.5957 (Simulation time: 4 hr 16 min 30 sec) 
Heartbeat CPU 1 instructions: 2110000000 cycles: 1267801019 heartbeat IPC: 1.5922 cumulative IPC: 1.59568 (Simulation time: 4 hr 17 min 40 sec) 
Heartbeat CPU 0 instructions: 1540000000 cycles: 1268818538 heartbeat IPC: 1.1127 cumulative IPC: 1.11226 (Simulation time: 4 hr 17 min 51 sec) 
Heartbeat CPU 3 instructions: 670000001 cycles: 1273906599 heartbeat IPC: 0.430529 cumulative IPC: 0.409605 (Simulation time: 4 hr 18 min 48 sec) 
Heartbeat CPU 1 instructions: 2120000000 cycles: 1274038916 heartbeat IPC: 1.6031 cumulative IPC: 1.59572 (Simulation time: 4 hr 18 min 49 sec) 
Heartbeat CPU 0 instructions: 1550000001 cycles: 1277881741 heartbeat IPC: 1.10336 cumulative IPC: 1.11219 (Simulation time: 4 hr 19 min 32 sec) 
Heartbeat CPU 2 instructions: 580000000 cycles: 1280039510 heartbeat IPC: 0.279017 cumulative IPC: 0.2775 (Simulation time: 4 hr 19 min 57 sec) 
Heartbeat CPU 1 instructions: 2130000003 cycles: 1280143684 heartbeat IPC: 1.63806 cumulative IPC: 1.59595 (Simulation time: 4 hr 19 min 58 sec) 
Heartbeat CPU 1 instructions: 2140000000 cycles: 1286239713 heartbeat IPC: 1.64041 cumulative IPC: 1.59618 (Simulation time: 4 hr 21 min 7 sec) 
Heartbeat CPU 0 instructions: 1560000000 cycles: 1286846033 heartbeat IPC: 1.11554 cumulative IPC: 1.11222 (Simulation time: 4 hr 21 min 14 sec) 
Heartbeat CPU 1 instructions: 2150000001 cycles: 1292336911 heartbeat IPC: 1.6401 cumulative IPC: 1.59641 (Simulation time: 4 hr 22 min 17 sec) 
Heartbeat CPU 0 instructions: 1570000001 cycles: 1295826807 heartbeat IPC: 1.11349 cumulative IPC: 1.11223 (Simulation time: 4 hr 22 min 56 sec) 
Heartbeat CPU 3 instructions: 680000000 cycles: 1296969968 heartbeat IPC: 0.433588 cumulative IPC: 0.410077 (Simulation time: 4 hr 23 min 9 sec) 
Heartbeat CPU 1 instructions: 2160000000 cycles: 1298502614 heartbeat IPC: 1.62187 cumulative IPC: 1.59655 (Simulation time: 4 hr 23 min 26 sec) 
Heartbeat CPU 1 instructions: 2170000001 cycles: 1304703739 heartbeat IPC: 1.61261 cumulative IPC: 1.59663 (Simulation time: 4 hr 24 min 35 sec) 
Heartbeat CPU 0 instructions: 1580000000 cycles: 1304825497 heartbeat IPC: 1.11127 cumulative IPC: 1.11222 (Simulation time: 4 hr 24 min 37 sec) 
Heartbeat CPU 1 instructions: 2180000000 cycles: 1310940031 heartbeat IPC: 1.60352 cumulative IPC: 1.59667 (Simulation time: 4 hr 25 min 45 sec) 
Heartbeat CPU 0 instructions: 1590000002 cycles: 1313798527 heartbeat IPC: 1.11445 cumulative IPC: 1.11224 (Simulation time: 4 hr 26 min 18 sec) 
Heartbeat CPU 2 instructions: 590000001 cycles: 1315197360 heartbeat IPC: 0.284432 cumulative IPC: 0.277705 (Simulation time: 4 hr 26 min 33 sec) 
Heartbeat CPU 1 instructions: 2190000000 cycles: 1317166152 heartbeat IPC: 1.60614 cumulative IPC: 1.59672 (Simulation time: 4 hr 26 min 55 sec) 
Heartbeat CPU 3 instructions: 690000000 cycles: 1319972013 heartbeat IPC: 0.434744 cumulative IPC: 0.410553 (Simulation time: 4 hr 27 min 27 sec) 
Heartbeat CPU 0 instructions: 1600000000 cycles: 1322770689 heartbeat IPC: 1.11456 cumulative IPC: 1.11226 (Simulation time: 4 hr 27 min 58 sec) 
Heartbeat CPU 1 instructions: 2200000000 cycles: 1323296759 heartbeat IPC: 1.63116 cumulative IPC: 1.59689 (Simulation time: 4 hr 28 min 4 sec) 
Heartbeat CPU 1 instructions: 2210000003 cycles: 1329406142 heartbeat IPC: 1.63683 cumulative IPC: 1.5971 (Simulation time: 4 hr 29 min 13 sec) 
Heartbeat CPU 0 instructions: 1610000001 cycles: 1331719599 heartbeat IPC: 1.11745 cumulative IPC: 1.11229 (Simulation time: 4 hr 29 min 38 sec) 
Heartbeat CPU 1 instructions: 2220000000 cycles: 1335494435 heartbeat IPC: 1.6425 cumulative IPC: 1.59732 (Simulation time: 4 hr 30 min 20 sec) 
Heartbeat CPU 0 instructions: 1620000000 cycles: 1340699502 heartbeat IPC: 1.1136 cumulative IPC: 1.1123 (Simulation time: 4 hr 31 min 19 sec) 
Heartbeat CPU 1 instructions: 2230000001 cycles: 1341603759 heartbeat IPC: 1.63684 cumulative IPC: 1.59752 (Simulation time: 4 hr 31 min 29 sec) 
Heartbeat CPU 3 instructions: 700000000 cycles: 1343071459 heartbeat IPC: 0.432911 cumulative IPC: 0.410977 (Simulation time: 4 hr 31 min 46 sec) 
Heartbeat CPU 1 instructions: 2240000000 cycles: 1347613326 heartbeat IPC: 1.66401 cumulative IPC: 1.59785 (Simulation time: 4 hr 32 min 37 sec) 
Heartbeat CPU 0 instructions: 1630000001 cycles: 1349624252 heartbeat IPC: 1.12048 cumulative IPC: 1.11236 (Simulation time: 4 hr 33 min 0 sec) 
Heartbeat CPU 2 instructions: 600000000 cycles: 1350938308 heartbeat IPC: 0.279791 cumulative IPC: 0.277766 (Simulation time: 4 hr 33 min 14 sec) 
Heartbeat CPU 1 instructions: 2250000003 cycles: 1353683540 heartbeat IPC: 1.64739 cumulative IPC: 1.5981 (Simulation time: 4 hr 33 min 45 sec) 
Heartbeat CPU 0 instructions: 1640000000 cycles: 1358637914 heartbeat IPC: 1.10943 cumulative IPC: 1.11234 (Simulation time: 4 hr 34 min 39 sec) 
Heartbeat CPU 1 instructions: 2260000000 cycles: 1361161747 heartbeat IPC: 1.33722 cumulative IPC: 1.59652 (Simulation time: 4 hr 35 min 3 sec) 
Heartbeat CPU 3 instructions: 710000003 cycles: 1366147296 heartbeat IPC: 0.433354 cumulative IPC: 0.411394 (Simulation time: 4 hr 35 min 54 sec) 
Heartbeat CPU 0 instructions: 1650000000 cycles: 1367604597 heartbeat IPC: 1.11524 cumulative IPC: 1.11236 (Simulation time: 4 hr 36 min 10 sec) 
Heartbeat CPU 1 instructions: 2270000001 cycles: 1367713416 heartbeat IPC: 1.52633 cumulative IPC: 1.59614 (Simulation time: 4 hr 36 min 12 sec) 
Heartbeat CPU 1 instructions: 2280000000 cycles: 1373827887 heartbeat IPC: 1.63546 cumulative IPC: 1.59634 (Simulation time: 4 hr 37 min 20 sec) 
Heartbeat CPU 0 instructions: 1660000000 cycles: 1376545194 heartbeat IPC: 1.11849 cumulative IPC: 1.11241 (Simulation time: 4 hr 37 min 50 sec) 
Heartbeat CPU 1 instructions: 2290000000 cycles: 1379902419 heartbeat IPC: 1.64622 cumulative IPC: 1.59658 (Simulation time: 4 hr 38 min 28 sec) 
Heartbeat CPU 0 instructions: 1670000002 cycles: 1385520744 heartbeat IPC: 1.11414 cumulative IPC: 1.11242 (Simulation time: 4 hr 39 min 31 sec) 
Heartbeat CPU 1 instructions: 2300000000 cycles: 1385914655 heartbeat IPC: 1.66327 cumulative IPC: 1.5969 (Simulation time: 4 hr 39 min 35 sec) 
Heartbeat CPU 2 instructions: 610000001 cycles: 1386854373 heartbeat IPC: 0.278427 cumulative IPC: 0.277784 (Simulation time: 4 hr 39 min 46 sec) 
Heartbeat CPU 3 instructions: 720000000 cycles: 1389175537 heartbeat IPC: 0.434249 cumulative IPC: 0.41181 (Simulation time: 4 hr 40 min 12 sec) 
Heartbeat CPU 1 instructions: 2310000003 cycles: 1391938296 heartbeat IPC: 1.66013 cumulative IPC: 1.5972 (Simulation time: 4 hr 40 min 43 sec) 
Heartbeat CPU 0 instructions: 1680000000 cycles: 1394466915 heartbeat IPC: 1.1178 cumulative IPC: 1.11246 (Simulation time: 4 hr 41 min 11 sec) 
Heartbeat CPU 1 instructions: 2320000000 cycles: 1398011084 heartbeat IPC: 1.64669 cumulative IPC: 1.59743 (Simulation time: 4 hr 41 min 51 sec) 
Heartbeat CPU 0 instructions: 1690000000 cycles: 1403455496 heartbeat IPC: 1.11252 cumulative IPC: 1.11246 (Simulation time: 4 hr 42 min 51 sec) 
Heartbeat CPU 1 instructions: 2330000000 cycles: 1404109902 heartbeat IPC: 1.63966 cumulative IPC: 1.59764 (Simulation time: 4 hr 42 min 59 sec) 
Heartbeat CPU 1 instructions: 2340000000 cycles: 1410295563 heartbeat IPC: 1.61664 cumulative IPC: 1.59773 (Simulation time: 4 hr 44 min 7 sec) 
Heartbeat CPU 3 instructions: 730000001 cycles: 1412088021 heartbeat IPC: 0.436443 cumulative IPC: 0.412249 (Simulation time: 4 hr 44 min 27 sec) 
Heartbeat CPU 0 instructions: 1700000000 cycles: 1412424495 heartbeat IPC: 1.11495 cumulative IPC: 1.11247 (Simulation time: 4 hr 44 min 30 sec) 
Heartbeat CPU 1 instructions: 2350000000 cycles: 1416445134 heartbeat IPC: 1.62613 cumulative IPC: 1.59786 (Simulation time: 4 hr 45 min 15 sec) 
Heartbeat CPU 0 instructions: 1710000001 cycles: 1421376510 heartbeat IPC: 1.11707 cumulative IPC: 1.11251 (Simulation time: 4 hr 46 min 8 sec) 
Heartbeat CPU 2 instructions: 620000000 cycles: 1422254079 heartbeat IPC: 0.282488 cumulative IPC: 0.277913 (Simulation time: 4 hr 46 min 16 sec) 
Heartbeat CPU 1 instructions: 2360000000 cycles: 1424362736 heartbeat IPC: 1.26301 cumulative IPC: 1.59582 (Simulation time: 4 hr 46 min 37 sec) 
Heartbeat CPU 0 instructions: 1720000000 cycles: 1430350472 heartbeat IPC: 1.11433 cumulative IPC: 1.11252 (Simulation time: 4 hr 47 min 40 sec) 
[...]
Heartbeat CPU 1 instructions: 5820000000 cycles: 3587214076 heartbeat IPC: 1.71996 cumulative IPC: 1.59827 (Simulation time: 10 hr 58 min 19 sec) 
Heartbeat CPU 0 instructions: 4120000000 cycles: 3590465254 heartbeat IPC: 1.11835 cumulative IPC: 1.1116 (Simulation time: 10 hr 58 min 52 sec) 
Heartbeat CPU 1 instructions: 5830000003 cycles: 3593070042 heartbeat IPC: 1.70766 cumulative IPC: 1.59845 (Simulation time: 10 hr 59 min 18 sec) 
Heartbeat CPU 2 instructions: 1230000000 cycles: 3593206502 heartbeat IPC: 0.283354 cumulative IPC: 0.279835 (Simulation time: 10 hr 59 min 20 sec) 
Heartbeat CPU 1 instructions: 5840000000 cycles: 3599095068 heartbeat IPC: 1.65974 cumulative IPC: 1.59856 (Simulation time: 11 hr 0 min 19 sec) 
Heartbeat CPU 0 instructions: 4130000001 cycles: 3599397871 heartbeat IPC: 1.11949 cumulative IPC: 1.11162 (Simulation time: 11 hr 0 min 22 sec) 
Heartbeat CPU 1 instructions: 5850000002 cycles: 3605172329 heartbeat IPC: 1.64548 cumulative IPC: 1.59864 (Simulation time: 11 hr 1 min 20 sec) 
Heartbeat CPU 3 instructions: 1680000000 cycles: 3608225029 heartbeat IPC: 0.435031 cumulative IPC: 0.425072 (Simulation time: 11 hr 1 min 51 sec) 
Heartbeat CPU 0 instructions: 4140000000 cycles: 3608352623 heartbeat IPC: 1.11673 cumulative IPC: 1.11164 (Simulation time: 11 hr 1 min 52 sec) 
Heartbeat CPU 1 instructions: 5860000000 cycles: 3611214232 heartbeat IPC: 1.65511 cumulative IPC: 1.59874 (Simulation time: 11 hr 2 min 21 sec) 
Heartbeat CPU 1 instructions: 5870000000 cycles: 3617196169 heartbeat IPC: 1.6717 cumulative IPC: 1.59887 (Simulation time: 11 hr 3 min 20 sec) 
Heartbeat CPU 0 instructions: 4150000002 cycles: 3617391737 heartbeat IPC: 1.1063 cumulative IPC: 1.11162 (Simulation time: 11 hr 3 min 22 sec) 
Heartbeat CPU 1 instructions: 5880000000 cycles: 3624224846 heartbeat IPC: 1.42274 cumulative IPC: 1.59851 (Simulation time: 11 hr 4 min 27 sec) 
Heartbeat CPU 0 instructions: 4160000000 cycles: 3626356500 heartbeat IPC: 1.11548 cumulative IPC: 1.11163 (Simulation time: 11 hr 4 min 46 sec) 
Heartbeat CPU 2 instructions: 1240000000 cycles: 3628921613 heartbeat IPC: 0.279994 cumulative IPC: 0.279837 (Simulation time: 11 hr 5 min 11 sec) 
Heartbeat CPU 1 instructions: 5890000000 cycles: 3630986930 heartbeat IPC: 1.47883 cumulative IPC: 1.59828 (Simulation time: 11 hr 5 min 31 sec) 
Heartbeat CPU 3 instructions: 1690000002 cycles: 3631227805 heartbeat IPC: 0.43473 cumulative IPC: 0.425135 (Simulation time: 11 hr 5 min 34 sec) 
Heartbeat CPU 0 instructions: 4170000003 cycles: 3635303832 heartbeat IPC: 1.11765 cumulative IPC: 1.11165 (Simulation time: 11 hr 6 min 14 sec) 
Heartbeat CPU 1 instructions: 5900000000 cycles: 3637740093 heartbeat IPC: 1.48079 cumulative IPC: 1.59806 (Simulation time: 11 hr 6 min 36 sec) 
Heartbeat CPU 0 instructions: 4180000000 cycles: 3644255972 heartbeat IPC: 1.11705 cumulative IPC: 1.11166 (Simulation time: 11 hr 7 min 38 sec) 
Heartbeat CPU 1 instructions: 5910000001 cycles: 3644379555 heartbeat IPC: 1.50615 cumulative IPC: 1.59788 (Simulation time: 11 hr 7 min 39 sec) 
Heartbeat CPU 1 instructions: 5920000000 cycles: 3651150566 heartbeat IPC: 1.47688 cumulative IPC: 1.59765 (Simulation time: 11 hr 8 min 43 sec) 
Heartbeat CPU 0 instructions: 4190000002 cycles: 3653224309 heartbeat IPC: 1.11503 cumulative IPC: 1.11167 (Simulation time: 11 hr 9 min 3 sec) 
Heartbeat CPU 3 instructions: 1700000000 cycles: 3654379792 heartbeat IPC: 0.431928 cumulative IPC: 0.42518 (Simulation time: 11 hr 9 min 14 sec) 
Heartbeat CPU 1 instructions: 5930000000 cycles: 3657831206 heartbeat IPC: 1.49686 cumulative IPC: 1.59746 (Simulation time: 11 hr 9 min 47 sec) 
Heartbeat CPU 0 instructions: 4200000000 cycles: 3662190119 heartbeat IPC: 1.11535 cumulative IPC: 1.11168 (Simulation time: 11 hr 10 min 29 sec) 
Heartbeat CPU 1 instructions: 5940000000 cycles: 3664511048 heartbeat IPC: 1.49704 cumulative IPC: 1.59727 (Simulation time: 11 hr 10 min 51 sec) 
Heartbeat CPU 2 instructions: 1250000002 cycles: 3664892496 heartbeat IPC: 0.278003 cumulative IPC: 0.279818 (Simulation time: 11 hr 10 min 54 sec) 
Heartbeat CPU 0 instructions: 4210000000 cycles: 3671162352 heartbeat IPC: 1.11455 cumulative IPC: 1.11169 (Simulation time: 11 hr 11 min 53 sec) 
Heartbeat CPU 1 instructions: 5950000002 cycles: 3671262513 heartbeat IPC: 1.48116 cumulative IPC: 1.59705 (Simulation time: 11 hr 11 min 54 sec) 
Heartbeat CPU 3 instructions: 1710000002 cycles: 3677361629 heartbeat IPC: 0.435126 cumulative IPC: 0.425244 (Simulation time: 11 hr 12 min 52 sec) 
Heartbeat CPU 1 instructions: 5960000000 cycles: 3678040874 heartbeat IPC: 1.47528 cumulative IPC: 1.59682 (Simulation time: 11 hr 12 min 59 sec) 
Heartbeat CPU 0 instructions: 4220000000 cycles: 3680107166 heartbeat IPC: 1.11797 cumulative IPC: 1.1117 (Simulation time: 11 hr 13 min 18 sec) 
Heartbeat CPU 1 instructions: 5970000000 cycles: 3684859498 heartbeat IPC: 1.46657 cumulative IPC: 1.59657 (Simulation time: 11 hr 14 min 3 sec) 
Heartbeat CPU 0 instructions: 4230000001 cycles: 3689044714 heartbeat IPC: 1.11888 cumulative IPC: 1.11172 (Simulation time: 11 hr 14 min 43 sec) 
Heartbeat CPU 1 instructions: 5980000000 cycles: 3691624397 heartbeat IPC: 1.47822 cumulative IPC: 1.59634 (Simulation time: 11 hr 15 min 8 sec) 
Heartbeat CPU 0 instructions: 4240000000 cycles: 3698053805 heartbeat IPC: 1.10999 cumulative IPC: 1.11172 (Simulation time: 11 hr 16 min 8 sec) 
Heartbeat CPU 1 instructions: 5990000001 cycles: 3698419278 heartbeat IPC: 1.4717 cumulative IPC: 1.5961 (Simulation time: 11 hr 16 min 12 sec) 
Finished CPU 2 instructions: 1000000000 cycles: 3573335101 cumulative IPC: 0.279851 (Simulation time: 11 hr 16 min 25 sec) 

CPU 0 Branch Prediction Accuracy: 99.8484% MPKI: 0.00199756

CPU 1 Branch Prediction Accuracy: 97.3758% MPKI: 3.53815

CPU 2 Branch Prediction Accuracy: 99.5279% MPKI: 1.56416

CPU 3 Branch Prediction Accuracy: 84.854% MPKI: 16.4818

ChampSim completed all CPUs

Total Simulation Statistics (not including warmup)

CPU 0 cumulative IPC: 1.11172 instructions: 3972543832 cycles: 3573335101
L1D TOTAL     ACCESS: 1166048148  HIT:  710203003  MISS:  455845145
L1D LOAD      ACCESS:  720343812  HIT:  296797023  MISS:  423546789
L1D RFO       ACCESS:  445704336  HIT:  413405980  MISS:   32298356
L1D PREFETCH  ACCESS:          0  HIT:          0  MISS:          0
L1D WRITEBACK ACCESS:          0  HIT:          0  MISS:          0
L1I TOTAL     ACCESS:  998696602  HIT:  995996367  MISS:    2700235
L1I LOAD      ACCESS:  998696602  HIT:  995996367  MISS:    2700235
L1I RFO       ACCESS:          0  HIT:          0  MISS:          0
L1I PREFETCH  ACCESS:          0  HIT:          0  MISS:          0
L1I WRITEBACK ACCESS:          0  HIT:          0  MISS:          0
L2C TOTAL     ACCESS:  529739236  HIT:  376441186  MISS:  153298050
L2C LOAD      ACCESS:  424246592  HIT:  329273322  MISS:   94973270
L2C RFO       ACCESS:   32272500  HIT:    9739627  MISS:   22532873
L2C PREFETCH  ACCESS:   36724573  HIT:    1019601  MISS:   35704972
L2C WRITEBACK ACCESS:   36495571  HIT:   36408636  MISS:      86935

L2C DA-AMPM prefetcher final stats
LLC TOTAL     ACCESS:  172758498  HIT:  142693961  MISS:   30064537
LLC LOAD      ACCESS:   94966196  HIT:   92718392  MISS:    2247804
LLC RFO       ACCESS:   18697178  HIT:   18636015  MISS:      61163
LLC PREFETCH  ACCESS:   35705517  HIT:    7957990  MISS:   27747527
LLC WRITEBACK ACCESS:   23389607  HIT:   23381564  MISS:       8043

CPU 1 cumulative IPC: 1.59605 instructions: 5703222941 cycles: 3573335101
L1D TOTAL     ACCESS: 1639840794  HIT: 1639840689  MISS:        105
L1D LOAD      ACCESS:  715515113  HIT:  715515073  MISS:         40
L1D RFO       ACCESS:  924325681  HIT:  924325616  MISS:         65
L1D PREFETCH  ACCESS:          0  HIT:          0  MISS:          0
L1D WRITEBACK ACCESS:          0  HIT:          0  MISS:          0
L1I TOTAL     ACCESS: 1248054102  HIT: 1247930318  MISS:     123784
L1I LOAD      ACCESS: 1248054102  HIT: 1247930318  MISS:     123784
L1I RFO       ACCESS:          0  HIT:          0  MISS:          0
L1I PREFETCH  ACCESS:          0  HIT:          0  MISS:          0
L1I WRITEBACK ACCESS:          0  HIT:          0  MISS:          0
L2C TOTAL     ACCESS:     124109  HIT:     123641  MISS:        468
L2C LOAD      ACCESS:     123824  HIT:     123639  MISS:        185
L2C RFO       ACCESS:         65  HIT:          2  MISS:         63
L2C PREFETCH  ACCESS:        220  HIT:          0  MISS:        220
L2C WRITEBACK ACCESS:          0  HIT:          0  MISS:          0

L2C DA-AMPM prefetcher final stats
LLC TOTAL     ACCESS:        468  HIT:          0  MISS:        468
LLC LOAD      ACCESS:        177  HIT:          0  MISS:        177
LLC RFO       ACCESS:         63  HIT:          0  MISS:         63
LLC PREFETCH  ACCESS:        228  HIT:          0  MISS:        228
LLC WRITEBACK ACCESS:          0  HIT:          0  MISS:          0

CPU 2 cumulative IPC: 0.279851 instructions: 1000000000 cycles: 3573335101
L1D TOTAL     ACCESS:  181623098  HIT:  109884529  MISS:   71738569
L1D LOAD      ACCESS:  165936784  HIT:   94247015  MISS:   71689769
L1D RFO       ACCESS:   15686314  HIT:   15637514  MISS:      48800
L1D PREFETCH  ACCESS:          0  HIT:          0  MISS:          0
L1D WRITEBACK ACCESS:          0  HIT:          0  MISS:          0
L1I TOTAL     ACCESS:  363852899  HIT:  363852835  MISS:         64
L1I LOAD      ACCESS:  363852899  HIT:  363852835  MISS:         64
L1I RFO       ACCESS:          0  HIT:          0  MISS:          0
L1I PREFETCH  ACCESS:          0  HIT:          0  MISS:          0
L1I WRITEBACK ACCESS:          0  HIT:          0  MISS:          0
L2C TOTAL     ACCESS:  133432252  HIT:   62476347  MISS:   70955905
L2C LOAD      ACCESS:   71689833  HIT:   61602889  MISS:   10086944
L2C RFO       ACCESS:      48800  HIT:      10588  MISS:      38212
L2C PREFETCH  ACCESS:   61419957  HIT:     589271  MISS:   60830686
L2C WRITEBACK ACCESS:     273662  HIT:     273599  MISS:         63

L2C DA-AMPM prefetcher final stats
LLC TOTAL     ACCESS:   71085139  HIT:     314998  MISS:   70770141
LLC LOAD      ACCESS:    5932902  HIT:     127380  MISS:    5805522
LLC RFO       ACCESS:      37726  HIT:       9281  MISS:      28445
LLC PREFETCH  ACCESS:   64985214  HIT:      49178  MISS:   64936036
LLC WRITEBACK ACCESS:     129297  HIT:     129159  MISS:        138

CPU 3 cumulative IPC: 0.42532 instructions: 1519812175 cycles: 3573335101
L1D TOTAL     ACCESS:  506775545  HIT:  500921896  MISS:    5853649
L1D LOAD      ACCESS:  331607983  HIT:  327030841  MISS:    4577142
L1D RFO       ACCESS:  175167562  HIT:  173891055  MISS:    1276507
L1D PREFETCH  ACCESS:          0  HIT:          0  MISS:          0
L1D WRITEBACK ACCESS:          0  HIT:          0  MISS:          0
L1I TOTAL     ACCESS:  350819981  HIT:  350710158  MISS:     109823
L1I LOAD      ACCESS:  350819981  HIT:  350710158  MISS:     109823
L1I RFO       ACCESS:          0  HIT:          0  MISS:          0
L1I PREFETCH  ACCESS:          0  HIT:          0  MISS:          0
L1I WRITEBACK ACCESS:          0  HIT:          0  MISS:          0
L2C TOTAL     ACCESS:    8384565  HIT:    6787875  MISS:    1596690
L2C LOAD      ACCESS:    4686847  HIT:    4396871  MISS:     289976
L2C RFO       ACCESS:    1276500  HIT:     593955  MISS:     682545
L2C PREFETCH  ACCESS:     663512  HIT:      40868  MISS:     622644
L2C WRITEBACK ACCESS:    1757706  HIT:    1756181  MISS:       1525

L2C DA-AMPM prefetcher final stats
LLC TOTAL     ACCESS:    2335468  HIT:     775883  MISS:    1559585
LLC LOAD      ACCESS:     240127  HIT:      38335  MISS:     201792
LLC RFO       ACCESS:     682519  HIT:      16640  MISS:     665879
LLC PREFETCH  ACCESS:     672519  HIT:      15196  MISS:     657323
LLC WRITEBACK ACCESS:     740303  HIT:     705712  MISS:      34591

Region of Interest Statistics

CPU 0 cumulative IPC: 1.11143 instructions: 1000000001 cycles: 899742502
L1D TOTAL     ACCESS:  290677184  HIT:  174995357  MISS:  115681827
L1D LOAD      ACCESS:  177611157  HIT:   70102472  MISS:  107508685
L1D RFO       ACCESS:  113066027  HIT:  104892885  MISS:    8173142
L1D PREFETCH  ACCESS:          0  HIT:          0  MISS:          0
L1D WRITEBACK ACCESS:          0  HIT:          0  MISS:          0
L1D PREFETCH  REQUESTED:          0  ISSUED:          0  USEFUL:          0  USELESS:          0
L1I TOTAL     ACCESS:  251748635  HIT:  251748635  MISS:          0
L1I LOAD      ACCESS:  251748635  HIT:  251748635  MISS:          0
L1I RFO       ACCESS:          0  HIT:          0  MISS:          0
L1I PREFETCH  ACCESS:          0  HIT:          0  MISS:          0
L1I WRITEBACK ACCESS:          0  HIT:          0  MISS:          0
L1I PREFETCH  REQUESTED:          0  ISSUED:          0  USEFUL:          0  USELESS:          0
L2C TOTAL     ACCESS:  133828244  HIT:   94514604  MISS:   39313640
L2C LOAD      ACCESS:  106996835  HIT:   82664020  MISS:   24332815
L2C RFO       ACCESS:    8166721  HIT:    2371426  MISS:    5795295
L2C PREFETCH  ACCESS:    9426629  HIT:     263332  MISS:    9163297
L2C WRITEBACK ACCESS:    9238059  HIT:    9215826  MISS:      22233
L2C PREFETCH  REQUESTED:   47500790  ISSUED:   38964355  USEFUL:   13446850  USELESS:   24431903
LLC TOTAL     ACCESS:   44316610  HIT:   36618573  MISS:    7698037
LLC LOAD      ACCESS:   24331025  HIT:   23746471  MISS:     584554
LLC RFO       ACCESS:    4803568  HIT:    4803568  MISS:          0
LLC PREFETCH  ACCESS:    9163296  HIT:    2051907  MISS:    7111389
LLC WRITEBACK ACCESS:    6018721  HIT:    6016627  MISS:       2094
LLC PREFETCH  REQUESTED:          0  ISSUED:          0  USEFUL:   18611036  USELESS:   93416164
Major fault: 0 Minor fault: 70776

CPU 1 cumulative IPC: 1.57411 instructions: 1000000000 cycles: 635279198
L1D TOTAL     ACCESS:  287038579  HIT:  287038528  MISS:         51
L1D LOAD      ACCESS:  125849508  HIT:  125849493  MISS:         15
L1D RFO       ACCESS:  161189071  HIT:  161189035  MISS:         36
L1D PREFETCH  ACCESS:          0  HIT:          0  MISS:          0
L1D WRITEBACK ACCESS:          0  HIT:          0  MISS:          0
L1D PREFETCH  REQUESTED:          0  ISSUED:          0  USEFUL:          0  USELESS:          0
L1I TOTAL     ACCESS:  219533467  HIT:  219497541  MISS:      35926
L1I LOAD      ACCESS:  219533467  HIT:  219497541  MISS:      35926
L1I RFO       ACCESS:          0  HIT:          0  MISS:          0
L1I PREFETCH  ACCESS:          0  HIT:          0  MISS:          0
L1I WRITEBACK ACCESS:          0  HIT:          0  MISS:          0
L1I PREFETCH  REQUESTED:          0  ISSUED:          0  USEFUL:          0  USELESS:          0
L2C TOTAL     ACCESS:      36052  HIT:      35914  MISS:        138
L2C LOAD      ACCESS:      35941  HIT:      35914  MISS:         27
L2C RFO       ACCESS:         36  HIT:          0  MISS:         36
L2C PREFETCH  ACCESS:         75  HIT:          0  MISS:         75
L2C WRITEBACK ACCESS:          0  HIT:          0  MISS:          0
L2C PREFETCH  REQUESTED:       1587  ISSUED:       1587  USEFUL:       1120  USELESS:          0
LLC TOTAL     ACCESS:        138  HIT:          0  MISS:        138
LLC LOAD      ACCESS:         23  HIT:          0  MISS:         23
LLC RFO       ACCESS:         36  HIT:          0  MISS:         36
LLC PREFETCH  ACCESS:         79  HIT:          0  MISS:         79
LLC WRITEBACK ACCESS:          0  HIT:          0  MISS:          0
LLC PREFETCH  REQUESTED:          0  ISSUED:          0  USEFUL:   18611036  USELESS:   93416164
Major fault: 0 Minor fault: 75

CPU 2 cumulative IPC: 0.279851 instructions: 1000000000 cycles: 3573335101
L1D TOTAL     ACCESS:  181623098  HIT:  109884529  MISS:   71738569
L1D LOAD      ACCESS:  165936784  HIT:   94247015  MISS:   71689769
L1D RFO       ACCESS:   15686314  HIT:   15637514  MISS:      48800
L1D PREFETCH  ACCESS:          0  HIT:          0  MISS:          0
L1D WRITEBACK ACCESS:          0  HIT:          0  MISS:          0
L1D PREFETCH  REQUESTED:          0  ISSUED:          0  USEFUL:          0  USELESS:          0
L1I TOTAL     ACCESS:  363852899  HIT:  363852835  MISS:         64
L1I LOAD      ACCESS:  363852899  HIT:  363852835  MISS:         64
L1I RFO       ACCESS:          0  HIT:          0  MISS:          0
L1I PREFETCH  ACCESS:          0  HIT:          0  MISS:          0
L1I WRITEBACK ACCESS:          0  HIT:          0  MISS:          0
L1I PREFETCH  REQUESTED:          0  ISSUED:          0  USEFUL:          0  USELESS:          0
L2C TOTAL     ACCESS:  133432252  HIT:   62476347  MISS:   70955905
L2C LOAD      ACCESS:   71689833  HIT:   61602889  MISS:   10086944
L2C RFO       ACCESS:      48800  HIT:      10588  MISS:      38212
L2C PREFETCH  ACCESS:   61419957  HIT:     589271  MISS:   60830686
L2C WRITEBACK ACCESS:     273662  HIT:     273599  MISS:         63
L2C PREFETCH  REQUESTED:   84227367  ISSUED:   84227367  USEFUL:   75828128  USELESS:    2070885
LLC TOTAL     ACCESS:   71085139  HIT:     314998  MISS:   70770141
LLC LOAD      ACCESS:    5932902  HIT:     127380  MISS:    5805522
LLC RFO       ACCESS:      37726  HIT:       9281  MISS:      28445
LLC PREFETCH  ACCESS:   64985214  HIT:      49178  MISS:   64936036
LLC WRITEBACK ACCESS:     129297  HIT:     129159  MISS:        138
LLC PREFETCH  REQUESTED:          0  ISSUED:          0  USEFUL:   18611036  USELESS:   93416164
Major fault: 0 Minor fault: 56734

CPU 3 cumulative IPC: 0.421275 instructions: 1000000000 cycles: 2373744198
L1D TOTAL     ACCESS:  335329071  HIT:  331267843  MISS:    4061228
L1D LOAD      ACCESS:  219408715  HIT:  216336064  MISS:    3072651
L1D RFO       ACCESS:  115920356  HIT:  114931779  MISS:     988577
L1D PREFETCH  ACCESS:          0  HIT:          0  MISS:          0
L1D WRITEBACK ACCESS:          0  HIT:          0  MISS:          0
L1D PREFETCH  REQUESTED:          0  ISSUED:          0  USEFUL:          0  USELESS:          0
L1I TOTAL     ACCESS:  231655408  HIT:  231581382  MISS:      74026
L1I LOAD      ACCESS:  231655408  HIT:  231581382  MISS:      74026
L1I RFO       ACCESS:          0  HIT:          0  MISS:          0
L1I PREFETCH  ACCESS:          0  HIT:          0  MISS:          0
L1I WRITEBACK ACCESS:          0  HIT:          0  MISS:          0
L1I PREFETCH  REQUESTED:          0  ISSUED:          0  USEFUL:          0  USELESS:          0
L2C TOTAL     ACCESS:    6027580  HIT:    4627501  MISS:    1400079
L2C LOAD      ACCESS:    3146628  HIT:    2915741  MISS:     230887
L2C RFO       ACCESS:     988571  HIT:     373991  MISS:     614580
L2C PREFETCH  ACCESS:     584623  HIT:      31178  MISS:     553445
L2C WRITEBACK ACCESS:    1307758  HIT:    1306591  MISS:       1167
L2C PREFETCH  REQUESTED:     758461  ISSUED:     758461  USEFUL:     579657  USELESS:      52032
LLC TOTAL     ACCESS:    2063221  HIT:     698352  MISS:    1364869
LLC LOAD      ACCESS:     186690  HIT:      30400  MISS:     156290
LLC RFO       ACCESS:     614562  HIT:      14686  MISS:     599876
LLC PREFETCH  ACCESS:     597660  HIT:      13830  MISS:     583830
LLC WRITEBACK ACCESS:     664309  HIT:     639436  MISS:      24873
LLC PREFETCH  REQUESTED:          0  ISSUED:          0  USEFUL:   18611036  USELESS:   93416164
Major fault: 0 Minor fault: 2722

L2C DA-AMPM prefetcher final stats

L2C DA-AMPM prefetcher final stats

L2C DA-AMPM prefetcher final stats

L2C DA-AMPM prefetcher final stats

DRAM Statistics
 CHANNEL 0
 RQ ROW_BUFFER_HIT:   44714394  ROW_BUFFER_MISS:    6446767
 DBUS_CONGESTED:   43032417
 WQ ROW_BUFFER_HIT:     748535  ROW_BUFFER_MISS:    1553346  FULL:          0

 CHANNEL 1
 RQ ROW_BUFFER_HIT:   44801295  ROW_BUFFER_MISS:    6389241
 DBUS_CONGESTED:   43032417
 WQ ROW_BUFFER_HIT:     748453  ROW_BUFFER_MISS:    1557512  FULL:          0

 AVG_CONGESTED_CYCLE: 13
