
*** ChampSim Multicore Out-of-Order Simulator ***

Warmup Instructions: 200000000
Simulation Instructions: 1000000000
Number of CPUs: 4
LLC sets: 8192
LLC ways: 16
Off-chip DRAM Size: 8192 MB Channels: 2 Width: 64-bit Data Rate: 1600 MT/s

CPU 0 runs /scratch/user/djimenez/champsim-traces/speccpu2017/xz/607.cactuBSSN_s/607.cactuBSSN_s-4248B.champsimtrace.xz
CPU 1 runs /scratch/user/djimenez/champsim-traces/speccpu2017/xz/605.mcf_s/605.mcf_s-472B.champsimtrace.xz
CPU 2 runs /scratch/user/djimenez/champsim-traces/speccpu2017/xz/620.omnetpp_s/620.omnetpp_s-874B.champsimtrace.xz
CPU 3 runs /scratch/user/djimenez/champsim-traces/speccpu2017/xz/620.omnetpp_s/620.omnetpp_s-141B.champsimtrace.xz
L2C DA-AMPM prefetcher
L2C DA-AMPM prefetcher
L2C DA-AMPM prefetcher
L2C DA-AMPM prefetcher
Heartbeat CPU 0 instructions: 10000002 cycles: 4531254 heartbeat IPC: 2.2069 cumulative IPC: 2.2069 (Simulation time: 0 hr 1 min 20 sec) 
Heartbeat CPU 1 instructions: 10000000 cycles: 6688079 heartbeat IPC: 1.4952 cumulative IPC: 1.4952 (Simulation time: 0 hr 1 min 58 sec) 
Heartbeat CPU 2 instructions: 10000000 cycles: 7369175 heartbeat IPC: 1.357 cumulative IPC: 1.357 (Simulation time: 0 hr 2 min 10 sec) 
Heartbeat CPU 3 instructions: 10000000 cycles: 7405743 heartbeat IPC: 1.3503 cumulative IPC: 1.3503 (Simulation time: 0 hr 2 min 11 sec) 
Heartbeat CPU 0 instructions: 20000000 cycles: 9063400 heartbeat IPC: 2.20646 cumulative IPC: 2.20668 (Simulation time: 0 hr 2 min 41 sec) 
Heartbeat CPU 1 instructions: 20000000 cycles: 13020677 heartbeat IPC: 1.57913 cumulative IPC: 1.53602 (Simulation time: 0 hr 3 min 54 sec) 
Heartbeat CPU 0 instructions: 30000000 cycles: 13594758 heartbeat IPC: 2.20684 cumulative IPC: 2.20673 (Simulation time: 0 hr 4 min 4 sec) 
Heartbeat CPU 2 instructions: 20000000 cycles: 14722485 heartbeat IPC: 1.35993 cumulative IPC: 1.35847 (Simulation time: 0 hr 4 min 25 sec) 
Heartbeat CPU 3 instructions: 20000000 cycles: 14836899 heartbeat IPC: 1.34569 cumulative IPC: 1.34799 (Simulation time: 0 hr 4 min 27 sec) 
Heartbeat CPU 0 instructions: 40000000 cycles: 18126668 heartbeat IPC: 2.20658 cumulative IPC: 2.20669 (Simulation time: 0 hr 5 min 29 sec) 
Heartbeat CPU 1 instructions: 30000002 cycles: 19135735 heartbeat IPC: 1.63531 cumulative IPC: 1.56775 (Simulation time: 0 hr 5 min 47 sec) 
Heartbeat CPU 2 instructions: 30000001 cycles: 22076969 heartbeat IPC: 1.35971 cumulative IPC: 1.35888 (Simulation time: 0 hr 6 min 39 sec) 
Heartbeat CPU 3 instructions: 30000003 cycles: 22291915 heartbeat IPC: 1.34138 cumulative IPC: 1.34578 (Simulation time: 0 hr 6 min 43 sec) 
Heartbeat CPU 0 instructions: 50000000 cycles: 22658542 heartbeat IPC: 2.20659 cumulative IPC: 2.20667 (Simulation time: 0 hr 6 min 49 sec) 
Heartbeat CPU 1 instructions: 40000000 cycles: 25798159 heartbeat IPC: 1.50095 cumulative IPC: 1.5505 (Simulation time: 0 hr 7 min 47 sec) 
Heartbeat CPU 0 instructions: 60000000 cycles: 26689549 heartbeat IPC: 2.48077 cumulative IPC: 2.24807 (Simulation time: 0 hr 8 min 3 sec) 
Heartbeat CPU 2 instructions: 40000000 cycles: 29439902 heartbeat IPC: 1.35815 cumulative IPC: 1.3587 (Simulation time: 0 hr 8 min 53 sec) 
Heartbeat CPU 3 instructions: 40000000 cycles: 29702925 heartbeat IPC: 1.34934 cumulative IPC: 1.34667 (Simulation time: 0 hr 8 min 58 sec) 
Heartbeat CPU 0 instructions: 70000001 cycles: 30516252 heartbeat IPC: 2.61322 cumulative IPC: 2.29386 (Simulation time: 0 hr 9 min 13 sec) 
Heartbeat CPU 1 instructions: 50000000 cycles: 32347345 heartbeat IPC: 1.52691 cumulative IPC: 1.54572 (Simulation time: 0 hr 9 min 50 sec) 
Heartbeat CPU 0 instructions: 80000000 cycles: 34343789 heartbeat IPC: 2.61265 cumulative IPC: 2.32939 (Simulation time: 0 hr 10 min 28 sec) 
Heartbeat CPU 2 instructions: 50000000 cycles: 36803016 heartbeat IPC: 1.35812 cumulative IPC: 1.35858 (Simulation time: 0 hr 11 min 16 sec) 
Heartbeat CPU 3 instructions: 50000001 cycles: 37162796 heartbeat IPC: 1.34051 cumulative IPC: 1.34543 (Simulation time: 0 hr 11 min 23 sec) 
Heartbeat CPU 0 instructions: 90000003 cycles: 38170899 heartbeat IPC: 2.61294 cumulative IPC: 2.35782 (Simulation time: 0 hr 11 min 42 sec) 
Heartbeat CPU 1 instructions: 60000000 cycles: 38868494 heartbeat IPC: 1.53347 cumulative IPC: 1.54367 (Simulation time: 0 hr 11 min 57 sec) 
Heartbeat CPU 0 instructions: 100000000 cycles: 41997962 heartbeat IPC: 2.61297 cumulative IPC: 2.38107 (Simulation time: 0 hr 12 min 59 sec) 
Heartbeat CPU 2 instructions: 60000000 cycles: 44173274 heartbeat IPC: 1.3568 cumulative IPC: 1.35829 (Simulation time: 0 hr 13 min 42 sec) 
Heartbeat CPU 3 instructions: 60000000 cycles: 44551676 heartbeat IPC: 1.35338 cumulative IPC: 1.34675 (Simulation time: 0 hr 13 min 49 sec) 
Heartbeat CPU 1 instructions: 70000002 cycles: 45487492 heartbeat IPC: 1.5108 cumulative IPC: 1.53888 (Simulation time: 0 hr 14 min 7 sec) 
Heartbeat CPU 0 instructions: 110000000 cycles: 45825257 heartbeat IPC: 2.61281 cumulative IPC: 2.40042 (Simulation time: 0 hr 14 min 14 sec) 
Heartbeat CPU 0 instructions: 120000000 cycles: 49652443 heartbeat IPC: 2.61289 cumulative IPC: 2.4168 (Simulation time: 0 hr 15 min 30 sec) 
Heartbeat CPU 2 instructions: 70000000 cycles: 51532983 heartbeat IPC: 1.35875 cumulative IPC: 1.35835 (Simulation time: 0 hr 16 min 7 sec) 
Heartbeat CPU 1 instructions: 80000000 cycles: 51836097 heartbeat IPC: 1.57515 cumulative IPC: 1.54333 (Simulation time: 0 hr 16 min 14 sec) 
Heartbeat CPU 3 instructions: 70000000 cycles: 51998780 heartbeat IPC: 1.3428 cumulative IPC: 1.34619 (Simulation time: 0 hr 16 min 17 sec) 
Heartbeat CPU 0 instructions: 130000002 cycles: 53479523 heartbeat IPC: 2.61296 cumulative IPC: 2.43084 (Simulation time: 0 hr 16 min 45 sec) 
Heartbeat CPU 0 instructions: 140000000 cycles: 57306638 heartbeat IPC: 2.61293 cumulative IPC: 2.443 (Simulation time: 0 hr 18 min 1 sec) 
Heartbeat CPU 1 instructions: 90000000 cycles: 58433899 heartbeat IPC: 1.51566 cumulative IPC: 1.5402 (Simulation time: 0 hr 18 min 23 sec) 
Heartbeat CPU 2 instructions: 80000000 cycles: 58886602 heartbeat IPC: 1.35987 cumulative IPC: 1.35854 (Simulation time: 0 hr 18 min 32 sec) 
Heartbeat CPU 3 instructions: 80000000 cycles: 59422964 heartbeat IPC: 1.34695 cumulative IPC: 1.34628 (Simulation time: 0 hr 18 min 42 sec) 
Heartbeat CPU 0 instructions: 150000003 cycles: 61133908 heartbeat IPC: 2.61283 cumulative IPC: 2.45363 (Simulation time: 0 hr 19 min 16 sec) 
Heartbeat CPU 1 instructions: 100000000 cycles: 64838914 heartbeat IPC: 1.56128 cumulative IPC: 1.54228 (Simulation time: 0 hr 20 min 29 sec) 
Heartbeat CPU 0 instructions: 160000000 cycles: 64961064 heartbeat IPC: 2.61291 cumulative IPC: 2.46301 (Simulation time: 0 hr 20 min 32 sec) 
Heartbeat CPU 2 instructions: 90000000 cycles: 66242541 heartbeat IPC: 1.35945 cumulative IPC: 1.35864 (Simulation time: 0 hr 20 min 56 sec) 
Heartbeat CPU 3 instructions: 90000002 cycles: 66874066 heartbeat IPC: 1.34208 cumulative IPC: 1.34581 (Simulation time: 0 hr 21 min 9 sec) 
Heartbeat CPU 0 instructions: 170000002 cycles: 68788385 heartbeat IPC: 2.61279 cumulative IPC: 2.47135 (Simulation time: 0 hr 21 min 46 sec) 
Heartbeat CPU 1 instructions: 110000002 cycles: 71508362 heartbeat IPC: 1.49937 cumulative IPC: 1.53828 (Simulation time: 0 hr 22 min 39 sec) 
Heartbeat CPU 0 instructions: 180000000 cycles: 72615290 heartbeat IPC: 2.61308 cumulative IPC: 2.47882 (Simulation time: 0 hr 23 min 2 sec) 
Heartbeat CPU 2 instructions: 100000000 cycles: 73618309 heartbeat IPC: 1.35579 cumulative IPC: 1.35836 (Simulation time: 0 hr 23 min 21 sec) 
Heartbeat CPU 3 instructions: 100000000 cycles: 74306268 heartbeat IPC: 1.3455 cumulative IPC: 1.34578 (Simulation time: 0 hr 23 min 35 sec) 
Heartbeat CPU 0 instructions: 190000001 cycles: 76442483 heartbeat IPC: 2.61288 cumulative IPC: 2.48553 (Simulation time: 0 hr 24 min 16 sec) 
Heartbeat CPU 1 instructions: 120000000 cycles: 78057393 heartbeat IPC: 1.52694 cumulative IPC: 1.53733 (Simulation time: 0 hr 24 min 48 sec) 
Heartbeat CPU 0 instructions: 200000000 cycles: 80268695 heartbeat IPC: 2.61355 cumulative IPC: 2.49163 (Simulation time: 0 hr 25 min 32 sec) 
Heartbeat CPU 2 instructions: 110000003 cycles: 80957188 heartbeat IPC: 1.36261 cumulative IPC: 1.35874 (Simulation time: 0 hr 25 min 46 sec) 
Heartbeat CPU 3 instructions: 110000002 cycles: 81740057 heartbeat IPC: 1.34521 cumulative IPC: 1.34573 (Simulation time: 0 hr 26 min 3 sec) 
Heartbeat CPU 0 instructions: 210000000 cycles: 84095619 heartbeat IPC: 2.61306 cumulative IPC: 0.118912 (Simulation time: 0 hr 26 min 49 sec) 
Heartbeat CPU 1 instructions: 130000002 cycles: 84507056 heartbeat IPC: 1.55047 cumulative IPC: 1.53833 (Simulation time: 0 hr 26 min 57 sec) 
Heartbeat CPU 0 instructions: 220000000 cycles: 87922837 heartbeat IPC: 2.61286 cumulative IPC: 0.227472 (Simulation time: 0 hr 28 min 4 sec) 
Heartbeat CPU 2 instructions: 120000000 cycles: 88316848 heartbeat IPC: 1.35876 cumulative IPC: 1.35874 (Simulation time: 0 hr 28 min 11 sec) 
Heartbeat CPU 3 instructions: 120000000 cycles: 89171340 heartbeat IPC: 1.34566 cumulative IPC: 1.34572 (Simulation time: 0 hr 28 min 28 sec) 
Heartbeat CPU 1 instructions: 140000000 cycles: 90954578 heartbeat IPC: 1.55098 cumulative IPC: 1.53923 (Simulation time: 0 hr 29 min 3 sec) 
Heartbeat CPU 0 instructions: 230000000 cycles: 91750210 heartbeat IPC: 2.61276 cumulative IPC: 0.326975 (Simulation time: 0 hr 29 min 19 sec) 
Heartbeat CPU 0 instructions: 240000000 cycles: 95577169 heartbeat IPC: 2.61304 cumulative IPC: 0.41851 (Simulation time: 0 hr 30 min 35 sec) 
Heartbeat CPU 2 instructions: 130000000 cycles: 95660483 heartbeat IPC: 1.36172 cumulative IPC: 1.35897 (Simulation time: 0 hr 30 min 37 sec) 
Heartbeat CPU 3 instructions: 130000000 cycles: 96569735 heartbeat IPC: 1.35164 cumulative IPC: 1.34618 (Simulation time: 0 hr 30 min 55 sec) 
Heartbeat CPU 1 instructions: 150000001 cycles: 97375670 heartbeat IPC: 1.55737 cumulative IPC: 1.54043 (Simulation time: 0 hr 31 min 11 sec) 
Heartbeat CPU 0 instructions: 250000003 cycles: 99404466 heartbeat IPC: 2.61281 cumulative IPC: 0.502996 (Simulation time: 0 hr 31 min 51 sec) 
Heartbeat CPU 2 instructions: 140000000 cycles: 103028437 heartbeat IPC: 1.35723 cumulative IPC: 1.35885 (Simulation time: 0 hr 33 min 2 sec) 
Heartbeat CPU 0 instructions: 260000000 cycles: 103231748 heartbeat IPC: 2.61282 cumulative IPC: 0.581217 (Simulation time: 0 hr 33 min 6 sec) 
Heartbeat CPU 1 instructions: 160000000 cycles: 103951948 heartbeat IPC: 1.52062 cumulative IPC: 1.53917 (Simulation time: 0 hr 33 min 20 sec) 
Heartbeat CPU 3 instructions: 140000000 cycles: 103998354 heartbeat IPC: 1.34615 cumulative IPC: 1.34618 (Simulation time: 0 hr 33 min 21 sec) 
Heartbeat CPU 0 instructions: 270000002 cycles: 107058925 heartbeat IPC: 2.61289 cumulative IPC: 0.653846 (Simulation time: 0 hr 34 min 21 sec) 
Heartbeat CPU 2 instructions: 150000001 cycles: 110403699 heartbeat IPC: 1.35588 cumulative IPC: 1.35865 (Simulation time: 0 hr 35 min 27 sec) 
Heartbeat CPU 1 instructions: 170000001 cycles: 110593883 heartbeat IPC: 1.50559 cumulative IPC: 1.53716 (Simulation time: 0 hr 35 min 30 sec) 
Heartbeat CPU 0 instructions: 280000000 cycles: 110886223 heartbeat IPC: 2.61281 cumulative IPC: 0.72146 (Simulation time: 0 hr 35 min 36 sec) 
Heartbeat CPU 3 instructions: 150000001 cycles: 111441780 heartbeat IPC: 1.34347 cumulative IPC: 1.34599 (Simulation time: 0 hr 35 min 47 sec) 
Heartbeat CPU 0 instructions: 290000002 cycles: 114713481 heartbeat IPC: 2.61284 cumulative IPC: 0.784563 (Simulation time: 0 hr 36 min 51 sec) 
Heartbeat CPU 1 instructions: 180000000 cycles: 117230352 heartbeat IPC: 1.50683 cumulative IPC: 1.53544 (Simulation time: 0 hr 37 min 40 sec) 
Heartbeat CPU 2 instructions: 160000000 cycles: 117783849 heartbeat IPC: 1.35499 cumulative IPC: 1.35842 (Simulation time: 0 hr 37 min 51 sec) 
Heartbeat CPU 0 instructions: 300000000 cycles: 118540581 heartbeat IPC: 2.61294 cumulative IPC: 0.843593 (Simulation time: 0 hr 38 min 7 sec) 
Heartbeat CPU 3 instructions: 160000000 cycles: 118879413 heartbeat IPC: 1.34451 cumulative IPC: 1.3459 (Simulation time: 0 hr 38 min 14 sec) 
Heartbeat CPU 0 instructions: 310000000 cycles: 122367945 heartbeat IPC: 2.61276 cumulative IPC: 0.898928 (Simulation time: 0 hr 39 min 22 sec) 
Heartbeat CPU 1 instructions: 190000001 cycles: 123494652 heartbeat IPC: 1.59635 cumulative IPC: 1.53853 (Simulation time: 0 hr 39 min 46 sec) 
Heartbeat CPU 2 instructions: 170000003 cycles: 125142115 heartbeat IPC: 1.35902 cumulative IPC: 1.35846 (Simulation time: 0 hr 40 min 18 sec) 
Heartbeat CPU 0 instructions: 320000000 cycles: 126195039 heartbeat IPC: 2.61295 cumulative IPC: 0.950909 (Simulation time: 0 hr 40 min 38 sec) 
Heartbeat CPU 3 instructions: 170000003 cycles: 126289340 heartbeat IPC: 1.34954 cumulative IPC: 1.34612 (Simulation time: 0 hr 40 min 40 sec) 
Heartbeat CPU 1 instructions: 200000000 cycles: 130020237 heartbeat IPC: 1.53243 cumulative IPC: 1.53822 (Simulation time: 0 hr 41 min 54 sec) 
Heartbeat CPU 0 instructions: 330000001 cycles: 130022176 heartbeat IPC: 2.61292 cumulative IPC: 0.999829 (Simulation time: 0 hr 41 min 54 sec) 
Heartbeat CPU 2 instructions: 180000000 cycles: 132510192 heartbeat IPC: 1.35721 cumulative IPC: 1.35839 (Simulation time: 0 hr 42 min 43 sec) 
Heartbeat CPU 3 instructions: 180000000 cycles: 133718417 heartbeat IPC: 1.34606 cumulative IPC: 1.34611 (Simulation time: 0 hr 43 min 6 sec) 
Heartbeat CPU 0 instructions: 340000000 cycles: 133849584 heartbeat IPC: 2.61273 cumulative IPC: 1.04595 (Simulation time: 0 hr 43 min 9 sec) 
Heartbeat CPU 1 instructions: 210000001 cycles: 136643904 heartbeat IPC: 1.50974 cumulative IPC: 0.0731829 (Simulation time: 0 hr 44 min 3 sec) 
Heartbeat CPU 0 instructions: 350000002 cycles: 137676731 heartbeat IPC: 2.61291 cumulative IPC: 1.08951 (Simulation time: 0 hr 44 min 23 sec) 
Heartbeat CPU 2 instructions: 190000002 cycles: 139863332 heartbeat IPC: 1.35996 cumulative IPC: 1.35847 (Simulation time: 0 hr 45 min 7 sec) 
Heartbeat CPU 3 instructions: 190000003 cycles: 141143635 heartbeat IPC: 1.34676 cumulative IPC: 1.34615 (Simulation time: 0 hr 45 min 32 sec) 
Heartbeat CPU 0 instructions: 360000000 cycles: 141503743 heartbeat IPC: 2.613 cumulative IPC: 1.13071 (Simulation time: 0 hr 45 min 39 sec) 
Heartbeat CPU 1 instructions: 220000000 cycles: 143109908 heartbeat IPC: 1.54655 cumulative IPC: 0.139753 (Simulation time: 0 hr 46 min 10 sec) 
Heartbeat CPU 0 instructions: 370000001 cycles: 145330988 heartbeat IPC: 2.61285 cumulative IPC: 1.16974 (Simulation time: 0 hr 46 min 54 sec) 
Heartbeat CPU 2 instructions: 200000000 cycles: 147218817 heartbeat IPC: 1.35953 cumulative IPC: 1.35852 (Simulation time: 0 hr 47 min 31 sec) 
Heartbeat CPU 3 instructions: 200000000 cycles: 148585668 heartbeat IPC: 1.34372 cumulative IPC: 1.34602 (Simulation time: 0 hr 47 min 57 sec) 

Warmup complete CPU 0 instructions: 378504373 cycles: 148585669 (Simulation time: 0 hr 47 min 57 sec) 
Warmup complete CPU 1 instructions: 228375890 cycles: 148585669 (Simulation time: 0 hr 47 min 57 sec) 
Warmup complete CPU 2 instructions: 201852720 cycles: 148585669 (Simulation time: 0 hr 47 min 57 sec) 
Warmup complete CPU 3 instructions: 200000003 cycles: 148585669 (Simulation time: 0 hr 47 min 57 sec) 

Heartbeat CPU 0 instructions: 380000000 cycles: 149604300 heartbeat IPC: 2.34011 cumulative IPC: 1.46827 (Simulation time: 0 hr 48 min 6 sec) 
Heartbeat CPU 1 instructions: 230000001 cycles: 153736211 heartbeat IPC: 0.941061 cumulative IPC: 0.315328 (Simulation time: 0 hr 48 min 41 sec) 
Heartbeat CPU 0 instructions: 390000002 cycles: 156466828 heartbeat IPC: 1.45719 cumulative IPC: 1.45862 (Simulation time: 0 hr 49 min 5 sec) 
Heartbeat CPU 0 instructions: 400000000 cycles: 163302711 heartbeat IPC: 1.46287 cumulative IPC: 1.46059 (Simulation time: 0 hr 50 min 5 sec) 
Heartbeat CPU 0 instructions: 410000000 cycles: 170147987 heartbeat IPC: 1.46086 cumulative IPC: 1.46068 (Simulation time: 0 hr 51 min 3 sec) 
Heartbeat CPU 0 instructions: 420000000 cycles: 176976686 heartbeat IPC: 1.46441 cumulative IPC: 1.46158 (Simulation time: 0 hr 52 min 6 sec) 
Heartbeat CPU 1 instructions: 240000000 cycles: 177463679 heartbeat IPC: 0.421452 cumulative IPC: 0.402525 (Simulation time: 0 hr 52 min 11 sec) 
Heartbeat CPU 0 instructions: 430000000 cycles: 183790506 heartbeat IPC: 1.46761 cumulative IPC: 1.46274 (Simulation time: 0 hr 53 min 11 sec) 
Heartbeat CPU 2 instructions: 210000003 cycles: 185268504 heartbeat IPC: 0.262814 cumulative IPC: 0.222101 (Simulation time: 0 hr 53 min 25 sec) 
Heartbeat CPU 0 instructions: 440000000 cycles: 190599993 heartbeat IPC: 1.46854 cumulative IPC: 1.46368 (Simulation time: 0 hr 54 min 15 sec) 
Heartbeat CPU 1 instructions: 250000000 cycles: 194747444 heartbeat IPC: 0.578578 cumulative IPC: 0.468442 (Simulation time: 0 hr 54 min 54 sec) 
Heartbeat CPU 3 instructions: 210000003 cycles: 196192430 heartbeat IPC: 0.210054 cumulative IPC: 0.210054 (Simulation time: 0 hr 55 min 8 sec) 
Heartbeat CPU 0 instructions: 450000002 cycles: 197415868 heartbeat IPC: 1.46716 cumulative IPC: 1.46417 (Simulation time: 0 hr 55 min 21 sec) 
Heartbeat CPU 0 instructions: 460000000 cycles: 204230138 heartbeat IPC: 1.46751 cumulative IPC: 1.46458 (Simulation time: 0 hr 56 min 25 sec) 
Heartbeat CPU 0 instructions: 470000003 cycles: 211041885 heartbeat IPC: 1.46805 cumulative IPC: 1.46496 (Simulation time: 0 hr 57 min 29 sec) 
Heartbeat CPU 1 instructions: 260000000 cycles: 212213855 heartbeat IPC: 0.572527 cumulative IPC: 0.497014 (Simulation time: 0 hr 57 min 40 sec) 
Heartbeat CPU 0 instructions: 480000000 cycles: 217858205 heartbeat IPC: 1.46707 cumulative IPC: 1.46516 (Simulation time: 0 hr 58 min 32 sec) 
Heartbeat CPU 0 instructions: 490000000 cycles: 224667288 heartbeat IPC: 1.46863 cumulative IPC: 1.46547 (Simulation time: 0 hr 59 min 30 sec) 
Heartbeat CPU 2 instructions: 220000000 cycles: 230363784 heartbeat IPC: 0.221753 cumulative IPC: 0.221909 (Simulation time: 1 hr 0 min 17 sec) 
Heartbeat CPU 0 instructions: 500000000 cycles: 231469688 heartbeat IPC: 1.47007 cumulative IPC: 1.46585 (Simulation time: 1 hr 0 min 26 sec) 
Heartbeat CPU 1 instructions: 270000000 cycles: 233244101 heartbeat IPC: 0.475506 cumulative IPC: 0.491671 (Simulation time: 1 hr 0 min 41 sec) 
Heartbeat CPU 0 instructions: 510000003 cycles: 238280917 heartbeat IPC: 1.46816 cumulative IPC: 1.46603 (Simulation time: 1 hr 1 min 24 sec) 
Heartbeat CPU 3 instructions: 220000000 cycles: 243461459 heartbeat IPC: 0.211555 cumulative IPC: 0.210802 (Simulation time: 1 hr 2 min 7 sec) 
Heartbeat CPU 0 instructions: 520000000 cycles: 245081146 heartbeat IPC: 1.47054 cumulative IPC: 1.46634 (Simulation time: 1 hr 2 min 20 sec) 
Heartbeat CPU 0 instructions: 530000000 cycles: 251888582 heartbeat IPC: 1.46898 cumulative IPC: 1.46652 (Simulation time: 1 hr 3 min 16 sec) 
Heartbeat CPU 1 instructions: 280000000 cycles: 256481760 heartbeat IPC: 0.430336 cumulative IPC: 0.478461 (Simulation time: 1 hr 3 min 54 sec) 
Heartbeat CPU 0 instructions: 540000000 cycles: 258714473 heartbeat IPC: 1.46501 cumulative IPC: 1.46642 (Simulation time: 1 hr 4 min 13 sec) 
Heartbeat CPU 0 instructions: 550000003 cycles: 265574077 heartbeat IPC: 1.45781 cumulative IPC: 1.46592 (Simulation time: 1 hr 5 min 16 sec) 
Heartbeat CPU 0 instructions: 560000000 cycles: 272418293 heartbeat IPC: 1.46109 cumulative IPC: 1.46565 (Simulation time: 1 hr 6 min 17 sec) 
Heartbeat CPU 2 instructions: 230000002 cycles: 273789471 heartbeat IPC: 0.230278 cumulative IPC: 0.224812 (Simulation time: 1 hr 6 min 30 sec) 
Heartbeat CPU 0 instructions: 570000001 cycles: 279254359 heartbeat IPC: 1.46283 cumulative IPC: 1.46551 (Simulation time: 1 hr 7 min 16 sec) 
Heartbeat CPU 1 instructions: 290000000 cycles: 281012823 heartbeat IPC: 0.407646 cumulative IPC: 0.465343 (Simulation time: 1 hr 7 min 32 sec) 
Heartbeat CPU 0 instructions: 580000000 cycles: 286116117 heartbeat IPC: 1.45735 cumulative IPC: 1.4651 (Simulation time: 1 hr 8 min 15 sec) 
Heartbeat CPU 3 instructions: 230000001 cycles: 289802326 heartbeat IPC: 0.215792 cumulative IPC: 0.21244 (Simulation time: 1 hr 8 min 48 sec) 
Heartbeat CPU 0 instructions: 590000001 cycles: 292951446 heartbeat IPC: 1.46299 cumulative IPC: 1.465 (Simulation time: 1 hr 9 min 16 sec) 
Heartbeat CPU 0 instructions: 600000000 cycles: 299803063 heartbeat IPC: 1.45951 cumulative IPC: 1.46475 (Simulation time: 1 hr 10 min 17 sec) 
Heartbeat CPU 1 instructions: 300000000 cycles: 304545593 heartbeat IPC: 0.424939 cumulative IPC: 0.459247 (Simulation time: 1 hr 10 min 59 sec) 
Heartbeat CPU 0 instructions: 610000001 cycles: 306651134 heartbeat IPC: 1.46027 cumulative IPC: 1.46456 (Simulation time: 1 hr 11 min 17 sec) 
Heartbeat CPU 0 instructions: 620000000 cycles: 313501906 heartbeat IPC: 1.45969 cumulative IPC: 1.46435 (Simulation time: 1 hr 12 min 18 sec) 
Heartbeat CPU 2 instructions: 240000000 cycles: 317598618 heartbeat IPC: 0.228263 cumulative IPC: 0.225706 (Simulation time: 1 hr 12 min 56 sec) 
Heartbeat CPU 0 instructions: 630000001 cycles: 320352297 heartbeat IPC: 1.45977 cumulative IPC: 1.46417 (Simulation time: 1 hr 13 min 19 sec) 
Heartbeat CPU 0 instructions: 640000000 cycles: 327200427 heartbeat IPC: 1.46025 cumulative IPC: 1.46402 (Simulation time: 1 hr 14 min 20 sec) 
Heartbeat CPU 1 instructions: 310000000 cycles: 328864987 heartbeat IPC: 0.411194 cumulative IPC: 0.452765 (Simulation time: 1 hr 14 min 34 sec) 
Heartbeat CPU 0 instructions: 650000001 cycles: 334037250 heartbeat IPC: 1.46267 cumulative IPC: 1.46397 (Simulation time: 1 hr 15 min 21 sec) 
Heartbeat CPU 3 instructions: 240000000 cycles: 335998205 heartbeat IPC: 0.216469 cumulative IPC: 0.213433 (Simulation time: 1 hr 15 min 37 sec) 
Heartbeat CPU 0 instructions: 660000000 cycles: 340914018 heartbeat IPC: 1.45417 cumulative IPC: 1.46362 (Simulation time: 1 hr 16 min 20 sec) 
Heartbeat CPU 0 instructions: 670000002 cycles: 347782895 heartbeat IPC: 1.45584 cumulative IPC: 1.46335 (Simulation time: 1 hr 17 min 21 sec) 
Heartbeat CPU 1 instructions: 320000000 cycles: 354113981 heartbeat IPC: 0.396055 cumulative IPC: 0.445798 (Simulation time: 1 hr 18 min 16 sec) 
Heartbeat CPU 0 instructions: 680000000 cycles: 354655007 heartbeat IPC: 1.45516 cumulative IPC: 1.46308 (Simulation time: 1 hr 18 min 21 sec) 
Heartbeat CPU 0 instructions: 690000001 cycles: 361522193 heartbeat IPC: 1.4562 cumulative IPC: 1.46286 (Simulation time: 1 hr 19 min 22 sec) 
Heartbeat CPU 2 instructions: 250000000 cycles: 361628912 heartbeat IPC: 0.227116 cumulative IPC: 0.225998 (Simulation time: 1 hr 19 min 23 sec) 
Heartbeat CPU 0 instructions: 700000000 cycles: 368387539 heartbeat IPC: 1.45659 cumulative IPC: 1.46266 (Simulation time: 1 hr 20 min 22 sec) 
Heartbeat CPU 0 instructions: 710000003 cycles: 375344951 heartbeat IPC: 1.43732 cumulative IPC: 1.46188 (Simulation time: 1 hr 21 min 22 sec) 
Heartbeat CPU 1 instructions: 330000003 cycles: 378864919 heartbeat IPC: 0.404025 cumulative IPC: 0.441308 (Simulation time: 1 hr 21 min 51 sec) 
Heartbeat CPU 3 instructions: 250000001 cycles: 381358404 heartbeat IPC: 0.220458 cumulative IPC: 0.214802 (Simulation time: 1 hr 22 min 20 sec) 
Heartbeat CPU 0 instructions: 720000000 cycles: 382412266 heartbeat IPC: 1.41496 cumulative IPC: 1.46047 (Simulation time: 1 hr 22 min 40 sec) 
Heartbeat CPU 0 instructions: 730000000 cycles: 389482493 heartbeat IPC: 1.41438 cumulative IPC: 1.45911 (Simulation time: 1 hr 23 min 56 sec) 
Heartbeat CPU 0 instructions: 740000000 cycles: 396572212 heartbeat IPC: 1.41049 cumulative IPC: 1.45772 (Simulation time: 1 hr 24 min 57 sec) 
Heartbeat CPU 1 instructions: 340000000 cycles: 401947910 heartbeat IPC: 0.433219 cumulative IPC: 0.440571 (Simulation time: 1 hr 25 min 43 sec) 
Heartbeat CPU 0 instructions: 750000001 cycles: 403673591 heartbeat IPC: 1.40818 cumulative IPC: 1.45634 (Simulation time: 1 hr 25 min 58 sec) 
Heartbeat CPU 2 instructions: 260000000 cycles: 405407359 heartbeat IPC: 0.228423 cumulative IPC: 0.226411 (Simulation time: 1 hr 26 min 13 sec) 
Heartbeat CPU 0 instructions: 760000000 cycles: 410779408 heartbeat IPC: 1.4073 cumulative IPC: 1.45501 (Simulation time: 1 hr 26 min 59 sec) 
Heartbeat CPU 0 instructions: 770000000 cycles: 417866904 heartbeat IPC: 1.41094 cumulative IPC: 1.45385 (Simulation time: 1 hr 28 min 3 sec) 
Heartbeat CPU 0 instructions: 780000000 cycles: 424958722 heartbeat IPC: 1.41008 cumulative IPC: 1.45273 (Simulation time: 1 hr 29 min 4 sec) 
Heartbeat CPU 3 instructions: 260000000 cycles: 426828511 heartbeat IPC: 0.219925 cumulative IPC: 0.215639 (Simulation time: 1 hr 29 min 19 sec) 
Heartbeat CPU 1 instructions: 350000003 cycles: 427450545 heartbeat IPC: 0.392116 cumulative IPC: 0.43614 (Simulation time: 1 hr 29 min 24 sec) 
Heartbeat CPU 0 instructions: 790000003 cycles: 432070696 heartbeat IPC: 1.40608 cumulative IPC: 1.45156 (Simulation time: 1 hr 30 min 3 sec) 
Heartbeat CPU 0 instructions: 800000000 cycles: 439146845 heartbeat IPC: 1.4132 cumulative IPC: 1.45063 (Simulation time: 1 hr 31 min 5 sec) 
Heartbeat CPU 0 instructions: 810000000 cycles: 446249110 heartbeat IPC: 1.408 cumulative IPC: 1.44961 (Simulation time: 1 hr 32 min 7 sec) 
Heartbeat CPU 2 instructions: 270000000 cycles: 450103271 heartbeat IPC: 0.223734 cumulative IPC: 0.226014 (Simulation time: 1 hr 32 min 40 sec) 
Heartbeat CPU 1 instructions: 360000000 cycles: 452274334 heartbeat IPC: 0.402839 cumulative IPC: 0.433418 (Simulation time: 1 hr 32 min 59 sec) 
Heartbeat CPU 0 instructions: 820000000 cycles: 453349813 heartbeat IPC: 1.40831 cumulative IPC: 1.44865 (Simulation time: 1 hr 33 min 9 sec) 
Heartbeat CPU 0 instructions: 830000000 cycles: 460438214 heartbeat IPC: 1.41076 cumulative IPC: 1.44779 (Simulation time: 1 hr 34 min 11 sec) 
Heartbeat CPU 0 instructions: 840000000 cycles: 467535476 heartbeat IPC: 1.40899 cumulative IPC: 1.44692 (Simulation time: 1 hr 35 min 13 sec) 
Heartbeat CPU 3 instructions: 270000002 cycles: 473279696 heartbeat IPC: 0.21528 cumulative IPC: 0.215588 (Simulation time: 1 hr 36 min 2 sec) 
Heartbeat CPU 0 instructions: 850000000 cycles: 474630268 heartbeat IPC: 1.40948 cumulative IPC: 1.44611 (Simulation time: 1 hr 36 min 14 sec) 
Heartbeat CPU 1 instructions: 370000003 cycles: 475914856 heartbeat IPC: 0.423003 cumulative IPC: 0.432666 (Simulation time: 1 hr 36 min 24 sec) 
Heartbeat CPU 0 instructions: 860000000 cycles: 481727454 heartbeat IPC: 1.40901 cumulative IPC: 1.44532 (Simulation time: 1 hr 37 min 15 sec) 
Heartbeat CPU 0 instructions: 870000000 cycles: 488808303 heartbeat IPC: 1.41226 cumulative IPC: 1.44463 (Simulation time: 1 hr 38 min 16 sec) 
Heartbeat CPU 2 instructions: 280000000 cycles: 494010301 heartbeat IPC: 0.227754 cumulative IPC: 0.226235 (Simulation time: 1 hr 39 min 2 sec) 
Heartbeat CPU 0 instructions: 880000000 cycles: 495891000 heartbeat IPC: 1.41189 cumulative IPC: 1.44396 (Simulation time: 1 hr 39 min 19 sec) 
Heartbeat CPU 1 instructions: 380000000 cycles: 499653256 heartbeat IPC: 0.421258 cumulative IPC: 0.431894 (Simulation time: 1 hr 39 min 51 sec) 
Heartbeat CPU 0 instructions: 890000002 cycles: 502987852 heartbeat IPC: 1.40908 cumulative IPC: 1.44326 (Simulation time: 1 hr 40 min 21 sec) 
Heartbeat CPU 0 instructions: 900000000 cycles: 510080822 heartbeat IPC: 1.40985 cumulative IPC: 1.44261 (Simulation time: 1 hr 41 min 23 sec) 
Heartbeat CPU 0 instructions: 910000000 cycles: 517174134 heartbeat IPC: 1.40978 cumulative IPC: 1.44198 (Simulation time: 1 hr 42 min 25 sec) 
Heartbeat CPU 3 instructions: 280000000 cycles: 520206162 heartbeat IPC: 0.213099 cumulative IPC: 0.215273 (Simulation time: 1 hr 42 min 50 sec) 
Heartbeat CPU 1 instructions: 390000000 cycles: 522833486 heartbeat IPC: 0.431402 cumulative IPC: 0.431864 (Simulation time: 1 hr 43 min 14 sec) 
Heartbeat CPU 0 instructions: 920000000 cycles: 524270514 heartbeat IPC: 1.40917 cumulative IPC: 1.44136 (Simulation time: 1 hr 43 min 26 sec) 
Heartbeat CPU 0 instructions: 930000002 cycles: 531353730 heartbeat IPC: 1.41179 cumulative IPC: 1.44081 (Simulation time: 1 hr 44 min 28 sec) 
Heartbeat CPU 2 instructions: 290000000 cycles: 538178957 heartbeat IPC: 0.226405 cumulative IPC: 0.226255 (Simulation time: 1 hr 45 min 27 sec) 
Heartbeat CPU 0 instructions: 940000000 cycles: 538450888 heartbeat IPC: 1.40901 cumulative IPC: 1.44023 (Simulation time: 1 hr 45 min 30 sec) 
Heartbeat CPU 0 instructions: 950000002 cycles: 545561519 heartbeat IPC: 1.40635 cumulative IPC: 1.43962 (Simulation time: 1 hr 46 min 31 sec) 
Heartbeat CPU 1 instructions: 400000000 cycles: 547792578 heartbeat IPC: 0.400656 cumulative IPC: 0.429913 (Simulation time: 1 hr 46 min 50 sec) 
Heartbeat CPU 0 instructions: 960000000 cycles: 552653869 heartbeat IPC: 1.40997 cumulative IPC: 1.4391 (Simulation time: 1 hr 47 min 33 sec) 
Heartbeat CPU 0 instructions: 970000001 cycles: 559734419 heartbeat IPC: 1.41232 cumulative IPC: 1.43864 (Simulation time: 1 hr 48 min 37 sec) 
Heartbeat CPU 3 instructions: 290000001 cycles: 566431243 heartbeat IPC: 0.216333 cumulative IPC: 0.215391 (Simulation time: 1 hr 49 min 35 sec) 
Heartbeat CPU 0 instructions: 980000000 cycles: 566827471 heartbeat IPC: 1.40983 cumulative IPC: 1.43815 (Simulation time: 1 hr 49 min 38 sec) 
Heartbeat CPU 1 instructions: 410000000 cycles: 569316693 heartbeat IPC: 0.464595 cumulative IPC: 0.431687 (Simulation time: 1 hr 49 min 59 sec) 
Heartbeat CPU 0 instructions: 990000002 cycles: 573909827 heartbeat IPC: 1.41196 cumulative IPC: 1.43772 (Simulation time: 1 hr 50 min 40 sec) 
Heartbeat CPU 0 instructions: 1000000000 cycles: 581001964 heartbeat IPC: 1.41001 cumulative IPC: 1.43726 (Simulation time: 1 hr 51 min 42 sec) 
Heartbeat CPU 2 instructions: 300000000 cycles: 582099212 heartbeat IPC: 0.227685 cumulative IPC: 0.2264 (Simulation time: 1 hr 51 min 52 sec) 
Heartbeat CPU 0 instructions: 1010000000 cycles: 588093966 heartbeat IPC: 1.41004 cumulative IPC: 1.43682 (Simulation time: 1 hr 52 min 45 sec) 
Heartbeat CPU 1 instructions: 420000000 cycles: 591419683 heartbeat IPC: 0.452427 cumulative IPC: 0.432722 (Simulation time: 1 hr 53 min 14 sec) 
Heartbeat CPU 0 instructions: 1020000000 cycles: 595193233 heartbeat IPC: 1.4086 cumulative IPC: 1.43637 (Simulation time: 1 hr 53 min 46 sec) 
Heartbeat CPU 0 instructions: 1030000001 cycles: 602268955 heartbeat IPC: 1.41328 cumulative IPC: 1.43601 (Simulation time: 1 hr 54 min 48 sec) 
Heartbeat CPU 0 instructions: 1040000000 cycles: 609364244 heartbeat IPC: 1.40939 cumulative IPC: 1.4356 (Simulation time: 1 hr 55 min 57 sec) 
Heartbeat CPU 3 instructions: 300000000 cycles: 611802577 heartbeat IPC: 0.220403 cumulative IPC: 0.215882 (Simulation time: 1 hr 56 min 41 sec) 
Heartbeat CPU 1 instructions: 430000002 cycles: 615433351 heartbeat IPC: 0.41643 cumulative IPC: 0.431884 (Simulation time: 1 hr 57 min 48 sec) 
Heartbeat CPU 0 instructions: 1050000000 cycles: 616455343 heartbeat IPC: 1.41022 cumulative IPC: 1.43522 (Simulation time: 1 hr 58 min 3 sec) 
Heartbeat CPU 0 instructions: 1060000000 cycles: 623549755 heartbeat IPC: 1.40956 cumulative IPC: 1.43484 (Simulation time: 1 hr 59 min 6 sec) 
Heartbeat CPU 2 instructions: 310000000 cycles: 625682049 heartbeat IPC: 0.229448 cumulative IPC: 0.226678 (Simulation time: 1 hr 59 min 25 sec) 
Heartbeat CPU 0 instructions: 1070000003 cycles: 630645727 heartbeat IPC: 1.40925 cumulative IPC: 1.43446 (Simulation time: 2 hr 0 min 7 sec) 
Heartbeat CPU 0 instructions: 1080000000 cycles: 637740541 heartbeat IPC: 1.40948 cumulative IPC: 1.4341 (Simulation time: 2 hr 1 min 9 sec) 
Heartbeat CPU 1 instructions: 440000000 cycles: 638346255 heartbeat IPC: 0.436435 cumulative IPC: 0.432097 (Simulation time: 2 hr 1 min 15 sec) 
Heartbeat CPU 0 instructions: 1090000003 cycles: 644827723 heartbeat IPC: 1.411 cumulative IPC: 1.43377 (Simulation time: 2 hr 2 min 13 sec) 
Heartbeat CPU 0 instructions: 1100000000 cycles: 651918727 heartbeat IPC: 1.41024 cumulative IPC: 1.43344 (Simulation time: 2 hr 3 min 22 sec) 
Heartbeat CPU 3 instructions: 310000000 cycles: 658094644 heartbeat IPC: 0.21602 cumulative IPC: 0.215894 (Simulation time: 2 hr 4 min 16 sec) 
Heartbeat CPU 0 instructions: 1110000002 cycles: 658990131 heartbeat IPC: 1.41415 cumulative IPC: 1.43317 (Simulation time: 2 hr 4 min 24 sec) 
Heartbeat CPU 1 instructions: 450000001 cycles: 661555137 heartbeat IPC: 0.43087 cumulative IPC: 0.432042 (Simulation time: 2 hr 4 min 45 sec) 
Heartbeat CPU 0 instructions: 1120000000 cycles: 666088570 heartbeat IPC: 1.40876 cumulative IPC: 1.43283 (Simulation time: 2 hr 5 min 25 sec) 
Heartbeat CPU 2 instructions: 320000000 cycles: 669710050 heartbeat IPC: 0.227128 cumulative IPC: 0.226716 (Simulation time: 2 hr 5 min 57 sec) 
Heartbeat CPU 0 instructions: 1130000001 cycles: 673165801 heartbeat IPC: 1.41298 cumulative IPC: 1.43257 (Simulation time: 2 hr 6 min 27 sec) 
Heartbeat CPU 0 instructions: 1140000000 cycles: 680248866 heartbeat IPC: 1.41182 cumulative IPC: 1.43229 (Simulation time: 2 hr 7 min 29 sec) 
Heartbeat CPU 1 instructions: 460000000 cycles: 682971577 heartbeat IPC: 0.466931 cumulative IPC: 0.43344 (Simulation time: 2 hr 7 min 53 sec) 
Heartbeat CPU 0 instructions: 1150000002 cycles: 687328607 heartbeat IPC: 1.41248 cumulative IPC: 1.43203 (Simulation time: 2 hr 8 min 31 sec) 
Heartbeat CPU 0 instructions: 1160000000 cycles: 694414112 heartbeat IPC: 1.41133 cumulative IPC: 1.43176 (Simulation time: 2 hr 9 min 33 sec) 
Heartbeat CPU 0 instructions: 1170000002 cycles: 701490885 heartbeat IPC: 1.41307 cumulative IPC: 1.43152 (Simulation time: 2 hr 10 min 34 sec) 
Heartbeat CPU 3 instructions: 320000000 cycles: 703805193 heartbeat IPC: 0.218768 cumulative IPC: 0.216131 (Simulation time: 2 hr 10 min 53 sec) 
Heartbeat CPU 1 instructions: 470000003 cycles: 706620199 heartbeat IPC: 0.422858 cumulative IPC: 0.432991 (Simulation time: 2 hr 11 min 17 sec) 
Heartbeat CPU 0 instructions: 1180000000 cycles: 708587951 heartbeat IPC: 1.40903 cumulative IPC: 1.43124 (Simulation time: 2 hr 11 min 35 sec) 
Heartbeat CPU 2 instructions: 330000003 cycles: 713684297 heartbeat IPC: 0.227406 cumulative IPC: 0.22677 (Simulation time: 2 hr 12 min 17 sec) 
Heartbeat CPU 0 instructions: 1190000000 cycles: 715698828 heartbeat IPC: 1.4063 cumulative IPC: 1.43092 (Simulation time: 2 hr 12 min 35 sec) 
Heartbeat CPU 0 instructions: 1200000000 cycles: 722808859 heartbeat IPC: 1.40646 cumulative IPC: 1.43062 (Simulation time: 2 hr 13 min 36 sec) 
Heartbeat CPU 0 instructions: 1210000000 cycles: 729886781 heartbeat IPC: 1.41284 cumulative IPC: 1.4304 (Simulation time: 2 hr 14 min 39 sec) 
Heartbeat CPU 1 instructions: 480000000 cycles: 731722981 heartbeat IPC: 0.398362 cumulative IPC: 0.431501 (Simulation time: 2 hr 15 min 13 sec) 
Heartbeat CPU 0 instructions: 1220000000 cycles: 736962792 heartbeat IPC: 1.41323 cumulative IPC: 1.4302 (Simulation time: 2 hr 16 min 47 sec) 
Heartbeat CPU 0 instructions: 1230000002 cycles: 744051186 heartbeat IPC: 1.41076 cumulative IPC: 1.42997 (Simulation time: 2 hr 18 min 58 sec) 
Heartbeat CPU 3 instructions: 330000000 cycles: 749949423 heartbeat IPC: 0.216712 cumulative IPC: 0.216175 (Simulation time: 2 hr 20 min 43 sec) 
Heartbeat CPU 0 instructions: 1240000000 cycles: 751161461 heartbeat IPC: 1.40642 cumulative IPC: 1.42969 (Simulation time: 2 hr 21 min 5 sec) 
Heartbeat CPU 1 instructions: 490000001 cycles: 755981983 heartbeat IPC: 0.412218 cumulative IPC: 0.43073 (Simulation time: 2 hr 22 min 33 sec) 
Heartbeat CPU 2 instructions: 340000000 cycles: 757827902 heartbeat IPC: 0.226533 cumulative IPC: 0.226753 (Simulation time: 2 hr 23 min 7 sec) 
Heartbeat CPU 0 instructions: 1250000000 cycles: 758242068 heartbeat IPC: 1.41231 cumulative IPC: 1.42949 (Simulation time: 2 hr 23 min 14 sec) 
Heartbeat CPU 0 instructions: 1260000000 cycles: 765332343 heartbeat IPC: 1.41038 cumulative IPC: 1.42927 (Simulation time: 2 hr 25 min 21 sec) 
Heartbeat CPU 0 instructions: 1270000000 cycles: 772408807 heartbeat IPC: 1.41314 cumulative IPC: 1.42908 (Simulation time: 2 hr 27 min 30 sec) 
Heartbeat CPU 0 instructions: 1280000000 cycles: 779511670 heartbeat IPC: 1.40788 cumulative IPC: 1.42885 (Simulation time: 2 hr 29 min 8 sec) 
Heartbeat CPU 1 instructions: 500000000 cycles: 782163715 heartbeat IPC: 0.381946 cumulative IPC: 0.428715 (Simulation time: 2 hr 29 min 33 sec) 
Heartbeat CPU 0 instructions: 1290000000 cycles: 786594100 heartbeat IPC: 1.41194 cumulative IPC: 1.42866 (Simulation time: 2 hr 30 min 17 sec) 
Heartbeat CPU 0 instructions: 1300000000 cycles: 793686303 heartbeat IPC: 1.41 cumulative IPC: 1.42845 (Simulation time: 2 hr 31 min 26 sec) 
Heartbeat CPU 3 instructions: 340000000 cycles: 794589968 heartbeat IPC: 0.224012 cumulative IPC: 0.216717 (Simulation time: 2 hr 31 min 38 sec) 
Heartbeat CPU 0 instructions: 1310000000 cycles: 800781550 heartbeat IPC: 1.40939 cumulative IPC: 1.42825 (Simulation time: 2 hr 32 min 40 sec) 
Heartbeat CPU 2 instructions: 350000001 cycles: 802264098 heartbeat IPC: 0.225042 cumulative IPC: 0.226636 (Simulation time: 2 hr 32 min 55 sec) 
Heartbeat CPU 1 instructions: 510000001 cycles: 807083056 heartbeat IPC: 0.401295 cumulative IPC: 0.427677 (Simulation time: 2 hr 33 min 43 sec) 
Heartbeat CPU 0 instructions: 1320000000 cycles: 807873435 heartbeat IPC: 1.41006 cumulative IPC: 1.42805 (Simulation time: 2 hr 33 min 50 sec) 
Heartbeat CPU 0 instructions: 1330000002 cycles: 814986638 heartbeat IPC: 1.40584 cumulative IPC: 1.42781 (Simulation time: 2 hr 35 min 0 sec) 
Heartbeat CPU 0 instructions: 1340000000 cycles: 822074884 heartbeat IPC: 1.41079 cumulative IPC: 1.42763 (Simulation time: 2 hr 36 min 11 sec) 
Heartbeat CPU 0 instructions: 1350000002 cycles: 829157949 heartbeat IPC: 1.41182 cumulative IPC: 1.42747 (Simulation time: 2 hr 37 min 23 sec) 
Heartbeat CPU 1 instructions: 520000000 cycles: 831717820 heartbeat IPC: 0.40593 cumulative IPC: 0.426893 (Simulation time: 2 hr 37 min 48 sec) 
Heartbeat CPU 0 instructions: 1360000000 cycles: 836251846 heartbeat IPC: 1.40966 cumulative IPC: 1.42728 (Simulation time: 2 hr 38 min 36 sec) 
Heartbeat CPU 3 instructions: 350000000 cycles: 841054038 heartbeat IPC: 0.21522 cumulative IPC: 0.216616 (Simulation time: 2 hr 39 min 18 sec) 
Heartbeat CPU 0 instructions: 1370000000 cycles: 843345781 heartbeat IPC: 1.40965 cumulative IPC: 1.4271 (Simulation time: 2 hr 39 min 40 sec) 
Heartbeat CPU 2 instructions: 360000000 cycles: 846535687 heartbeat IPC: 0.225878 cumulative IPC: 0.226588 (Simulation time: 2 hr 40 min 16 sec) 
Finished CPU 0 instructions: 1000000001 cycles: 700787459 cumulative IPC: 1.42697 (Simulation time: 2 hr 41 min 11 sec) 
Heartbeat CPU 0 instructions: 1380000000 cycles: 850433177 heartbeat IPC: 1.41096 cumulative IPC: 1.42694 (Simulation time: 2 hr 41 min 30 sec) 
Heartbeat CPU 1 instructions: 530000000 cycles: 854175322 heartbeat IPC: 0.445285 cumulative IPC: 0.427478 (Simulation time: 2 hr 42 min 37 sec) 
Heartbeat CPU 0 instructions: 1390000000 cycles: 857520200 heartbeat IPC: 1.41103 cumulative IPC: 1.42678 (Simulation time: 2 hr 43 min 40 sec) 
Heartbeat CPU 0 instructions: 1400000000 cycles: 864616781 heartbeat IPC: 1.40913 cumulative IPC: 1.42661 (Simulation time: 2 hr 45 min 33 sec) 
Heartbeat CPU 0 instructions: 1410000001 cycles: 871577182 heartbeat IPC: 1.4367 cumulative IPC: 1.42671 (Simulation time: 2 hr 46 min 48 sec) 
Heartbeat CPU 1 instructions: 540000000 cycles: 875819083 heartbeat IPC: 0.462027 cumulative IPC: 0.428506 (Simulation time: 2 hr 47 min 27 sec) 
Heartbeat CPU 0 instructions: 1420000000 cycles: 878447559 heartbeat IPC: 1.45552 cumulative IPC: 1.42698 (Simulation time: 2 hr 47 min 53 sec) 
Heartbeat CPU 0 instructions: 1430000001 cycles: 885313631 heartbeat IPC: 1.45644 cumulative IPC: 1.42725 (Simulation time: 2 hr 49 min 4 sec) 
Heartbeat CPU 3 instructions: 360000000 cycles: 886614638 heartbeat IPC: 0.219488 cumulative IPC: 0.216794 (Simulation time: 2 hr 49 min 19 sec) 
Heartbeat CPU 2 instructions: 370000001 cycles: 890139402 heartbeat IPC: 0.229338 cumulative IPC: 0.22675 (Simulation time: 2 hr 50 min 1 sec) 
Heartbeat CPU 0 instructions: 1440000000 cycles: 892177090 heartbeat IPC: 1.45699 cumulative IPC: 1.42753 (Simulation time: 2 hr 50 min 18 sec) 
Heartbeat CPU 0 instructions: 1450000000 cycles: 899031445 heartbeat IPC: 1.45893 cumulative IPC: 1.42781 (Simulation time: 2 hr 51 min 24 sec) 
Heartbeat CPU 1 instructions: 550000001 cycles: 903262336 heartbeat IPC: 0.364388 cumulative IPC: 0.426175 (Simulation time: 2 hr 52 min 6 sec) 
Heartbeat CPU 0 instructions: 1460000000 cycles: 905904845 heartbeat IPC: 1.45488 cumulative IPC: 1.42806 (Simulation time: 2 hr 52 min 33 sec) 
Heartbeat CPU 0 instructions: 1470000003 cycles: 912771683 heartbeat IPC: 1.45627 cumulative IPC: 1.42831 (Simulation time: 2 hr 53 min 39 sec) 
Heartbeat CPU 0 instructions: 1480000000 cycles: 919635994 heartbeat IPC: 1.45681 cumulative IPC: 1.42857 (Simulation time: 2 hr 54 min 45 sec) 
Heartbeat CPU 0 instructions: 1490000003 cycles: 926499816 heartbeat IPC: 1.45691 cumulative IPC: 1.42882 (Simulation time: 2 hr 56 min 43 sec) 
Heartbeat CPU 1 instructions: 560000000 cycles: 928818279 heartbeat IPC: 0.391298 cumulative IPC: 0.425032 (Simulation time: 2 hr 57 min 25 sec) 
Heartbeat CPU 3 instructions: 370000000 cycles: 932238709 heartbeat IPC: 0.219183 cumulative IPC: 0.216933 (Simulation time: 2 hr 58 min 29 sec) 
Heartbeat CPU 0 instructions: 1500000000 cycles: 933365119 heartbeat IPC: 1.4566 cumulative IPC: 1.42906 (Simulation time: 2 hr 58 min 50 sec) 
Heartbeat CPU 2 instructions: 380000000 cycles: 933999415 heartbeat IPC: 0.227998 cumulative IPC: 0.22682 (Simulation time: 2 hr 59 min 1 sec) 
Heartbeat CPU 0 instructions: 1510000003 cycles: 940228764 heartbeat IPC: 1.45695 cumulative IPC: 1.4293 (Simulation time: 3 hr 0 min 56 sec) 
Heartbeat CPU 0 instructions: 1520000000 cycles: 947087229 heartbeat IPC: 1.45805 cumulative IPC: 1.42955 (Simulation time: 3 hr 2 min 10 sec) 
Heartbeat CPU 1 instructions: 570000000 cycles: 951198990 heartbeat IPC: 0.446813 cumulative IPC: 0.42564 (Simulation time: 3 hr 2 min 46 sec) 
Heartbeat CPU 0 instructions: 1530000002 cycles: 953950885 heartbeat IPC: 1.45695 cumulative IPC: 1.42978 (Simulation time: 3 hr 3 min 10 sec) 
Heartbeat CPU 0 instructions: 1540000000 cycles: 960814928 heartbeat IPC: 1.45687 cumulative IPC: 1.43001 (Simulation time: 3 hr 4 min 9 sec) 
Heartbeat CPU 0 instructions: 1550000002 cycles: 967680402 heartbeat IPC: 1.45656 cumulative IPC: 1.43023 (Simulation time: 3 hr 5 min 10 sec) 
Heartbeat CPU 0 instructions: 1560000000 cycles: 974540861 heartbeat IPC: 1.45763 cumulative IPC: 1.43046 (Simulation time: 3 hr 6 min 30 sec) 
Heartbeat CPU 1 instructions: 580000000 cycles: 976022615 heartbeat IPC: 0.402842 cumulative IPC: 0.424956 (Simulation time: 3 hr 6 min 59 sec) 
Heartbeat CPU 2 instructions: 390000002 cycles: 977671398 heartbeat IPC: 0.22898 cumulative IPC: 0.226933 (Simulation time: 3 hr 7 min 29 sec) 
Heartbeat CPU 3 instructions: 380000000 cycles: 977929470 heartbeat IPC: 0.218863 cumulative IPC: 0.217039 (Simulation time: 3 hr 7 min 33 sec) 
Heartbeat CPU 0 instructions: 1570000003 cycles: 981397838 heartbeat IPC: 1.45837 cumulative IPC: 1.43069 (Simulation time: 3 hr 8 min 34 sec) 
Heartbeat CPU 0 instructions: 1580000000 cycles: 988257770 heartbeat IPC: 1.45774 cumulative IPC: 1.43091 (Simulation time: 3 hr 10 min 43 sec) 
Heartbeat CPU 0 instructions: 1590000003 cycles: 995123109 heartbeat IPC: 1.45659 cumulative IPC: 1.43112 (Simulation time: 3 hr 12 min 6 sec) 
Heartbeat CPU 1 instructions: 590000000 cycles: 999972818 heartbeat IPC: 0.417533 cumulative IPC: 0.424747 (Simulation time: 3 hr 12 min 47 sec) 
Heartbeat CPU 0 instructions: 1600000000 cycles: 1001984637 heartbeat IPC: 1.4574 cumulative IPC: 1.43133 (Simulation time: 3 hr 13 min 5 sec) 
Heartbeat CPU 0 instructions: 1610000000 cycles: 1008851976 heartbeat IPC: 1.45617 cumulative IPC: 1.43153 (Simulation time: 3 hr 14 min 1 sec) 
Heartbeat CPU 0 instructions: 1620000000 cycles: 1015708751 heartbeat IPC: 1.45841 cumulative IPC: 1.43174 (Simulation time: 3 hr 14 min 59 sec) 
Heartbeat CPU 2 instructions: 400000000 cycles: 1021955440 heartbeat IPC: 0.225815 cumulative IPC: 0.226877 (Simulation time: 3 hr 15 min 51 sec) 
Heartbeat CPU 0 instructions: 1630000001 cycles: 1022571467 heartbeat IPC: 1.45715 cumulative IPC: 1.43194 (Simulation time: 3 hr 15 min 56 sec) 
Heartbeat CPU 3 instructions: 390000000 cycles: 1023752551 heartbeat IPC: 0.218231 cumulative IPC: 0.217101 (Simulation time: 3 hr 16 min 6 sec) 
Heartbeat CPU 1 instructions: 600000000 cycles: 1024713449 heartbeat IPC: 0.404193 cumulative IPC: 0.424167 (Simulation time: 3 hr 16 min 15 sec) 
Heartbeat CPU 0 instructions: 1640000000 cycles: 1029438964 heartbeat IPC: 1.45613 cumulative IPC: 1.43213 (Simulation time: 3 hr 16 min 54 sec) 
Heartbeat CPU 0 instructions: 1650000001 cycles: 1036301895 heartbeat IPC: 1.4571 cumulative IPC: 1.43232 (Simulation time: 3 hr 17 min 51 sec) 
Heartbeat CPU 0 instructions: 1660000000 cycles: 1043167605 heartbeat IPC: 1.45651 cumulative IPC: 1.43251 (Simulation time: 3 hr 18 min 49 sec) 
Heartbeat CPU 1 instructions: 610000003 cycles: 1049038413 heartbeat IPC: 0.4111 cumulative IPC: 0.423814 (Simulation time: 3 hr 19 min 39 sec) 
Heartbeat CPU 0 instructions: 1670000003 cycles: 1050032645 heartbeat IPC: 1.45666 cumulative IPC: 1.43269 (Simulation time: 3 hr 19 min 47 sec) 
Heartbeat CPU 0 instructions: 1680000000 cycles: 1056892175 heartbeat IPC: 1.45783 cumulative IPC: 1.43288 (Simulation time: 3 hr 20 min 46 sec) 
Heartbeat CPU 0 instructions: 1690000001 cycles: 1063761994 heartbeat IPC: 1.45564 cumulative IPC: 1.43305 (Simulation time: 3 hr 21 min 44 sec) 
Heartbeat CPU 2 instructions: 410000000 cycles: 1065895457 heartbeat IPC: 0.227583 cumulative IPC: 0.226911 (Simulation time: 3 hr 22 min 3 sec) 
Heartbeat CPU 3 instructions: 400000000 cycles: 1069343222 heartbeat IPC: 0.219343 cumulative IPC: 0.217212 (Simulation time: 3 hr 22 min 32 sec) 
Heartbeat CPU 0 instructions: 1700000000 cycles: 1070628477 heartbeat IPC: 1.45635 cumulative IPC: 1.43323 (Simulation time: 3 hr 22 min 43 sec) 
Heartbeat CPU 1 instructions: 620000000 cycles: 1072564295 heartbeat IPC: 0.425064 cumulative IPC: 0.423845 (Simulation time: 3 hr 22 min 59 sec) 
Heartbeat CPU 0 instructions: 1710000000 cycles: 1077502508 heartbeat IPC: 1.45475 cumulative IPC: 1.43339 (Simulation time: 3 hr 23 min 39 sec) 
Heartbeat CPU 0 instructions: 1720000000 cycles: 1084370683 heartbeat IPC: 1.45599 cumulative IPC: 1.43355 (Simulation time: 3 hr 24 min 37 sec) 
Heartbeat CPU 0 instructions: 1730000000 cycles: 1091237323 heartbeat IPC: 1.45632 cumulative IPC: 1.43372 (Simulation time: 3 hr 25 min 35 sec) 
Heartbeat CPU 1 instructions: 630000000 cycles: 1097392871 heartbeat IPC: 0.402762 cumulative IPC: 0.423294 (Simulation time: 3 hr 26 min 27 sec) 
Heartbeat CPU 0 instructions: 1740000000 cycles: 1098100052 heartbeat IPC: 1.45715 cumulative IPC: 1.43389 (Simulation time: 3 hr 26 min 33 sec) 
Heartbeat CPU 0 instructions: 1750000001 cycles: 1104970239 heartbeat IPC: 1.45556 cumulative IPC: 1.43404 (Simulation time: 3 hr 27 min 31 sec) 
Heartbeat CPU 2 instructions: 420000000 cycles: 1109597901 heartbeat IPC: 0.22882 cumulative IPC: 0.226997 (Simulation time: 3 hr 28 min 10 sec) 
Heartbeat CPU 0 instructions: 1760000000 cycles: 1111836380 heartbeat IPC: 1.45642 cumulative IPC: 1.4342 (Simulation time: 3 hr 28 min 29 sec) 
Heartbeat CPU 3 instructions: 410000000 cycles: 1115197960 heartbeat IPC: 0.21808 cumulative IPC: 0.217254 (Simulation time: 3 hr 28 min 57 sec) 
Heartbeat CPU 0 instructions: 1770000000 cycles: 1118689310 heartbeat IPC: 1.45923 cumulative IPC: 1.43438 (Simulation time: 3 hr 29 min 26 sec) 
Heartbeat CPU 1 instructions: 640000000 cycles: 1123991708 heartbeat IPC: 0.375956 cumulative IPC: 0.422003 (Simulation time: 3 hr 30 min 10 sec) 
Heartbeat CPU 0 instructions: 1780000000 cycles: 1125573824 heartbeat IPC: 1.45254 cumulative IPC: 1.43451 (Simulation time: 3 hr 30 min 24 sec) 
Heartbeat CPU 0 instructions: 1790000003 cycles: 1132431081 heartbeat IPC: 1.45831 cumulative IPC: 1.43467 (Simulation time: 3 hr 31 min 23 sec) 
Heartbeat CPU 0 instructions: 1800000000 cycles: 1139296656 heartbeat IPC: 1.45654 cumulative IPC: 1.43482 (Simulation time: 3 hr 32 min 21 sec) 
Heartbeat CPU 0 instructions: 1810000001 cycles: 1146157875 heartbeat IPC: 1.45747 cumulative IPC: 1.43498 (Simulation time: 3 hr 33 min 19 sec) 
Heartbeat CPU 1 instructions: 650000001 cycles: 1146703964 heartbeat IPC: 0.440291 cumulative IPC: 0.422419 (Simulation time: 3 hr 33 min 23 sec) 
Heartbeat CPU 0 instructions: 1820000000 cycles: 1153024615 heartbeat IPC: 1.4563 cumulative IPC: 1.43513 (Simulation time: 3 hr 34 min 16 sec) 
Heartbeat CPU 2 instructions: 430000000 cycles: 1153669528 heartbeat IPC: 0.226903 cumulative IPC: 0.226993 (Simulation time: 3 hr 34 min 21 sec) 
Heartbeat CPU 0 instructions: 1830000000 cycles: 1159886645 heartbeat IPC: 1.45729 cumulative IPC: 1.43528 (Simulation time: 3 hr 35 min 13 sec) 
Heartbeat CPU 3 instructions: 420000000 cycles: 1161271459 heartbeat IPC: 0.217045 cumulative IPC: 0.217244 (Simulation time: 3 hr 35 min 25 sec) 
Heartbeat CPU 0 instructions: 1840000000 cycles: 1166750207 heartbeat IPC: 1.45697 cumulative IPC: 1.43542 (Simulation time: 3 hr 36 min 12 sec) 
Heartbeat CPU 1 instructions: 660000000 cycles: 1170425313 heartbeat IPC: 0.421561 cumulative IPC: 0.422399 (Simulation time: 3 hr 36 min 43 sec) 
Heartbeat CPU 0 instructions: 1850000003 cycles: 1173614376 heartbeat IPC: 1.45684 cumulative IPC: 1.43557 (Simulation time: 3 hr 37 min 9 sec) 
Heartbeat CPU 0 instructions: 1860000000 cycles: 1180469955 heartbeat IPC: 1.45867 cumulative IPC: 1.43572 (Simulation time: 3 hr 38 min 5 sec) 
Heartbeat CPU 0 instructions: 1870000003 cycles: 1187344533 heartbeat IPC: 1.45464 cumulative IPC: 1.43584 (Simulation time: 3 hr 39 min 3 sec) 
Heartbeat CPU 0 instructions: 1880000000 cycles: 1194219175 heartbeat IPC: 1.45462 cumulative IPC: 1.43597 (Simulation time: 3 hr 40 min 0 sec) 
Heartbeat CPU 1 instructions: 670000000 cycles: 1196793490 heartbeat IPC: 0.379245 cumulative IPC: 0.421313 (Simulation time: 3 hr 40 min 22 sec) 
Heartbeat CPU 2 instructions: 440000000 cycles: 1197237079 heartbeat IPC: 0.229529 cumulative IPC: 0.227099 (Simulation time: 3 hr 40 min 26 sec) 
Heartbeat CPU 0 instructions: 1890000001 cycles: 1201077384 heartbeat IPC: 1.45811 cumulative IPC: 1.43611 (Simulation time: 3 hr 40 min 59 sec) 
Heartbeat CPU 3 instructions: 430000000 cycles: 1207143874 heartbeat IPC: 0.217996 cumulative IPC: 0.217277 (Simulation time: 3 hr 41 min 50 sec) 
Heartbeat CPU 0 instructions: 1900000000 cycles: 1207945843 heartbeat IPC: 1.45593 cumulative IPC: 1.43624 (Simulation time: 3 hr 41 min 57 sec) 
Heartbeat CPU 0 instructions: 1910000001 cycles: 1214804148 heartbeat IPC: 1.45809 cumulative IPC: 1.43638 (Simulation time: 3 hr 42 min 56 sec) 
Heartbeat CPU 1 instructions: 680000000 cycles: 1218293186 heartbeat IPC: 0.465123 cumulative IPC: 0.422194 (Simulation time: 3 hr 43 min 28 sec) 
Heartbeat CPU 0 instructions: 1920000000 cycles: 1221673065 heartbeat IPC: 1.45583 cumulative IPC: 1.43651 (Simulation time: 3 hr 43 min 57 sec) 
Heartbeat CPU 0 instructions: 1930000002 cycles: 1228538780 heartbeat IPC: 1.45651 cumulative IPC: 1.43663 (Simulation time: 3 hr 44 min 59 sec) 
Heartbeat CPU 0 instructions: 1940000000 cycles: 1235396887 heartbeat IPC: 1.45813 cumulative IPC: 1.43677 (Simulation time: 3 hr 46 min 14 sec) 
Heartbeat CPU 2 instructions: 450000002 cycles: 1241269066 heartbeat IPC: 0.227108 cumulative IPC: 0.227099 (Simulation time: 3 hr 47 min 12 sec) 
Heartbeat CPU 0 instructions: 1950000000 cycles: 1242261599 heartbeat IPC: 1.45673 cumulative IPC: 1.43689 (Simulation time: 3 hr 47 min 21 sec) 
Heartbeat CPU 1 instructions: 690000000 cycles: 1243171022 heartbeat IPC: 0.401964 cumulative IPC: 0.421734 (Simulation time: 3 hr 47 min 31 sec) 
Heartbeat CPU 0 instructions: 1960000000 cycles: 1249131120 heartbeat IPC: 1.45571 cumulative IPC: 1.43701 (Simulation time: 3 hr 48 min 32 sec) 
Heartbeat CPU 3 instructions: 440000000 cycles: 1253192938 heartbeat IPC: 0.21716 cumulative IPC: 0.217272 (Simulation time: 3 hr 49 min 8 sec) 
Heartbeat CPU 0 instructions: 1970000001 cycles: 1255985801 heartbeat IPC: 1.45886 cumulative IPC: 1.43715 (Simulation time: 3 hr 49 min 37 sec) 
Heartbeat CPU 0 instructions: 1980000000 cycles: 1262851450 heartbeat IPC: 1.45653 cumulative IPC: 1.43727 (Simulation time: 3 hr 50 min 49 sec) 
Heartbeat CPU 1 instructions: 700000000 cycles: 1266943885 heartbeat IPC: 0.420648 cumulative IPC: 0.421711 (Simulation time: 3 hr 51 min 28 sec) 
Heartbeat CPU 0 instructions: 1990000001 cycles: 1269722572 heartbeat IPC: 1.45537 cumulative IPC: 1.43738 (Simulation time: 3 hr 51 min 56 sec) 
*** Reached end of trace for Core: 0 Repeating trace: /scratch/user/djimenez/champsim-traces/speccpu2017/xz/607.cactuBSSN_s/607.cactuBSSN_s-4248B.champsimtrace.xz
Heartbeat CPU 0 instructions: 2000000000 cycles: 1276578832 heartbeat IPC: 1.45852 cumulative IPC: 1.4375 (Simulation time: 3 hr 52 min 58 sec) 
Heartbeat CPU 0 instructions: 2010000003 cycles: 1283572479 heartbeat IPC: 1.42987 cumulative IPC: 1.43746 (Simulation time: 3 hr 53 min 58 sec) 
Heartbeat CPU 2 instructions: 460000000 cycles: 1284831086 heartbeat IPC: 0.229558 cumulative IPC: 0.227193 (Simulation time: 3 hr 54 min 10 sec) 
Heartbeat CPU 0 instructions: 2020000000 cycles: 1290560065 heartbeat IPC: 1.43111 cumulative IPC: 1.43742 (Simulation time: 3 hr 55 min 1 sec) 
Heartbeat CPU 1 instructions: 710000000 cycles: 1290780982 heartbeat IPC: 0.419514 cumulative IPC: 0.421665 (Simulation time: 3 hr 55 min 3 sec) 
Heartbeat CPU 0 instructions: 2030000001 cycles: 1297553155 heartbeat IPC: 1.42998 cumulative IPC: 1.43737 (Simulation time: 3 hr 56 min 3 sec) 
Heartbeat CPU 3 instructions: 450000000 cycles: 1299131039 heartbeat IPC: 0.217684 cumulative IPC: 0.217288 (Simulation time: 3 hr 56 min 17 sec) 
Heartbeat CPU 0 instructions: 2040000000 cycles: 1304549357 heartbeat IPC: 1.42935 cumulative IPC: 1.43733 (Simulation time: 3 hr 57 min 4 sec) 
Heartbeat CPU 0 instructions: 2050000000 cycles: 1311539587 heartbeat IPC: 1.43057 cumulative IPC: 1.43728 (Simulation time: 3 hr 58 min 6 sec) 
Heartbeat CPU 1 instructions: 720000000 cycles: 1312796120 heartbeat IPC: 0.454233 cumulative IPC: 0.422281 (Simulation time: 3 hr 58 min 17 sec) 
Heartbeat CPU 0 instructions: 2060000000 cycles: 1318526469 heartbeat IPC: 1.43125 cumulative IPC: 1.43725 (Simulation time: 3 hr 59 min 8 sec) 
Heartbeat CPU 0 instructions: 2070000000 cycles: 1325396104 heartbeat IPC: 1.45568 cumulative IPC: 1.43736 (Simulation time: 4 hr 0 min 7 sec) 
Heartbeat CPU 2 instructions: 470000001 cycles: 1328269780 heartbeat IPC: 0.23021 cumulative IPC: 0.227304 (Simulation time: 4 hr 0 min 33 sec) 
Heartbeat CPU 0 instructions: 2080000000 cycles: 1332259843 heartbeat IPC: 1.45693 cumulative IPC: 1.43747 (Simulation time: 4 hr 1 min 9 sec) 
Heartbeat CPU 1 instructions: 730000000 cycles: 1337395296 heartbeat IPC: 0.406518 cumulative IPC: 0.421955 (Simulation time: 4 hr 1 min 53 sec) 
Heartbeat CPU 0 instructions: 2090000000 cycles: 1339127829 heartbeat IPC: 1.45603 cumulative IPC: 1.43758 (Simulation time: 4 hr 2 min 9 sec) 
Heartbeat CPU 3 instructions: 460000000 cycles: 1344574148 heartbeat IPC: 0.220055 cumulative IPC: 0.217393 (Simulation time: 4 hr 2 min 57 sec) 
Heartbeat CPU 0 instructions: 2100000000 cycles: 1345996733 heartbeat IPC: 1.45584 cumulative IPC: 1.43768 (Simulation time: 4 hr 3 min 10 sec) 
Heartbeat CPU 0 instructions: 2110000000 cycles: 1352864984 heartbeat IPC: 1.45597 cumulative IPC: 1.43779 (Simulation time: 4 hr 4 min 10 sec) 
Heartbeat CPU 0 instructions: 2120000000 cycles: 1359730130 heartbeat IPC: 1.45663 cumulative IPC: 1.43789 (Simulation time: 4 hr 5 min 11 sec) 
Heartbeat CPU 1 instructions: 740000000 cycles: 1360645399 heartbeat IPC: 0.430106 cumulative IPC: 0.422111 (Simulation time: 4 hr 5 min 19 sec) 
Heartbeat CPU 0 instructions: 2130000001 cycles: 1366603161 heartbeat IPC: 1.45496 cumulative IPC: 1.43799 (Simulation time: 4 hr 6 min 11 sec) 
Heartbeat CPU 2 instructions: 480000000 cycles: 1371754093 heartbeat IPC: 0.229968 cumulative IPC: 0.227399 (Simulation time: 4 hr 6 min 58 sec) 
Heartbeat CPU 0 instructions: 2140000000 cycles: 1373471009 heartbeat IPC: 1.45606 cumulative IPC: 1.43809 (Simulation time: 4 hr 7 min 14 sec) 
Heartbeat CPU 0 instructions: 2150000001 cycles: 1380344511 heartbeat IPC: 1.45486 cumulative IPC: 1.43818 (Simulation time: 4 hr 8 min 14 sec) 
Heartbeat CPU 1 instructions: 750000000 cycles: 1384487585 heartbeat IPC: 0.419425 cumulative IPC: 0.422059 (Simulation time: 4 hr 8 min 50 sec) 
Heartbeat CPU 0 instructions: 2160000000 cycles: 1387216091 heartbeat IPC: 1.45527 cumulative IPC: 1.43828 (Simulation time: 4 hr 9 min 15 sec) 
Heartbeat CPU 3 instructions: 470000000 cycles: 1390355144 heartbeat IPC: 0.218431 cumulative IPC: 0.217432 (Simulation time: 4 hr 9 min 43 sec) 
Heartbeat CPU 0 instructions: 2170000001 cycles: 1394081324 heartbeat IPC: 1.45661 cumulative IPC: 1.43838 (Simulation time: 4 hr 10 min 16 sec) 
Heartbeat CPU 0 instructions: 2180000000 cycles: 1400941633 heartbeat IPC: 1.45766 cumulative IPC: 1.43849 (Simulation time: 4 hr 11 min 18 sec) 
Heartbeat CPU 1 instructions: 760000000 cycles: 1407167477 heartbeat IPC: 0.440919 cumulative IPC: 0.422399 (Simulation time: 4 hr 12 min 11 sec) 
Heartbeat CPU 0 instructions: 2190000002 cycles: 1407819612 heartbeat IPC: 1.45392 cumulative IPC: 1.43857 (Simulation time: 4 hr 12 min 17 sec) 
Heartbeat CPU 0 instructions: 2200000000 cycles: 1414765875 heartbeat IPC: 1.43962 cumulative IPC: 1.43858 (Simulation time: 4 hr 13 min 18 sec) 
Heartbeat CPU 2 instructions: 490000002 cycles: 1415496423 heartbeat IPC: 0.228612 cumulative IPC: 0.227441 (Simulation time: 4 hr 13 min 25 sec) 
Heartbeat CPU 0 instructions: 2210000000 cycles: 1421627882 heartbeat IPC: 1.4573 cumulative IPC: 1.43868 (Simulation time: 4 hr 14 min 21 sec) 
Heartbeat CPU 1 instructions: 770000001 cycles: 1428006082 heartbeat IPC: 0.479879 cumulative IPC: 0.423336 (Simulation time: 4 hr 15 min 19 sec) 
Heartbeat CPU 0 instructions: 2220000000 cycles: 1428498252 heartbeat IPC: 1.45553 cumulative IPC: 1.43877 (Simulation time: 4 hr 15 min 23 sec) 
Heartbeat CPU 0 instructions: 2230000001 cycles: 1435368017 heartbeat IPC: 1.45565 cumulative IPC: 1.43886 (Simulation time: 4 hr 16 min 24 sec) 
Heartbeat CPU 3 instructions: 480000000 cycles: 1436145734 heartbeat IPC: 0.218385 cumulative IPC: 0.217466 (Simulation time: 4 hr 16 min 31 sec) 
Heartbeat CPU 0 instructions: 2240000000 cycles: 1442231770 heartbeat IPC: 1.45693 cumulative IPC: 1.43895 (Simulation time: 4 hr 17 min 26 sec) 
Heartbeat CPU 0 instructions: 2250000000 cycles: 1449100304 heartbeat IPC: 1.45591 cumulative IPC: 1.43904 (Simulation time: 4 hr 18 min 25 sec) 
Heartbeat CPU 1 instructions: 780000000 cycles: 1450755241 heartbeat IPC: 0.439577 cumulative IPC: 0.423619 (Simulation time: 4 hr 18 min 40 sec) 
Heartbeat CPU 0 instructions: 2260000000 cycles: 1455965394 heartbeat IPC: 1.45665 cumulative IPC: 1.43913 (Simulation time: 4 hr 19 min 26 sec) 
Heartbeat CPU 2 instructions: 500000000 cycles: 1458570767 heartbeat IPC: 0.232157 cumulative IPC: 0.227596 (Simulation time: 4 hr 19 min 50 sec) 
Heartbeat CPU 0 instructions: 2270000002 cycles: 1462836939 heartbeat IPC: 1.45528 cumulative IPC: 1.43922 (Simulation time: 4 hr 20 min 26 sec) 
Heartbeat CPU 0 instructions: 2280000000 cycles: 1469701233 heartbeat IPC: 1.45681 cumulative IPC: 1.43931 (Simulation time: 4 hr 21 min 26 sec) 
Heartbeat CPU 1 instructions: 790000003 cycles: 1473493672 heartbeat IPC: 0.439784 cumulative IPC: 0.423897 (Simulation time: 4 hr 21 min 59 sec) 
Heartbeat CPU 0 instructions: 2290000000 cycles: 1476575120 heartbeat IPC: 1.45478 cumulative IPC: 1.43939 (Simulation time: 4 hr 22 min 24 sec) 
Heartbeat CPU 3 instructions: 490000000 cycles: 1482949923 heartbeat IPC: 0.213656 cumulative IPC: 0.217332 (Simulation time: 4 hr 23 min 18 sec) 
Heartbeat CPU 0 instructions: 2300000000 cycles: 1483442976 heartbeat IPC: 1.45606 cumulative IPC: 1.43948 (Simulation time: 4 hr 23 min 23 sec) 
Heartbeat CPU 0 instructions: 2310000000 cycles: 1490310667 heartbeat IPC: 1.45609 cumulative IPC: 1.43956 (Simulation time: 4 hr 24 min 24 sec) 
Heartbeat CPU 1 instructions: 800000000 cycles: 1497091430 heartbeat IPC: 0.423769 cumulative IPC: 0.423894 (Simulation time: 4 hr 25 min 24 sec) 
Heartbeat CPU 0 instructions: 2320000000 cycles: 1497180761 heartbeat IPC: 1.45558 cumulative IPC: 1.43964 (Simulation time: 4 hr 25 min 25 sec) 
Heartbeat CPU 2 instructions: 510000002 cycles: 1502052963 heartbeat IPC: 0.229979 cumulative IPC: 0.227673 (Simulation time: 4 hr 26 min 7 sec) 
Heartbeat CPU 0 instructions: 2330000001 cycles: 1504048351 heartbeat IPC: 1.45612 cumulative IPC: 1.43973 (Simulation time: 4 hr 26 min 25 sec) 
Heartbeat CPU 0 instructions: 2340000000 cycles: 1510916781 heartbeat IPC: 1.45594 cumulative IPC: 1.43981 (Simulation time: 4 hr 27 min 25 sec) 
Heartbeat CPU 0 instructions: 2350000002 cycles: 1517786586 heartbeat IPC: 1.45565 cumulative IPC: 1.43989 (Simulation time: 4 hr 28 min 25 sec) 
Heartbeat CPU 1 instructions: 810000001 cycles: 1521824942 heartbeat IPC: 0.40431 cumulative IPC: 0.423542 (Simulation time: 4 hr 29 min 2 sec) 
Heartbeat CPU 0 instructions: 2360000000 cycles: 1524650969 heartbeat IPC: 1.45679 cumulative IPC: 1.43997 (Simulation time: 4 hr 29 min 27 sec) 
Heartbeat CPU 3 instructions: 500000000 cycles: 1528568069 heartbeat IPC: 0.219211 cumulative IPC: 0.217394 (Simulation time: 4 hr 30 min 1 sec) 
Heartbeat CPU 0 instructions: 2370000001 cycles: 1531516875 heartbeat IPC: 1.45647 cumulative IPC: 1.44005 (Simulation time: 4 hr 30 min 27 sec) 
Heartbeat CPU 0 instructions: 2380000000 cycles: 1538378031 heartbeat IPC: 1.45748 cumulative IPC: 1.44014 (Simulation time: 4 hr 31 min 30 sec) 
Heartbeat CPU 1 instructions: 820000000 cycles: 1543609029 heartbeat IPC: 0.459051 cumulative IPC: 0.424096 (Simulation time: 4 hr 32 min 17 sec) 
Heartbeat CPU 0 instructions: 2390000002 cycles: 1545240191 heartbeat IPC: 1.45727 cumulative IPC: 1.44022 (Simulation time: 4 hr 32 min 31 sec) 
Heartbeat CPU 2 instructions: 520000000 cycles: 1545703425 heartbeat IPC: 0.229093 cumulative IPC: 0.227717 (Simulation time: 4 hr 32 min 36 sec) 
Heartbeat CPU 0 instructions: 2400000000 cycles: 1552100780 heartbeat IPC: 1.4576 cumulative IPC: 1.44031 (Simulation time: 4 hr 33 min 33 sec) 
Heartbeat CPU 0 instructions: 2410000000 cycles: 1558971250 heartbeat IPC: 1.4555 cumulative IPC: 1.44038 (Simulation time: 4 hr 34 min 33 sec) 
Heartbeat CPU 1 instructions: 830000003 cycles: 1565300254 heartbeat IPC: 0.461016 cumulative IPC: 0.424661 (Simulation time: 4 hr 35 min 30 sec) 
Heartbeat CPU 0 instructions: 2420000000 cycles: 1565844731 heartbeat IPC: 1.45487 cumulative IPC: 1.44045 (Simulation time: 4 hr 35 min 35 sec) 
Heartbeat CPU 0 instructions: 2430000000 cycles: 1572707554 heartbeat IPC: 1.45713 cumulative IPC: 1.44053 (Simulation time: 4 hr 36 min 35 sec) 
Heartbeat CPU 3 instructions: 510000000 cycles: 1574776840 heartbeat IPC: 0.216409 cumulative IPC: 0.217362 (Simulation time: 4 hr 36 min 52 sec) 
Heartbeat CPU 0 instructions: 2440000000 cycles: 1579578365 heartbeat IPC: 1.45543 cumulative IPC: 1.44061 (Simulation time: 4 hr 37 min 35 sec) 
Heartbeat CPU 0 instructions: 2450000002 cycles: 1586452389 heartbeat IPC: 1.45475 cumulative IPC: 1.44067 (Simulation time: 4 hr 38 min 35 sec) 
Heartbeat CPU 2 instructions: 530000000 cycles: 1589184943 heartbeat IPC: 0.229983 cumulative IPC: 0.227785 (Simulation time: 4 hr 38 min 58 sec) 
Heartbeat CPU 1 instructions: 840000000 cycles: 1589817665 heartbeat IPC: 0.407873 cumulative IPC: 0.424376 (Simulation time: 4 hr 39 min 3 sec) 
Heartbeat CPU 0 instructions: 2460000000 cycles: 1593325294 heartbeat IPC: 1.45499 cumulative IPC: 1.44074 (Simulation time: 4 hr 39 min 35 sec) 
Heartbeat CPU 0 instructions: 2470000003 cycles: 1600198039 heartbeat IPC: 1.45502 cumulative IPC: 1.44081 (Simulation time: 4 hr 40 min 36 sec) 
Heartbeat CPU 0 instructions: 2480000000 cycles: 1607062218 heartbeat IPC: 1.45684 cumulative IPC: 1.44088 (Simulation time: 4 hr 41 min 36 sec) 
Heartbeat CPU 1 instructions: 850000000 cycles: 1613617995 heartbeat IPC: 0.420162 cumulative IPC: 0.424307 (Simulation time: 4 hr 42 min 33 sec) 
Heartbeat CPU 0 instructions: 2490000000 cycles: 1613933906 heartbeat IPC: 1.45525 cumulative IPC: 1.44095 (Simulation time: 4 hr 42 min 36 sec) 
Heartbeat CPU 0 instructions: 2500000000 cycles: 1620810465 heartbeat IPC: 1.45422 cumulative IPC: 1.44101 (Simulation time: 4 hr 43 min 35 sec) 
Heartbeat CPU 3 instructions: 520000000 cycles: 1620852396 heartbeat IPC: 0.217035 cumulative IPC: 0.217352 (Simulation time: 4 hr 43 min 35 sec) 
Heartbeat CPU 0 instructions: 2510000003 cycles: 1627671044 heartbeat IPC: 1.4576 cumulative IPC: 1.44109 (Simulation time: 4 hr 44 min 36 sec) 
Heartbeat CPU 2 instructions: 540000000 cycles: 1632509541 heartbeat IPC: 0.230816 cumulative IPC: 0.227874 (Simulation time: 4 hr 45 min 17 sec) 
Heartbeat CPU 0 instructions: 2520000000 cycles: 1634549966 heartbeat IPC: 1.45372 cumulative IPC: 1.44115 (Simulation time: 4 hr 45 min 37 sec) 
Heartbeat CPU 1 instructions: 860000000 cycles: 1638183735 heartbeat IPC: 0.407071 cumulative IPC: 0.424023 (Simulation time: 4 hr 46 min 8 sec) 
Heartbeat CPU 0 instructions: 2530000000 cycles: 1641420570 heartbeat IPC: 1.45548 cumulative IPC: 1.44121 (Simulation time: 4 hr 46 min 38 sec) 
Heartbeat CPU 0 instructions: 2540000000 cycles: 1648284448 heartbeat IPC: 1.4569 cumulative IPC: 1.44129 (Simulation time: 4 hr 47 min 43 sec) 
Heartbeat CPU 0 instructions: 2550000003 cycles: 1655144916 heartbeat IPC: 1.45763 cumulative IPC: 1.44136 (Simulation time: 4 hr 48 min 45 sec) 
Heartbeat CPU 1 instructions: 870000003 cycles: 1659194223 heartbeat IPC: 0.475953 cumulative IPC: 0.424745 (Simulation time: 4 hr 49 min 20 sec) 
Heartbeat CPU 0 instructions: 2560000000 cycles: 1662008330 heartbeat IPC: 1.457 cumulative IPC: 1.44143 (Simulation time: 4 hr 49 min 45 sec) 
Heartbeat CPU 3 instructions: 530000001 cycles: 1666375881 heartbeat IPC: 0.219667 cumulative IPC: 0.217421 (Simulation time: 4 hr 50 min 24 sec) 
Heartbeat CPU 0 instructions: 2570000001 cycles: 1668874414 heartbeat IPC: 1.45643 cumulative IPC: 1.4415 (Simulation time: 4 hr 50 min 44 sec) 
Heartbeat CPU 0 instructions: 2580000000 cycles: 1675748855 heartbeat IPC: 1.45466 cumulative IPC: 1.44156 (Simulation time: 4 hr 51 min 43 sec) 
Heartbeat CPU 2 instructions: 550000001 cycles: 1676450734 heartbeat IPC: 0.227577 cumulative IPC: 0.227865 (Simulation time: 4 hr 51 min 49 sec) 
Heartbeat CPU 0 instructions: 2590000001 cycles: 1682619717 heartbeat IPC: 1.45542 cumulative IPC: 1.44162 (Simulation time: 4 hr 52 min 42 sec) 
Heartbeat CPU 1 instructions: 880000000 cycles: 1684548030 heartbeat IPC: 0.394418 cumulative IPC: 0.424245 (Simulation time: 4 hr 52 min 59 sec) 
Heartbeat CPU 0 instructions: 2600000000 cycles: 1689480350 heartbeat IPC: 1.45759 cumulative IPC: 1.44169 (Simulation time: 4 hr 53 min 42 sec) 
Heartbeat CPU 0 instructions: 2610000001 cycles: 1696350446 heartbeat IPC: 1.45558 cumulative IPC: 1.44175 (Simulation time: 4 hr 54 min 42 sec) 
Heartbeat CPU 0 instructions: 2620000000 cycles: 1703220754 heartbeat IPC: 1.45554 cumulative IPC: 1.44181 (Simulation time: 4 hr 55 min 42 sec) 
Heartbeat CPU 1 instructions: 890000002 cycles: 1706959425 heartbeat IPC: 0.446202 cumulative IPC: 0.424561 (Simulation time: 4 hr 56 min 26 sec) 
Heartbeat CPU 0 instructions: 2630000001 cycles: 1710083301 heartbeat IPC: 1.45719 cumulative IPC: 1.44188 (Simulation time: 4 hr 57 min 2 sec) 
Heartbeat CPU 3 instructions: 540000000 cycles: 1713283400 heartbeat IPC: 0.213185 cumulative IPC: 0.217294 (Simulation time: 4 hr 57 min 34 sec) 
Heartbeat CPU 0 instructions: 2640000000 cycles: 1716954448 heartbeat IPC: 1.45536 cumulative IPC: 1.44194 (Simulation time: 4 hr 58 min 16 sec) 
Heartbeat CPU 2 instructions: 560000000 cycles: 1720690503 heartbeat IPC: 0.226041 cumulative IPC: 0.227814 (Simulation time: 4 hr 58 min 53 sec) 
Heartbeat CPU 0 instructions: 2650000001 cycles: 1723813587 heartbeat IPC: 1.45791 cumulative IPC: 1.44201 (Simulation time: 4 hr 59 min 30 sec) 
Heartbeat CPU 1 instructions: 900000000 cycles: 1729546169 heartbeat IPC: 0.442737 cumulative IPC: 0.42482 (Simulation time: 5 hr 0 min 32 sec) 
Heartbeat CPU 0 instructions: 2660000000 cycles: 1730680454 heartbeat IPC: 1.45627 cumulative IPC: 1.44207 (Simulation time: 5 hr 0 min 43 sec) 
Heartbeat CPU 0 instructions: 2670000002 cycles: 1737551796 heartbeat IPC: 1.45532 cumulative IPC: 1.44213 (Simulation time: 5 hr 1 min 54 sec) 
Heartbeat CPU 0 instructions: 2680000000 cycles: 1744419011 heartbeat IPC: 1.45619 cumulative IPC: 1.44219 (Simulation time: 5 hr 2 min 54 sec) 
Heartbeat CPU 0 instructions: 2690000001 cycles: 1751287304 heartbeat IPC: 1.45597 cumulative IPC: 1.44225 (Simulation time: 5 hr 3 min 52 sec) 
Heartbeat CPU 1 instructions: 910000001 cycles: 1754817780 heartbeat IPC: 0.395701 cumulative IPC: 0.424362 (Simulation time: 5 hr 4 min 23 sec) 
Heartbeat CPU 0 instructions: 2700000000 cycles: 1758173338 heartbeat IPC: 1.45221 cumulative IPC: 1.44229 (Simulation time: 5 hr 4 min 51 sec) 
Heartbeat CPU 3 instructions: 550000000 cycles: 1759568006 heartbeat IPC: 0.216055 cumulative IPC: 0.217259 (Simulation time: 5 hr 5 min 3 sec) 
Heartbeat CPU 2 instructions: 570000001 cycles: 1764034084 heartbeat IPC: 0.230715 cumulative IPC: 0.227892 (Simulation time: 5 hr 5 min 44 sec) 
Heartbeat CPU 0 instructions: 2710000003 cycles: 1765114286 heartbeat IPC: 1.44073 cumulative IPC: 1.44229 (Simulation time: 5 hr 5 min 53 sec) 
Heartbeat CPU 0 instructions: 2720000000 cycles: 1772209795 heartbeat IPC: 1.40934 cumulative IPC: 1.44214 (Simulation time: 5 hr 6 min 55 sec) 
Heartbeat CPU 0 instructions: 2730000000 cycles: 1779313181 heartbeat IPC: 1.40778 cumulative IPC: 1.44199 (Simulation time: 5 hr 7 min 57 sec) 
Heartbeat CPU 1 instructions: 920000000 cycles: 1779901879 heartbeat IPC: 0.398659 cumulative IPC: 0.423967 (Simulation time: 5 hr 8 min 2 sec) 
Heartbeat CPU 0 instructions: 2740000000 cycles: 1786420983 heartbeat IPC: 1.4069 cumulative IPC: 1.44184 (Simulation time: 5 hr 9 min 7 sec) 
Heartbeat CPU 0 instructions: 2750000001 cycles: 1793523613 heartbeat IPC: 1.40793 cumulative IPC: 1.44169 (Simulation time: 5 hr 10 min 23 sec) 
Heartbeat CPU 0 instructions: 2760000000 cycles: 1800637623 heartbeat IPC: 1.40568 cumulative IPC: 1.44154 (Simulation time: 5 hr 12 min 18 sec) 
Heartbeat CPU 1 instructions: 930000000 cycles: 1802728906 heartbeat IPC: 0.438077 cumulative IPC: 0.424162 (Simulation time: 5 hr 12 min 55 sec) 
Heartbeat CPU 3 instructions: 560000000 cycles: 1805901728 heartbeat IPC: 0.215826 cumulative IPC: 0.217219 (Simulation time: 5 hr 13 min 25 sec) 
Heartbeat CPU 2 instructions: 580000000 cycles: 1807712481 heartbeat IPC: 0.228946 cumulative IPC: 0.227919 (Simulation time: 5 hr 13 min 40 sec) 
Heartbeat CPU 0 instructions: 2770000000 cycles: 1807741297 heartbeat IPC: 1.40772 cumulative IPC: 1.44139 (Simulation time: 5 hr 13 min 41 sec) 
Heartbeat CPU 0 instructions: 2780000000 cycles: 1814847802 heartbeat IPC: 1.40716 cumulative IPC: 1.44125 (Simulation time: 5 hr 14 min 43 sec) 
Heartbeat CPU 0 instructions: 2790000003 cycles: 1821961784 heartbeat IPC: 1.40568 cumulative IPC: 1.4411 (Simulation time: 5 hr 15 min 44 sec) 
Heartbeat CPU 1 instructions: 940000000 cycles: 1825476595 heartbeat IPC: 0.439605 cumulative IPC: 0.424371 (Simulation time: 5 hr 16 min 16 sec) 
Heartbeat CPU 0 instructions: 2800000000 cycles: 1829065457 heartbeat IPC: 1.40772 cumulative IPC: 1.44095 (Simulation time: 5 hr 16 min 47 sec) 
Heartbeat CPU 0 instructions: 2810000000 cycles: 1836170726 heartbeat IPC: 1.40741 cumulative IPC: 1.44081 (Simulation time: 5 hr 17 min 48 sec) 
Heartbeat CPU 0 instructions: 2820000000 cycles: 1843273737 heartbeat IPC: 1.40785 cumulative IPC: 1.44068 (Simulation time: 5 hr 18 min 52 sec) 
Heartbeat CPU 1 instructions: 950000003 cycles: 1849147241 heartbeat IPC: 0.422464 cumulative IPC: 0.424345 (Simulation time: 5 hr 19 min 42 sec) 
Heartbeat CPU 0 instructions: 2830000000 cycles: 1850379070 heartbeat IPC: 1.40739 cumulative IPC: 1.44054 (Simulation time: 5 hr 19 min 52 sec) 
Heartbeat CPU 2 instructions: 590000001 cycles: 1851659396 heartbeat IPC: 0.227547 cumulative IPC: 0.22791 (Simulation time: 5 hr 20 min 3 sec) 
Heartbeat CPU 3 instructions: 570000001 cycles: 1852353529 heartbeat IPC: 0.215277 cumulative IPC: 0.217166 (Simulation time: 5 hr 20 min 8 sec) 
Heartbeat CPU 0 instructions: 2840000000 cycles: 1857477401 heartbeat IPC: 1.40878 cumulative IPC: 1.4404 (Simulation time: 5 hr 20 min 55 sec) 
Heartbeat CPU 0 instructions: 2850000000 cycles: 1864602743 heartbeat IPC: 1.40344 cumulative IPC: 1.44025 (Simulation time: 5 hr 21 min 56 sec) 
Heartbeat CPU 0 instructions: 2860000000 cycles: 1871706463 heartbeat IPC: 1.40771 cumulative IPC: 1.44012 (Simulation time: 5 hr 22 min 59 sec) 
Heartbeat CPU 1 instructions: 960000000 cycles: 1873584346 heartbeat IPC: 0.409214 cumulative IPC: 0.42413 (Simulation time: 5 hr 23 min 14 sec) 
Heartbeat CPU 0 instructions: 2870000000 cycles: 1878812438 heartbeat IPC: 1.40727 cumulative IPC: 1.43998 (Simulation time: 5 hr 24 min 0 sec) 
Heartbeat CPU 0 instructions: 2880000000 cycles: 1885925555 heartbeat IPC: 1.40585 cumulative IPC: 1.43984 (Simulation time: 5 hr 25 min 2 sec) 
Heartbeat CPU 0 instructions: 2890000002 cycles: 1893040106 heartbeat IPC: 1.40557 cumulative IPC: 1.4397 (Simulation time: 5 hr 26 min 3 sec) 
Heartbeat CPU 2 instructions: 600000000 cycles: 1895504877 heartbeat IPC: 0.228074 cumulative IPC: 0.227914 (Simulation time: 5 hr 26 min 25 sec) 
Heartbeat CPU 1 instructions: 970000001 cycles: 1896872432 heartbeat IPC: 0.429404 cumulative IPC: 0.424201 (Simulation time: 5 hr 26 min 37 sec) 
Heartbeat CPU 3 instructions: 580000000 cycles: 1898520846 heartbeat IPC: 0.216603 cumulative IPC: 0.217151 (Simulation time: 5 hr 26 min 51 sec) 
Heartbeat CPU 0 instructions: 2900000000 cycles: 1900144918 heartbeat IPC: 1.4075 cumulative IPC: 1.43957 (Simulation time: 5 hr 27 min 5 sec) 
Heartbeat CPU 0 instructions: 2910000000 cycles: 1907246632 heartbeat IPC: 1.40811 cumulative IPC: 1.43944 (Simulation time: 5 hr 28 min 7 sec) 
Heartbeat CPU 0 instructions: 2920000000 cycles: 1914356404 heartbeat IPC: 1.40651 cumulative IPC: 1.43931 (Simulation time: 5 hr 29 min 8 sec) 
Heartbeat CPU 1 instructions: 980000000 cycles: 1920820729 heartbeat IPC: 0.417566 cumulative IPC: 0.424111 (Simulation time: 5 hr 30 min 5 sec) 
Heartbeat CPU 0 instructions: 2930000002 cycles: 1921460259 heartbeat IPC: 1.40769 cumulative IPC: 1.43919 (Simulation time: 5 hr 30 min 10 sec) 
Heartbeat CPU 0 instructions: 2940000000 cycles: 1928570382 heartbeat IPC: 1.40645 cumulative IPC: 1.43905 (Simulation time: 5 hr 31 min 11 sec) 
Heartbeat CPU 0 instructions: 2950000002 cycles: 1935666566 heartbeat IPC: 1.40921 cumulative IPC: 1.43894 (Simulation time: 5 hr 32 min 13 sec) 
Heartbeat CPU 2 instructions: 610000003 cycles: 1939279383 heartbeat IPC: 0.228444 cumulative IPC: 0.227927 (Simulation time: 5 hr 32 min 43 sec) 
Heartbeat CPU 0 instructions: 2960000000 cycles: 1942790766 heartbeat IPC: 1.40367 cumulative IPC: 1.4388 (Simulation time: 5 hr 33 min 13 sec) 
Heartbeat CPU 3 instructions: 590000002 cycles: 1945184971 heartbeat IPC: 0.214297 cumulative IPC: 0.217077 (Simulation time: 5 hr 33 min 33 sec) 
Heartbeat CPU 1 instructions: 990000000 cycles: 1947204476 heartbeat IPC: 0.379021 cumulative IPC: 0.423449 (Simulation time: 5 hr 33 min 50 sec) 
Heartbeat CPU 0 instructions: 2970000001 cycles: 1949902466 heartbeat IPC: 1.40613 cumulative IPC: 1.43867 (Simulation time: 5 hr 34 min 15 sec) 
Heartbeat CPU 0 instructions: 2980000000 cycles: 1957002780 heartbeat IPC: 1.40839 cumulative IPC: 1.43855 (Simulation time: 5 hr 35 min 16 sec) 
Heartbeat CPU 0 instructions: 2990000002 cycles: 1964130110 heartbeat IPC: 1.40305 cumulative IPC: 1.43841 (Simulation time: 5 hr 36 min 17 sec) 
Heartbeat CPU 1 instructions: 1000000000 cycles: 1970309248 heartbeat IPC: 0.432811 cumulative IPC: 0.423568 (Simulation time: 5 hr 37 min 12 sec) 
Heartbeat CPU 0 instructions: 3000000000 cycles: 1971231642 heartbeat IPC: 1.40815 cumulative IPC: 1.43829 (Simulation time: 5 hr 37 min 20 sec) 
Heartbeat CPU 0 instructions: 3010000000 cycles: 1978343233 heartbeat IPC: 1.40616 cumulative IPC: 1.43817 (Simulation time: 5 hr 38 min 20 sec) 
Heartbeat CPU 2 instructions: 620000000 cycles: 1984160863 heartbeat IPC: 0.222809 cumulative IPC: 0.227802 (Simulation time: 5 hr 39 min 10 sec) 
Heartbeat CPU 0 instructions: 3020000000 cycles: 1985452157 heartbeat IPC: 1.40668 cumulative IPC: 1.43804 (Simulation time: 5 hr 39 min 20 sec) 
Heartbeat CPU 3 instructions: 600000000 cycles: 1991201107 heartbeat IPC: 0.217315 cumulative IPC: 0.217083 (Simulation time: 5 hr 40 min 11 sec) 
Heartbeat CPU 0 instructions: 3030000001 cycles: 1992561423 heartbeat IPC: 1.40662 cumulative IPC: 1.43792 (Simulation time: 5 hr 40 min 22 sec) 
Heartbeat CPU 1 instructions: 1010000001 cycles: 1995274588 heartbeat IPC: 0.400555 cumulative IPC: 0.423257 (Simulation time: 5 hr 40 min 46 sec) 
Heartbeat CPU 0 instructions: 3040000000 cycles: 1999671796 heartbeat IPC: 1.4064 cumulative IPC: 1.4378 (Simulation time: 5 hr 41 min 23 sec) 
Heartbeat CPU 0 instructions: 3050000000 cycles: 2006780627 heartbeat IPC: 1.4067 cumulative IPC: 1.43768 (Simulation time: 5 hr 42 min 24 sec) 
Heartbeat CPU 0 instructions: 3060000000 cycles: 2013880260 heartbeat IPC: 1.40852 cumulative IPC: 1.43757 (Simulation time: 5 hr 43 min 27 sec) 
Heartbeat CPU 0 instructions: 3070000003 cycles: 2020996007 heartbeat IPC: 1.40533 cumulative IPC: 1.43745 (Simulation time: 5 hr 44 min 28 sec) 
Heartbeat CPU 1 instructions: 1020000000 cycles: 2021248569 heartbeat IPC: 0.385001 cumulative IPC: 0.422726 (Simulation time: 5 hr 44 min 30 sec) 
Heartbeat CPU 0 instructions: 3080000000 cycles: 2028099498 heartbeat IPC: 1.40776 cumulative IPC: 1.43734 (Simulation time: 5 hr 45 min 31 sec) 
Heartbeat CPU 2 instructions: 630000000 cycles: 2028226917 heartbeat IPC: 0.226932 cumulative IPC: 0.227781 (Simulation time: 5 hr 45 min 32 sec) 
Heartbeat CPU 0 instructions: 3090000003 cycles: 2035203460 heartbeat IPC: 1.40767 cumulative IPC: 1.43723 (Simulation time: 5 hr 46 min 33 sec) 
Heartbeat CPU 3 instructions: 610000000 cycles: 2037427000 heartbeat IPC: 0.216329 cumulative IPC: 0.217064 (Simulation time: 5 hr 46 min 52 sec) 
Heartbeat CPU 0 instructions: 3100000000 cycles: 2042303926 heartbeat IPC: 1.40836 cumulative IPC: 1.43712 (Simulation time: 5 hr 47 min 35 sec) 
Heartbeat CPU 1 instructions: 1030000001 cycles: 2044359166 heartbeat IPC: 0.432702 cumulative IPC: 0.422848 (Simulation time: 5 hr 47 min 52 sec) 
Heartbeat CPU 0 instructions: 3110000002 cycles: 2049426868 heartbeat IPC: 1.40391 cumulative IPC: 1.43699 (Simulation time: 5 hr 48 min 34 sec) 
Heartbeat CPU 0 instructions: 3120000000 cycles: 2056527894 heartbeat IPC: 1.40825 cumulative IPC: 1.43689 (Simulation time: 5 hr 49 min 36 sec) 
Heartbeat CPU 0 instructions: 3130000001 cycles: 2063635398 heartbeat IPC: 1.40696 cumulative IPC: 1.43677 (Simulation time: 5 hr 50 min 38 sec) 
Heartbeat CPU 1 instructions: 1040000000 cycles: 2068174163 heartbeat IPC: 0.419903 cumulative IPC: 0.422812 (Simulation time: 5 hr 51 min 17 sec) 
Heartbeat CPU 0 instructions: 3140000000 cycles: 2070746574 heartbeat IPC: 1.40624 cumulative IPC: 1.43666 (Simulation time: 5 hr 51 min 37 sec) 
[...]
Heartbeat CPU 0 instructions: 6750000001 cycles: 4575319825 heartbeat IPC: 1.40619 cumulative IPC: 1.43932 (Simulation time: 11 hr 25 min 20 sec) 
Heartbeat CPU 2 instructions: 1210000000 cycles: 4576816394 heartbeat IPC: 0.229822 cumulative IPC: 0.227664 (Simulation time: 11 hr 25 min 32 sec) 
Heartbeat CPU 0 instructions: 6760000000 cycles: 4582418411 heartbeat IPC: 1.40873 cumulative IPC: 1.43927 (Simulation time: 11 hr 26 min 16 sec) 
Heartbeat CPU 1 instructions: 2100000000 cycles: 4585487715 heartbeat IPC: 0.404785 cumulative IPC: 0.421831 (Simulation time: 11 hr 26 min 40 sec) 
Heartbeat CPU 0 instructions: 6770000000 cycles: 4589521503 heartbeat IPC: 1.40784 cumulative IPC: 1.43922 (Simulation time: 11 hr 27 min 11 sec) 
Heartbeat CPU 0 instructions: 6780000000 cycles: 4596633293 heartbeat IPC: 1.40612 cumulative IPC: 1.43917 (Simulation time: 11 hr 28 min 6 sec) 
Heartbeat CPU 3 instructions: 1170000000 cycles: 4597280267 heartbeat IPC: 0.218797 cumulative IPC: 0.218041 (Simulation time: 11 hr 28 min 11 sec) 
Heartbeat CPU 0 instructions: 6790000003 cycles: 4603738942 heartbeat IPC: 1.40733 cumulative IPC: 1.43912 (Simulation time: 11 hr 29 min 3 sec) 
Heartbeat CPU 1 instructions: 2110000002 cycles: 4608387153 heartbeat IPC: 0.436692 cumulative IPC: 0.421908 (Simulation time: 11 hr 29 min 40 sec) 
Heartbeat CPU 0 instructions: 6800000000 cycles: 4610853304 heartbeat IPC: 1.40561 cumulative IPC: 1.43907 (Simulation time: 11 hr 29 min 58 sec) 
Heartbeat CPU 0 instructions: 6810000000 cycles: 4617955725 heartbeat IPC: 1.40797 cumulative IPC: 1.43902 (Simulation time: 11 hr 30 min 55 sec) 
Heartbeat CPU 2 instructions: 1220000000 cycles: 4620630104 heartbeat IPC: 0.228239 cumulative IPC: 0.227669 (Simulation time: 11 hr 31 min 16 sec) 
Heartbeat CPU 0 instructions: 6820000000 cycles: 4625060520 heartbeat IPC: 1.4075 cumulative IPC: 1.43897 (Simulation time: 11 hr 31 min 51 sec) 
Heartbeat CPU 0 instructions: 6830000000 cycles: 4632167199 heartbeat IPC: 1.40713 cumulative IPC: 1.43892 (Simulation time: 11 hr 32 min 44 sec) 
Heartbeat CPU 1 instructions: 2120000000 cycles: 4633250415 heartbeat IPC: 0.4022 cumulative IPC: 0.421798 (Simulation time: 11 hr 32 min 53 sec) 
Heartbeat CPU 0 instructions: 6840000000 cycles: 4639278736 heartbeat IPC: 1.40617 cumulative IPC: 1.43886 (Simulation time: 11 hr 33 min 40 sec) 
Heartbeat CPU 3 instructions: 1180000000 cycles: 4642292564 heartbeat IPC: 0.222162 cumulative IPC: 0.218083 (Simulation time: 11 hr 34 min 4 sec) 
Heartbeat CPU 0 instructions: 6850000000 cycles: 4646389323 heartbeat IPC: 1.40635 cumulative IPC: 1.43881 (Simulation time: 11 hr 34 min 36 sec) 
Heartbeat CPU 0 instructions: 6860000000 cycles: 4653487911 heartbeat IPC: 1.40873 cumulative IPC: 1.43877 (Simulation time: 11 hr 35 min 31 sec) 
Heartbeat CPU 1 instructions: 2130000002 cycles: 4658076370 heartbeat IPC: 0.402804 cumulative IPC: 0.421694 (Simulation time: 11 hr 36 min 6 sec) 
Heartbeat CPU 0 instructions: 6870000000 cycles: 4660603554 heartbeat IPC: 1.40535 cumulative IPC: 1.43871 (Simulation time: 11 hr 36 min 25 sec) 
Heartbeat CPU 2 instructions: 1230000001 cycles: 4665054791 heartbeat IPC: 0.2251 cumulative IPC: 0.227644 (Simulation time: 11 hr 36 min 59 sec) 
Heartbeat CPU 0 instructions: 6880000000 cycles: 4667718307 heartbeat IPC: 1.40553 cumulative IPC: 1.43866 (Simulation time: 11 hr 37 min 19 sec) 
Heartbeat CPU 0 instructions: 6890000002 cycles: 4674820975 heartbeat IPC: 1.40792 cumulative IPC: 1.43861 (Simulation time: 11 hr 38 min 16 sec) 
Heartbeat CPU 0 instructions: 6900000000 cycles: 4681927916 heartbeat IPC: 1.40707 cumulative IPC: 1.43856 (Simulation time: 11 hr 39 min 11 sec) 
Heartbeat CPU 1 instructions: 2140000000 cycles: 4682428315 heartbeat IPC: 0.410645 cumulative IPC: 0.421634 (Simulation time: 11 hr 39 min 15 sec) 
Heartbeat CPU 3 instructions: 1190000001 cycles: 4688072024 heartbeat IPC: 0.218439 cumulative IPC: 0.218086 (Simulation time: 11 hr 39 min 59 sec) 
Heartbeat CPU 0 instructions: 6910000000 cycles: 4689038761 heartbeat IPC: 1.4063 cumulative IPC: 1.43851 (Simulation time: 11 hr 40 min 7 sec) 
Heartbeat CPU 0 instructions: 6920000000 cycles: 4696144100 heartbeat IPC: 1.40739 cumulative IPC: 1.43846 (Simulation time: 11 hr 41 min 2 sec) 
Heartbeat CPU 0 instructions: 6930000002 cycles: 4703250962 heartbeat IPC: 1.40709 cumulative IPC: 1.43841 (Simulation time: 11 hr 41 min 57 sec) 
Heartbeat CPU 1 instructions: 2150000001 cycles: 4706820150 heartbeat IPC: 0.409973 cumulative IPC: 0.421572 (Simulation time: 11 hr 42 min 25 sec) 
Heartbeat CPU 2 instructions: 1240000000 cycles: 4709146995 heartbeat IPC: 0.226797 cumulative IPC: 0.227636 (Simulation time: 11 hr 42 min 43 sec) 
Heartbeat CPU 0 instructions: 6940000000 cycles: 4710351056 heartbeat IPC: 1.40843 cumulative IPC: 1.43837 (Simulation time: 11 hr 42 min 53 sec) 
Heartbeat CPU 0 instructions: 6950000002 cycles: 4717459421 heartbeat IPC: 1.40679 cumulative IPC: 1.43832 (Simulation time: 11 hr 43 min 48 sec) 
Heartbeat CPU 0 instructions: 6960000000 cycles: 4724566254 heartbeat IPC: 1.4071 cumulative IPC: 1.43827 (Simulation time: 11 hr 44 min 43 sec) 
Heartbeat CPU 1 instructions: 2160000000 cycles: 4731200341 heartbeat IPC: 0.410169 cumulative IPC: 0.421511 (Simulation time: 11 hr 45 min 34 sec) 
Heartbeat CPU 0 instructions: 6970000001 cycles: 4731673211 heartbeat IPC: 1.40707 cumulative IPC: 1.43822 (Simulation time: 11 hr 45 min 38 sec) 
Heartbeat CPU 3 instructions: 1200000000 cycles: 4733393034 heartbeat IPC: 0.220648 cumulative IPC: 0.218112 (Simulation time: 11 hr 45 min 50 sec) 
Finished CPU 3 instructions: 1000000000 cycles: 4584807391 cumulative IPC: 0.218112 (Simulation time: 11 hr 45 min 50 sec) 

CPU 0 Branch Prediction Accuracy: 99.9632% MPKI: 0.0435809

CPU 1 Branch Prediction Accuracy: 98.5326% MPKI: 1.70397

CPU 2 Branch Prediction Accuracy: 96.7198% MPKI: 4.85842

CPU 3 Branch Prediction Accuracy: 96.1636% MPKI: 5.73015

ChampSim completed all CPUs

Total Simulation Statistics (not including warmup)

CPU 0 cumulative IPC: 1.43821 instructions: 6593905699 cycles: 4584807391
L1D TOTAL     ACCESS: 1029338749  HIT: 1023076024  MISS:    6262725
L1D LOAD      ACCESS:  828380784  HIT:  822118262  MISS:    6262522
L1D RFO       ACCESS:  200957965  HIT:  200957762  MISS:        203
L1D PREFETCH  ACCESS:          0  HIT:          0  MISS:          0
L1D WRITEBACK ACCESS:          0  HIT:          0  MISS:          0
L1I TOTAL     ACCESS: 1767783628  HIT: 1767783081  MISS:        547
L1I LOAD      ACCESS: 1767783628  HIT: 1767783081  MISS:        547
L1I RFO       ACCESS:          0  HIT:          0  MISS:          0
L1I PREFETCH  ACCESS:          0  HIT:          0  MISS:          0
L1I WRITEBACK ACCESS:          0  HIT:          0  MISS:          0
L2C TOTAL     ACCESS:   12130320  HIT:    5866433  MISS:    6263887
L2C LOAD      ACCESS:    6263069  HIT:    5768037  MISS:     495032
L2C RFO       ACCESS:        203  HIT:         24  MISS:        179
L2C PREFETCH  ACCESS:    5866426  HIT:      97803  MISS:    5768623
L2C WRITEBACK ACCESS:        622  HIT:        569  MISS:         53

L2C DA-AMPM prefetcher final stats
LLC TOTAL     ACCESS:    6264442  HIT:        419  MISS:    6264023
LLC LOAD      ACCESS:     492568  HIT:          0  MISS:     492568
LLC RFO       ACCESS:        179  HIT:          2  MISS:        177
LLC PREFETCH  ACCESS:    5771087  HIT:          0  MISS:    5771087
LLC WRITEBACK ACCESS:        608  HIT:        417  MISS:        191

CPU 1 cumulative IPC: 0.42143 instructions: 1932175169 cycles: 4584807391
L1D TOTAL     ACCESS:  922336039  HIT:  829844339  MISS:   92491700
L1D LOAD      ACCESS:  461848543  HIT:  374041460  MISS:   87807083
L1D RFO       ACCESS:  460487496  HIT:  455802879  MISS:    4684617
L1D PREFETCH  ACCESS:          0  HIT:          0  MISS:          0
L1D WRITEBACK ACCESS:          0  HIT:          0  MISS:          0
L1I TOTAL     ACCESS:  634635326  HIT:  634635316  MISS:         10
L1I LOAD      ACCESS:  634635326  HIT:  634635316  MISS:         10
L1I RFO       ACCESS:          0  HIT:          0  MISS:          0
L1I PREFETCH  ACCESS:          0  HIT:          0  MISS:          0
L1I WRITEBACK ACCESS:          0  HIT:          0  MISS:          0
L2C TOTAL     ACCESS:  186746794  HIT:   64690541  MISS:  122056253
L2C LOAD      ACCESS:   87806691  HIT:   53539600  MISS:   34267091
L2C RFO       ACCESS:    4684256  HIT:     467239  MISS:    4217017
L2C PREFETCH  ACCESS:   83630596  HIT:     148075  MISS:   83482521
L2C WRITEBACK ACCESS:   10625251  HIT:   10535627  MISS:      89624

L2C DA-AMPM prefetcher final stats
LLC TOTAL     ACCESS:  130840574  HIT:   50043437  MISS:   80797137
LLC LOAD      ACCESS:   23293506  HIT:   10539959  MISS:   12753547
LLC RFO       ACCESS:    4195576  HIT:      29874  MISS:    4165702
LLC PREFETCH  ACCESS:   94477549  HIT:   30610181  MISS:   63867368
LLC WRITEBACK ACCESS:    8873943  HIT:    8863423  MISS:      10520

CPU 2 cumulative IPC: 0.227638 instructions: 1043677422 cycles: 4584807391
L1D TOTAL     ACCESS:  462059801  HIT:  441169524  MISS:   20890277
L1D LOAD      ACCESS:  273330593  HIT:  255070870  MISS:   18259723
L1D RFO       ACCESS:  188729208  HIT:  186098654  MISS:    2630554
L1D PREFETCH  ACCESS:          0  HIT:          0  MISS:          0
L1D WRITEBACK ACCESS:          0  HIT:          0  MISS:          0
L1I TOTAL     ACCESS:  371302107  HIT:  370905299  MISS:     396808
L1I LOAD      ACCESS:  371302107  HIT:  370905299  MISS:     396808
L1I RFO       ACCESS:          0  HIT:          0  MISS:          0
L1I PREFETCH  ACCESS:          0  HIT:          0  MISS:          0
L1I WRITEBACK ACCESS:          0  HIT:          0  MISS:          0
L2C TOTAL     ACCESS:   35282231  HIT:   17239178  MISS:   18043053
L2C LOAD      ACCESS:   18655909  HIT:    6192255  MISS:   12463654
L2C RFO       ACCESS:    2630413  HIT:     491563  MISS:    2138850
L2C PREFETCH  ACCESS:    3900824  HIT:     497667  MISS:    3403157
L2C WRITEBACK ACCESS:   10095085  HIT:   10057693  MISS:      37392

L2C DA-AMPM prefetcher final stats
LLC TOTAL     ACCESS:   25752194  HIT:   12158999  MISS:   13593195
LLC LOAD      ACCESS:   12427479  HIT:    3076800  MISS:    9350679
LLC RFO       ACCESS:    2136591  HIT:     797618  MISS:    1338973
LLC PREFETCH  ACCESS:    3441561  HIT:     724840  MISS:    2716721
LLC WRITEBACK ACCESS:    7746563  HIT:    7559741  MISS:     186822

CPU 3 cumulative IPC: 0.218112 instructions: 1000000000 cycles: 4584807391
L1D TOTAL     ACCESS:  447261521  HIT:  426663967  MISS:   20597554
L1D LOAD      ACCESS:  266604977  HIT:  248514008  MISS:   18090969
L1D RFO       ACCESS:  180656544  HIT:  178149959  MISS:    2506585
L1D PREFETCH  ACCESS:          0  HIT:          0  MISS:          0
L1D WRITEBACK ACCESS:          0  HIT:          0  MISS:          0
L1I TOTAL     ACCESS:  350517563  HIT:  349864619  MISS:     652944
L1I LOAD      ACCESS:  350517563  HIT:  349864619  MISS:     652944
L1I RFO       ACCESS:          0  HIT:          0  MISS:          0
L1I PREFETCH  ACCESS:          0  HIT:          0  MISS:          0
L1I WRITEBACK ACCESS:          0  HIT:          0  MISS:          0
L2C TOTAL     ACCESS:   34353257  HIT:   16466237  MISS:   17887020
L2C LOAD      ACCESS:   18743181  HIT:    6087640  MISS:   12655541
L2C RFO       ACCESS:    2506457  HIT:     430594  MISS:    2075863
L2C PREFETCH  ACCESS:    3336986  HIT:     220443  MISS:    3116543
L2C WRITEBACK ACCESS:    9766633  HIT:    9727560  MISS:      39073

L2C DA-AMPM prefetcher final stats
LLC TOTAL     ACCESS:   25442607  HIT:   11353443  MISS:   14089164
LLC LOAD      ACCESS:   12617631  HIT:    2790894  MISS:    9826737
LLC RFO       ACCESS:    2071991  HIT:     655779  MISS:    1416212
LLC PREFETCH  ACCESS:    3158277  HIT:     497710  MISS:    2660567
LLC WRITEBACK ACCESS:    7594708  HIT:    7409060  MISS:     185648

Region of Interest Statistics

CPU 0 cumulative IPC: 1.42697 instructions: 1000000001 cycles: 700787459
L1D TOTAL     ACCESS:  155782247  HIT:  154846978  MISS:     935269
L1D LOAD      ACCESS:  125770287  HIT:  124835053  MISS:     935234
L1D RFO       ACCESS:   30011960  HIT:   30011925  MISS:         35
L1D PREFETCH  ACCESS:          0  HIT:          0  MISS:          0
L1D WRITEBACK ACCESS:          0  HIT:          0  MISS:          0
L1D PREFETCH  REQUESTED:          0  ISSUED:          0  USEFUL:          0  USELESS:          0
L1I TOTAL     ACCESS:  268419210  HIT:  268418998  MISS:        212
L1I LOAD      ACCESS:  268419210  HIT:  268418998  MISS:        212
L1I RFO       ACCESS:          0  HIT:          0  MISS:          0
L1I PREFETCH  ACCESS:          0  HIT:          0  MISS:          0
L1I WRITEBACK ACCESS:          0  HIT:          0  MISS:          0
L1I PREFETCH  REQUESTED:          0  ISSUED:          0  USEFUL:          0  USELESS:          0
L2C TOTAL     ACCESS:    1812044  HIT:     876463  MISS:     935581
L2C LOAD      ACCESS:     935446  HIT:     861779  MISS:      73667
L2C RFO       ACCESS:         35  HIT:          3  MISS:         32
L2C PREFETCH  ACCESS:     876490  HIT:      14610  MISS:     861880
L2C WRITEBACK ACCESS:         73  HIT:         71  MISS:          2
L2C PREFETCH  REQUESTED:    6313264  ISSUED:    6313264  USEFUL:    6103053  USELESS:        680
LLC TOTAL     ACCESS:     935650  HIT:         57  MISS:     935593
LLC LOAD      ACCESS:      73382  HIT:          0  MISS:      73382
LLC RFO       ACCESS:         32  HIT:          0  MISS:         32
LLC PREFETCH  ACCESS:     862165  HIT:          0  MISS:     862165
LLC WRITEBACK ACCESS:         71  HIT:         57  MISS:         14
LLC PREFETCH  REQUESTED:          0  ISSUED:          0  USEFUL:    1032185  USELESS:   83665943
Major fault: 0 Minor fault: 19986

CPU 1 cumulative IPC: 0.42272 instructions: 1000000000 cycles: 2365631154
L1D TOTAL     ACCESS:  468921412  HIT:  417486249  MISS:   51435163
L1D LOAD      ACCESS:  240601511  HIT:  191614168  MISS:   48987343
L1D RFO       ACCESS:  228319901  HIT:  225872081  MISS:    2447820
L1D PREFETCH  ACCESS:          0  HIT:          0  MISS:          0
L1D WRITEBACK ACCESS:          0  HIT:          0  MISS:          0
L1D PREFETCH  REQUESTED:          0  ISSUED:          0  USEFUL:          0  USELESS:          0
L1I TOTAL     ACCESS:  329278166  HIT:  329278156  MISS:         10
L1I LOAD      ACCESS:  329278166  HIT:  329278156  MISS:         10
L1I RFO       ACCESS:          0  HIT:          0  MISS:          0
L1I PREFETCH  ACCESS:          0  HIT:          0  MISS:          0
L1I WRITEBACK ACCESS:          0  HIT:          0  MISS:          0
L1I PREFETCH  REQUESTED:          0  ISSUED:          0  USEFUL:          0  USELESS:          0
L2C TOTAL     ACCESS:  102700115  HIT:   35415510  MISS:   67284605
L2C LOAD      ACCESS:   48987114  HIT:   29705219  MISS:   19281895
L2C RFO       ACCESS:    2447592  HIT:     247089  MISS:    2200503
L2C PREFETCH  ACCESS:   45852811  HIT:      96626  MISS:   45756185
L2C WRITEBACK ACCESS:    5412598  HIT:    5366576  MISS:      46022
L2C PREFETCH  REQUESTED:  109468152  ISSUED:  109467991  USEFUL:   59549206  USELESS:   36293905
LLC TOTAL     ACCESS:   71714417  HIT:   28333256  MISS:   43381161
LLC LOAD      ACCESS:   12743033  HIT:    6031349  MISS:    6711684
LLC RFO       ACCESS:    2189706  HIT:      15800  MISS:    2173906
LLC PREFETCH  ACCESS:   52305842  HIT:   17815521  MISS:   34490321
LLC WRITEBACK ACCESS:    4475836  HIT:    4470586  MISS:       5250
LLC PREFETCH  REQUESTED:          0  ISSUED:          0  USEFUL:    1032185  USELESS:   83665943
Major fault: 0 Minor fault: 316817

CPU 2 cumulative IPC: 0.227663 instructions: 1000000000 cycles: 4392458398
L1D TOTAL     ACCESS:  442711477  HIT:  422698745  MISS:   20012732
L1D LOAD      ACCESS:  261901354  HIT:  244408709  MISS:   17492645
L1D RFO       ACCESS:  180810123  HIT:  178290036  MISS:    2520087
L1D PREFETCH  ACCESS:          0  HIT:          0  MISS:          0
L1D WRITEBACK ACCESS:          0  HIT:          0  MISS:          0
L1D PREFETCH  REQUESTED:          0  ISSUED:          0  USEFUL:          0  USELESS:          0
L1I TOTAL     ACCESS:  355757927  HIT:  355378375  MISS:     379552
L1I LOAD      ACCESS:  355757927  HIT:  355378375  MISS:     379552
L1I RFO       ACCESS:          0  HIT:          0  MISS:          0
L1I PREFETCH  ACCESS:          0  HIT:          0  MISS:          0
L1I WRITEBACK ACCESS:          0  HIT:          0  MISS:          0
L1I PREFETCH  REQUESTED:          0  ISSUED:          0  USEFUL:          0  USELESS:          0
L2C TOTAL     ACCESS:   33798847  HIT:   16514302  MISS:   17284545
L2C LOAD      ACCESS:   17871605  HIT:    5934221  MISS:   11937384
L2C RFO       ACCESS:    2519953  HIT:     468917  MISS:    2051036
L2C PREFETCH  ACCESS:    3736702  HIT:     476463  MISS:    3260239
L2C WRITEBACK ACCESS:    9670587  HIT:    9634701  MISS:      35886
L2C PREFETCH  REQUESTED:    5263303  ISSUED:    5263303  USEFUL:    1025345  USELESS:    3043256
LLC TOTAL     ACCESS:   24670268  HIT:   11641097  MISS:   13029171
LLC LOAD      ACCESS:   11902635  HIT:    2944876  MISS:    8957759
LLC RFO       ACCESS:    2048866  HIT:     760000  MISS:    1288866
LLC PREFETCH  ACCESS:    3297128  HIT:     693653  MISS:    2603475
LLC WRITEBACK ACCESS:    7421639  HIT:    7242568  MISS:     179071
LLC PREFETCH  REQUESTED:          0  ISSUED:          0  USEFUL:    1032185  USELESS:   83665943
Major fault: 0 Minor fault: 52254

CPU 3 cumulative IPC: 0.218112 instructions: 1000000000 cycles: 4584807391
L1D TOTAL     ACCESS:  447261521  HIT:  426663967  MISS:   20597554
L1D LOAD      ACCESS:  266604977  HIT:  248514008  MISS:   18090969
L1D RFO       ACCESS:  180656544  HIT:  178149959  MISS:    2506585
L1D PREFETCH  ACCESS:          0  HIT:          0  MISS:          0
L1D WRITEBACK ACCESS:          0  HIT:          0  MISS:          0
L1D PREFETCH  REQUESTED:          0  ISSUED:          0  USEFUL:          0  USELESS:          0
L1I TOTAL     ACCESS:  350517563  HIT:  349864619  MISS:     652944
L1I LOAD      ACCESS:  350517563  HIT:  349864619  MISS:     652944
L1I RFO       ACCESS:          0  HIT:          0  MISS:          0
L1I PREFETCH  ACCESS:          0  HIT:          0  MISS:          0
L1I WRITEBACK ACCESS:          0  HIT:          0  MISS:          0
L1I PREFETCH  REQUESTED:          0  ISSUED:          0  USEFUL:          0  USELESS:          0
L2C TOTAL     ACCESS:   34353257  HIT:   16466237  MISS:   17887020
L2C LOAD      ACCESS:   18743181  HIT:    6087640  MISS:   12655541
L2C RFO       ACCESS:    2506457  HIT:     430594  MISS:    2075863
L2C PREFETCH  ACCESS:    3336986  HIT:     220443  MISS:    3116543
L2C WRITEBACK ACCESS:    9766633  HIT:    9727560  MISS:      39073
L2C PREFETCH  REQUESTED:    4620366  ISSUED:    4620366  USEFUL:     840407  USELESS:    2915787
LLC TOTAL     ACCESS:   25442607  HIT:   11353443  MISS:   14089164
LLC LOAD      ACCESS:   12617631  HIT:    2790894  MISS:    9826737
LLC RFO       ACCESS:    2071991  HIT:     655779  MISS:    1416212
LLC PREFETCH  ACCESS:    3158277  HIT:     497710  MISS:    2660567
LLC WRITEBACK ACCESS:    7594708  HIT:    7409060  MISS:     185648
LLC PREFETCH  REQUESTED:          0  ISSUED:          0  USEFUL:    1032185  USELESS:   83665943
Major fault: 0 Minor fault: 55545

L2C DA-AMPM prefetcher final stats

L2C DA-AMPM prefetcher final stats

L2C DA-AMPM prefetcher final stats

L2C DA-AMPM prefetcher final stats

DRAM Statistics
 CHANNEL 0
 RQ ROW_BUFFER_HIT:   28933599  ROW_BUFFER_MISS:   28436292
 DBUS_CONGESTED:   69925753
 WQ ROW_BUFFER_HIT:     784886  ROW_BUFFER_MISS:    9239300  FULL:          0

 CHANNEL 1
 RQ ROW_BUFFER_HIT:   28651972  ROW_BUFFER_MISS:   28328057
 DBUS_CONGESTED:   69925753
 WQ ROW_BUFFER_HIT:     782481  ROW_BUFFER_MISS:    9202284  FULL:          0

 AVG_CONGESTED_CYCLE: 13
