
*** ChampSim Multicore Out-of-Order Simulator ***

Warmup Instructions: 200000000
Simulation Instructions: 1000000000
Number of CPUs: 4
LLC sets: 8192
LLC ways: 16
Off-chip DRAM Size: 8192 MB Channels: 2 Width: 64-bit Data Rate: 1600 MT/s

CPU 0 runs /scratch/user/djimenez/champsim-traces/speccpu2017/xz/654.roms_s/654.roms_s-294B.champsimtrace.xz
CPU 1 runs /scratch/user/djimenez/champsim-traces/speccpu2017/xz/600.perlbench_s/600.perlbench_s-210B.champsimtrace.xz
CPU 2 runs /scratch/user/djimenez/champsim-traces/speccpu2017/xz/654.roms_s/654.roms_s-1007B.champsimtrace.xz
CPU 3 runs /scratch/user/djimenez/champsim-traces/speccpu2017/xz/644.nab_s/644.nab_s-12521B.champsimtrace.xz
L2C DA-AMPM prefetcher
L2C DA-AMPM prefetcher
L2C DA-AMPM prefetcher
L2C DA-AMPM prefetcher
Heartbeat CPU 3 instructions: 10000000 cycles: 4386442 heartbeat IPC: 2.27975 cumulative IPC: 2.27975 (Simulation time: 0 hr 1 min 58 sec) 
Heartbeat CPU 0 instructions: 10000003 cycles: 4879896 heartbeat IPC: 2.04922 cumulative IPC: 2.04922 (Simulation time: 0 hr 2 min 10 sec) 
Heartbeat CPU 2 instructions: 10000002 cycles: 5109487 heartbeat IPC: 1.95714 cumulative IPC: 1.95714 (Simulation time: 0 hr 2 min 16 sec) 
Heartbeat CPU 1 instructions: 10000002 cycles: 5617414 heartbeat IPC: 1.78018 cumulative IPC: 1.78018 (Simulation time: 0 hr 2 min 29 sec) 
Heartbeat CPU 3 instructions: 20000000 cycles: 8773726 heartbeat IPC: 2.27931 cumulative IPC: 2.27953 (Simulation time: 0 hr 3 min 52 sec) 
Heartbeat CPU 0 instructions: 20000000 cycles: 9759416 heartbeat IPC: 2.04938 cumulative IPC: 2.0493 (Simulation time: 0 hr 4 min 22 sec) 
Heartbeat CPU 2 instructions: 20000000 cycles: 10218645 heartbeat IPC: 1.95727 cumulative IPC: 1.95721 (Simulation time: 0 hr 4 min 36 sec) 
Heartbeat CPU 1 instructions: 20000000 cycles: 11503814 heartbeat IPC: 1.69883 cumulative IPC: 1.73855 (Simulation time: 0 hr 5 min 15 sec) 
Heartbeat CPU 3 instructions: 30000002 cycles: 13161882 heartbeat IPC: 2.27886 cumulative IPC: 2.27931 (Simulation time: 0 hr 6 min 1 sec) 
Heartbeat CPU 0 instructions: 30000002 cycles: 14638910 heartbeat IPC: 2.04939 cumulative IPC: 2.04933 (Simulation time: 0 hr 6 min 38 sec) 
Heartbeat CPU 2 instructions: 30000000 cycles: 15327925 heartbeat IPC: 1.95722 cumulative IPC: 1.95721 (Simulation time: 0 hr 6 min 55 sec) 
Heartbeat CPU 1 instructions: 30000002 cycles: 17393250 heartbeat IPC: 1.69796 cumulative IPC: 1.72481 (Simulation time: 0 hr 7 min 46 sec) 
Heartbeat CPU 3 instructions: 40000000 cycles: 17550149 heartbeat IPC: 2.2788 cumulative IPC: 2.27918 (Simulation time: 0 hr 7 min 50 sec) 
Heartbeat CPU 0 instructions: 40000000 cycles: 19518454 heartbeat IPC: 2.04937 cumulative IPC: 2.04934 (Simulation time: 0 hr 8 min 40 sec) 
Heartbeat CPU 2 instructions: 40000000 cycles: 20437292 heartbeat IPC: 1.95719 cumulative IPC: 1.95721 (Simulation time: 0 hr 9 min 2 sec) 
Heartbeat CPU 3 instructions: 50000001 cycles: 21937240 heartbeat IPC: 2.27941 cumulative IPC: 2.27923 (Simulation time: 0 hr 9 min 40 sec) 
Heartbeat CPU 1 instructions: 40000000 cycles: 23282611 heartbeat IPC: 1.69798 cumulative IPC: 1.71802 (Simulation time: 0 hr 10 min 14 sec) 
Heartbeat CPU 0 instructions: 50000000 cycles: 24398209 heartbeat IPC: 2.04928 cumulative IPC: 2.04933 (Simulation time: 0 hr 10 min 42 sec) 
Heartbeat CPU 2 instructions: 50000003 cycles: 25393102 heartbeat IPC: 2.01783 cumulative IPC: 1.96904 (Simulation time: 0 hr 11 min 7 sec) 
Heartbeat CPU 3 instructions: 60000000 cycles: 26325152 heartbeat IPC: 2.27899 cumulative IPC: 2.27919 (Simulation time: 0 hr 11 min 31 sec) 
Heartbeat CPU 1 instructions: 50000002 cycles: 29195530 heartbeat IPC: 1.69121 cumulative IPC: 1.71259 (Simulation time: 0 hr 12 min 39 sec) 
Heartbeat CPU 0 instructions: 60000000 cycles: 29278021 heartbeat IPC: 2.04926 cumulative IPC: 2.04932 (Simulation time: 0 hr 12 min 41 sec) 
Heartbeat CPU 2 instructions: 60000000 cycles: 30209463 heartbeat IPC: 2.07626 cumulative IPC: 1.98613 (Simulation time: 0 hr 13 min 3 sec) 
Heartbeat CPU 3 instructions: 70000001 cycles: 30712032 heartbeat IPC: 2.27952 cumulative IPC: 2.27924 (Simulation time: 0 hr 13 min 15 sec) 
Heartbeat CPU 0 instructions: 70000003 cycles: 34157630 heartbeat IPC: 2.04935 cumulative IPC: 2.04932 (Simulation time: 0 hr 14 min 36 sec) 
Heartbeat CPU 1 instructions: 60000000 cycles: 35006179 heartbeat IPC: 1.72098 cumulative IPC: 1.71398 (Simulation time: 0 hr 14 min 57 sec) 
Heartbeat CPU 3 instructions: 80000000 cycles: 35100812 heartbeat IPC: 2.27854 cumulative IPC: 2.27915 (Simulation time: 0 hr 14 min 59 sec) 
Heartbeat CPU 2 instructions: 70000003 cycles: 35318178 heartbeat IPC: 1.95744 cumulative IPC: 1.98198 (Simulation time: 0 hr 15 min 5 sec) 
Heartbeat CPU 0 instructions: 80000000 cycles: 39037227 heartbeat IPC: 2.04935 cumulative IPC: 2.04933 (Simulation time: 0 hr 16 min 36 sec) 
Heartbeat CPU 3 instructions: 90000003 cycles: 39487336 heartbeat IPC: 2.27971 cumulative IPC: 2.27921 (Simulation time: 0 hr 16 min 47 sec) 
Heartbeat CPU 2 instructions: 80000000 cycles: 40427438 heartbeat IPC: 1.95723 cumulative IPC: 1.97885 (Simulation time: 0 hr 17 min 10 sec) 
Heartbeat CPU 1 instructions: 70000001 cycles: 40868375 heartbeat IPC: 1.70585 cumulative IPC: 1.71282 (Simulation time: 0 hr 17 min 20 sec) 
Heartbeat CPU 3 instructions: 100000000 cycles: 43876758 heartbeat IPC: 2.2782 cumulative IPC: 2.27911 (Simulation time: 0 hr 18 min 34 sec) 
Heartbeat CPU 0 instructions: 90000000 cycles: 43916834 heartbeat IPC: 2.04935 cumulative IPC: 2.04933 (Simulation time: 0 hr 18 min 35 sec) 
Heartbeat CPU 2 instructions: 90000003 cycles: 45536711 heartbeat IPC: 1.95723 cumulative IPC: 1.97643 (Simulation time: 0 hr 19 min 15 sec) 
Heartbeat CPU 1 instructions: 80000000 cycles: 46738353 heartbeat IPC: 1.70358 cumulative IPC: 1.71166 (Simulation time: 0 hr 19 min 44 sec) 
Heartbeat CPU 3 instructions: 110000001 cycles: 48263157 heartbeat IPC: 2.27977 cumulative IPC: 2.27917 (Simulation time: 0 hr 20 min 20 sec) 
Heartbeat CPU 0 instructions: 100000000 cycles: 48796419 heartbeat IPC: 2.04935 cumulative IPC: 2.04933 (Simulation time: 0 hr 20 min 33 sec) 
Heartbeat CPU 2 instructions: 100000000 cycles: 50645896 heartbeat IPC: 1.95726 cumulative IPC: 1.97449 (Simulation time: 0 hr 21 min 16 sec) 
Heartbeat CPU 1 instructions: 90000000 cycles: 52394387 heartbeat IPC: 1.76802 cumulative IPC: 1.71774 (Simulation time: 0 hr 21 min 59 sec) 
Heartbeat CPU 3 instructions: 120000000 cycles: 52651554 heartbeat IPC: 2.27874 cumulative IPC: 2.27913 (Simulation time: 0 hr 22 min 5 sec) 
Heartbeat CPU 0 instructions: 110000001 cycles: 53675429 heartbeat IPC: 2.0496 cumulative IPC: 2.04935 (Simulation time: 0 hr 22 min 30 sec) 
Heartbeat CPU 2 instructions: 110000002 cycles: 55755176 heartbeat IPC: 1.95722 cumulative IPC: 1.97291 (Simulation time: 0 hr 23 min 19 sec) 
Heartbeat CPU 3 instructions: 130000000 cycles: 57038076 heartbeat IPC: 2.27971 cumulative IPC: 2.27918 (Simulation time: 0 hr 23 min 50 sec) 
Heartbeat CPU 1 instructions: 100000000 cycles: 58241894 heartbeat IPC: 1.71013 cumulative IPC: 1.71698 (Simulation time: 0 hr 24 min 19 sec) 
Heartbeat CPU 0 instructions: 120000000 cycles: 58554968 heartbeat IPC: 2.04937 cumulative IPC: 2.04936 (Simulation time: 0 hr 24 min 27 sec) 
Heartbeat CPU 2 instructions: 120000000 cycles: 60798327 heartbeat IPC: 1.98289 cumulative IPC: 1.97374 (Simulation time: 0 hr 25 min 22 sec) 
Heartbeat CPU 3 instructions: 140000000 cycles: 61425546 heartbeat IPC: 2.27922 cumulative IPC: 2.27918 (Simulation time: 0 hr 25 min 38 sec) 
Heartbeat CPU 0 instructions: 130000000 cycles: 63434543 heartbeat IPC: 2.04936 cumulative IPC: 2.04936 (Simulation time: 0 hr 26 min 28 sec) 
Heartbeat CPU 1 instructions: 110000003 cycles: 64090665 heartbeat IPC: 1.70976 cumulative IPC: 1.71632 (Simulation time: 0 hr 26 min 44 sec) 
Heartbeat CPU 2 instructions: 130000003 cycles: 65513135 heartbeat IPC: 2.12098 cumulative IPC: 1.98433 (Simulation time: 0 hr 27 min 19 sec) 
Heartbeat CPU 3 instructions: 150000002 cycles: 65811627 heartbeat IPC: 2.27994 cumulative IPC: 2.27923 (Simulation time: 0 hr 27 min 27 sec) 
Heartbeat CPU 0 instructions: 140000000 cycles: 68313814 heartbeat IPC: 2.04949 cumulative IPC: 2.04937 (Simulation time: 0 hr 28 min 40 sec) 
Heartbeat CPU 1 instructions: 120000000 cycles: 70022346 heartbeat IPC: 1.68586 cumulative IPC: 1.71374 (Simulation time: 0 hr 29 min 31 sec) 
Heartbeat CPU 3 instructions: 160000000 cycles: 70198273 heartbeat IPC: 2.27965 cumulative IPC: 2.27926 (Simulation time: 0 hr 29 min 37 sec) 
Heartbeat CPU 2 instructions: 140000000 cycles: 70622113 heartbeat IPC: 1.95734 cumulative IPC: 1.98238 (Simulation time: 0 hr 29 min 49 sec) 
Heartbeat CPU 0 instructions: 150000003 cycles: 73193588 heartbeat IPC: 2.04928 cumulative IPC: 2.04936 (Simulation time: 0 hr 31 min 0 sec) 
Heartbeat CPU 3 instructions: 170000002 cycles: 74587314 heartbeat IPC: 2.2784 cumulative IPC: 2.27921 (Simulation time: 0 hr 31 min 43 sec) 
Heartbeat CPU 2 instructions: 150000000 cycles: 75731375 heartbeat IPC: 1.95723 cumulative IPC: 1.98068 (Simulation time: 0 hr 32 min 19 sec) 
Heartbeat CPU 1 instructions: 130000003 cycles: 75852280 heartbeat IPC: 1.71529 cumulative IPC: 1.71386 (Simulation time: 0 hr 32 min 22 sec) 
Heartbeat CPU 0 instructions: 160000000 cycles: 78072765 heartbeat IPC: 2.04953 cumulative IPC: 2.04937 (Simulation time: 0 hr 33 min 19 sec) 
Heartbeat CPU 3 instructions: 180000000 cycles: 78974463 heartbeat IPC: 2.27938 cumulative IPC: 2.27922 (Simulation time: 0 hr 33 min 41 sec) 
Heartbeat CPU 2 instructions: 160000000 cycles: 80840640 heartbeat IPC: 1.95723 cumulative IPC: 1.9792 (Simulation time: 0 hr 34 min 28 sec) 
Heartbeat CPU 1 instructions: 140000000 cycles: 81670947 heartbeat IPC: 1.71861 cumulative IPC: 1.7142 (Simulation time: 0 hr 34 min 49 sec) 
Heartbeat CPU 0 instructions: 170000002 cycles: 82952396 heartbeat IPC: 2.04934 cumulative IPC: 2.04937 (Simulation time: 0 hr 35 min 21 sec) 
Heartbeat CPU 3 instructions: 190000000 cycles: 83361210 heartbeat IPC: 2.27959 cumulative IPC: 2.27924 (Simulation time: 0 hr 35 min 31 sec) 
Heartbeat CPU 2 instructions: 170000000 cycles: 85949837 heartbeat IPC: 1.95725 cumulative IPC: 1.9779 (Simulation time: 0 hr 36 min 37 sec) 
Heartbeat CPU 1 instructions: 150000002 cycles: 87449314 heartbeat IPC: 1.73059 cumulative IPC: 1.71528 (Simulation time: 0 hr 37 min 15 sec) 
Heartbeat CPU 3 instructions: 200000000 cycles: 87748320 heartbeat IPC: 2.2794 cumulative IPC: 2.27925 (Simulation time: 0 hr 37 min 22 sec) 
Heartbeat CPU 0 instructions: 180000000 cycles: 87831694 heartbeat IPC: 2.04947 cumulative IPC: 2.04937 (Simulation time: 0 hr 37 min 25 sec) 
Heartbeat CPU 2 instructions: 180000000 cycles: 91059062 heartbeat IPC: 1.95724 cumulative IPC: 1.97674 (Simulation time: 0 hr 38 min 46 sec) 
Heartbeat CPU 3 instructions: 210000003 cycles: 92135210 heartbeat IPC: 2.27952 cumulative IPC: 0.108536 (Simulation time: 0 hr 39 min 13 sec) 
Heartbeat CPU 0 instructions: 190000001 cycles: 92711385 heartbeat IPC: 2.04931 cumulative IPC: 2.04937 (Simulation time: 0 hr 39 min 28 sec) 
Heartbeat CPU 1 instructions: 160000000 cycles: 93346983 heartbeat IPC: 1.69558 cumulative IPC: 1.71404 (Simulation time: 0 hr 39 min 44 sec) 
Heartbeat CPU 2 instructions: 190000000 cycles: 96168378 heartbeat IPC: 1.95721 cumulative IPC: 1.9757 (Simulation time: 0 hr 41 min 11 sec) 
Heartbeat CPU 3 instructions: 220000000 cycles: 96522693 heartbeat IPC: 2.27921 cumulative IPC: 0.207205 (Simulation time: 0 hr 41 min 23 sec) 
Heartbeat CPU 0 instructions: 200000000 cycles: 97590749 heartbeat IPC: 2.04945 cumulative IPC: 2.04937 (Simulation time: 0 hr 41 min 53 sec) 
Heartbeat CPU 1 instructions: 170000001 cycles: 99186307 heartbeat IPC: 1.71253 cumulative IPC: 1.71395 (Simulation time: 0 hr 42 min 38 sec) 
Heartbeat CPU 3 instructions: 230000003 cycles: 100910299 heartbeat IPC: 2.27915 cumulative IPC: 0.297294 (Simulation time: 0 hr 43 min 27 sec) 
Heartbeat CPU 2 instructions: 200000000 cycles: 101035741 heartbeat IPC: 2.0545 cumulative IPC: 1.9795 (Simulation time: 0 hr 43 min 31 sec) 
Heartbeat CPU 0 instructions: 210000000 cycles: 102470432 heartbeat IPC: 2.04931 cumulative IPC: 0.0975891 (Simulation time: 0 hr 44 min 13 sec) 
Heartbeat CPU 1 instructions: 180000000 cycles: 105004136 heartbeat IPC: 1.71885 cumulative IPC: 1.71422 (Simulation time: 0 hr 45 min 20 sec) 
Heartbeat CPU 3 instructions: 240000000 cycles: 105298105 heartbeat IPC: 2.27904 cumulative IPC: 0.379874 (Simulation time: 0 hr 45 min 27 sec) 
Heartbeat CPU 2 instructions: 210000000 cycles: 105917175 heartbeat IPC: 2.04858 cumulative IPC: 0.0944134 (Simulation time: 0 hr 45 min 43 sec) 
Heartbeat CPU 0 instructions: 220000000 cycles: 107349396 heartbeat IPC: 2.04962 cumulative IPC: 0.186308 (Simulation time: 0 hr 46 min 28 sec) 
Heartbeat CPU 3 instructions: 250000000 cycles: 109685834 heartbeat IPC: 2.27908 cumulative IPC: 0.455847 (Simulation time: 0 hr 47 min 29 sec) 
Heartbeat CPU 1 instructions: 190000002 cycles: 110903460 heartbeat IPC: 1.69511 cumulative IPC: 1.7132 (Simulation time: 0 hr 48 min 1 sec) 
Heartbeat CPU 2 instructions: 220000000 cycles: 111026358 heartbeat IPC: 1.95726 cumulative IPC: 0.180137 (Simulation time: 0 hr 48 min 4 sec) 
Heartbeat CPU 0 instructions: 230000000 cycles: 112229024 heartbeat IPC: 2.04934 cumulative IPC: 0.267311 (Simulation time: 0 hr 48 min 34 sec) 
Heartbeat CPU 3 instructions: 260000000 cycles: 114072797 heartbeat IPC: 2.27948 cumulative IPC: 0.52598 (Simulation time: 0 hr 49 min 19 sec) 
Heartbeat CPU 2 instructions: 230000003 cycles: 116135671 heartbeat IPC: 1.95721 cumulative IPC: 0.258319 (Simulation time: 0 hr 50 min 11 sec) 
Heartbeat CPU 1 instructions: 200000000 cycles: 116873221 heartbeat IPC: 1.67511 cumulative IPC: 1.71126 (Simulation time: 0 hr 50 min 29 sec) 

Warmup complete CPU 0 instructions: 239517567 cycles: 116873222 (Simulation time: 0 hr 50 min 29 sec) 
Warmup complete CPU 1 instructions: 200000001 cycles: 116873222 (Simulation time: 0 hr 50 min 29 sec) 
Warmup complete CPU 2 instructions: 231443786 cycles: 116873221 (Simulation time: 0 hr 50 min 29 sec) 
Warmup complete CPU 3 instructions: 266383181 cycles: 116873221 (Simulation time: 0 hr 50 min 29 sec) 

Heartbeat CPU 0 instructions: 240000000 cycles: 117350276 heartbeat IPC: 1.95265 cumulative IPC: 1.01128 (Simulation time: 0 hr 50 min 35 sec) 
Heartbeat CPU 3 instructions: 270000003 cycles: 120807621 heartbeat IPC: 1.48482 cumulative IPC: 0.919282 (Simulation time: 0 hr 51 min 20 sec) 
Heartbeat CPU 0 instructions: 250000003 cycles: 127175782 heartbeat IPC: 1.01776 cumulative IPC: 1.01746 (Simulation time: 0 hr 52 min 43 sec) 
Heartbeat CPU 2 instructions: 240000000 cycles: 131532044 heartbeat IPC: 0.649503 cumulative IPC: 0.58369 (Simulation time: 0 hr 53 min 40 sec) 
Heartbeat CPU 1 instructions: 210000000 cycles: 131645806 heartbeat IPC: 0.67693 cumulative IPC: 0.67693 (Simulation time: 0 hr 53 min 41 sec) 
Heartbeat CPU 3 instructions: 280000000 cycles: 131661030 heartbeat IPC: 0.921369 cumulative IPC: 0.920814 (Simulation time: 0 hr 53 min 42 sec) 
Heartbeat CPU 0 instructions: 260000000 cycles: 136994940 heartbeat IPC: 1.01842 cumulative IPC: 1.01793 (Simulation time: 0 hr 54 min 52 sec) 
Heartbeat CPU 3 instructions: 290000001 cycles: 142454575 heartbeat IPC: 0.92648 cumulative IPC: 0.923204 (Simulation time: 0 hr 56 min 3 sec) 
Heartbeat CPU 1 instructions: 220000000 cycles: 146346629 heartbeat IPC: 0.680234 cumulative IPC: 0.678578 (Simulation time: 0 hr 56 min 54 sec) 
Heartbeat CPU 0 instructions: 270000000 cycles: 146829599 heartbeat IPC: 1.01681 cumulative IPC: 1.01756 (Simulation time: 0 hr 57 min 0 sec) 
Heartbeat CPU 2 instructions: 250000001 cycles: 148684616 heartbeat IPC: 0.583003 cumulative IPC: 0.58332 (Simulation time: 0 hr 57 min 25 sec) 
Heartbeat CPU 3 instructions: 300000000 cycles: 153296856 heartbeat IPC: 0.922315 cumulative IPC: 0.92294 (Simulation time: 0 hr 58 min 25 sec) 
Heartbeat CPU 0 instructions: 280000000 cycles: 156649079 heartbeat IPC: 1.01838 cumulative IPC: 1.01776 (Simulation time: 0 hr 59 min 9 sec) 
Heartbeat CPU 1 instructions: 230000000 cycles: 161239560 heartbeat IPC: 0.671459 cumulative IPC: 0.676188 (Simulation time: 1 hr 0 min 20 sec) 
Heartbeat CPU 3 instructions: 310000000 cycles: 164083538 heartbeat IPC: 0.927069 cumulative IPC: 0.923883 (Simulation time: 1 hr 1 min 5 sec) 
Heartbeat CPU 2 instructions: 260000000 cycles: 165829047 heartbeat IPC: 0.58328 cumulative IPC: 0.583306 (Simulation time: 1 hr 1 min 31 sec) 
Heartbeat CPU 0 instructions: 290000002 cycles: 166471662 heartbeat IPC: 1.01806 cumulative IPC: 1.01782 (Simulation time: 1 hr 1 min 41 sec) 
Heartbeat CPU 3 instructions: 320000000 cycles: 174872779 heartbeat IPC: 0.926849 cumulative IPC: 0.924435 (Simulation time: 1 hr 4 min 3 sec) 
Heartbeat CPU 1 instructions: 240000000 cycles: 175737385 heartbeat IPC: 0.689759 cumulative IPC: 0.679531 (Simulation time: 1 hr 4 min 19 sec) 
Heartbeat CPU 0 instructions: 300000000 cycles: 176314044 heartbeat IPC: 1.01601 cumulative IPC: 1.01752 (Simulation time: 1 hr 4 min 29 sec) 
Heartbeat CPU 2 instructions: 270000002 cycles: 179866892 heartbeat IPC: 0.71236 cumulative IPC: 0.612065 (Simulation time: 1 hr 5 min 31 sec) 
Heartbeat CPU 3 instructions: 330000001 cycles: 185772940 heartbeat IPC: 0.917418 cumulative IPC: 0.923325 (Simulation time: 1 hr 7 min 7 sec) 
Heartbeat CPU 0 instructions: 310000002 cycles: 186601778 heartbeat IPC: 0.972032 cumulative IPC: 1.01081 (Simulation time: 1 hr 7 min 19 sec) 
Heartbeat CPU 1 instructions: 250000002 cycles: 187079225 heartbeat IPC: 0.881691 cumulative IPC: 0.71219 (Simulation time: 1 hr 7 min 26 sec) 
Heartbeat CPU 2 instructions: 280000000 cycles: 194780799 heartbeat IPC: 0.670515 cumulative IPC: 0.623254 (Simulation time: 1 hr 9 min 20 sec) 
Heartbeat CPU 0 instructions: 320000000 cycles: 196547860 heartbeat IPC: 1.00542 cumulative IPC: 1.01014 (Simulation time: 1 hr 9 min 47 sec) 
Heartbeat CPU 3 instructions: 340000000 cycles: 196715590 heartbeat IPC: 0.913855 cumulative IPC: 0.922027 (Simulation time: 1 hr 9 min 49 sec) 
Heartbeat CPU 1 instructions: 260000000 cycles: 201507303 heartbeat IPC: 0.693093 cumulative IPC: 0.708934 (Simulation time: 1 hr 10 min 58 sec) 
Heartbeat CPU 0 instructions: 330000001 cycles: 206370359 heartbeat IPC: 1.01807 cumulative IPC: 1.01101 (Simulation time: 1 hr 12 min 13 sec) 
Heartbeat CPU 3 instructions: 350000001 cycles: 207536148 heartbeat IPC: 0.924167 cumulative IPC: 0.922282 (Simulation time: 1 hr 12 min 31 sec) 
Heartbeat CPU 2 instructions: 290000000 cycles: 211947158 heartbeat IPC: 0.582535 cumulative IPC: 0.615902 (Simulation time: 1 hr 13 min 33 sec) 
Heartbeat CPU 1 instructions: 270000000 cycles: 215266161 heartbeat IPC: 0.726804 cumulative IPC: 0.711433 (Simulation time: 1 hr 14 min 27 sec) 
Heartbeat CPU 0 instructions: 340000000 cycles: 216203035 heartbeat IPC: 1.01702 cumulative IPC: 1.0116 (Simulation time: 1 hr 14 min 42 sec) 
Heartbeat CPU 3 instructions: 360000000 cycles: 218356484 heartbeat IPC: 0.924186 cumulative IPC: 0.922485 (Simulation time: 1 hr 15 min 15 sec) 
Heartbeat CPU 0 instructions: 350000002 cycles: 226024839 heartbeat IPC: 1.01814 cumulative IPC: 1.01219 (Simulation time: 1 hr 17 min 5 sec) 
Heartbeat CPU 1 instructions: 280000000 cycles: 228273902 heartbeat IPC: 0.768773 cumulative IPC: 0.718128 (Simulation time: 1 hr 17 min 37 sec) 
Heartbeat CPU 2 instructions: 300000000 cycles: 229075167 heartbeat IPC: 0.583839 cumulative IPC: 0.611007 (Simulation time: 1 hr 17 min 49 sec) 
Heartbeat CPU 3 instructions: 370000000 cycles: 229115030 heartbeat IPC: 0.929494 cumulative IPC: 0.923157 (Simulation time: 1 hr 17 min 50 sec) 
Heartbeat CPU 0 instructions: 360000000 cycles: 235851109 heartbeat IPC: 1.01768 cumulative IPC: 1.01265 (Simulation time: 1 hr 19 min 23 sec) 
Heartbeat CPU 3 instructions: 380000000 cycles: 239994983 heartbeat IPC: 0.919122 cumulative IPC: 0.9228 (Simulation time: 1 hr 20 min 26 sec) 
Heartbeat CPU 1 instructions: 290000000 cycles: 242692619 heartbeat IPC: 0.693543 cumulative IPC: 0.715311 (Simulation time: 1 hr 21 min 9 sec) 
Heartbeat CPU 0 instructions: 370000001 cycles: 245672444 heartbeat IPC: 1.01819 cumulative IPC: 1.01307 (Simulation time: 1 hr 21 min 53 sec) 
Heartbeat CPU 2 instructions: 310000000 cycles: 246243861 heartbeat IPC: 0.582455 cumulative IPC: 0.607218 (Simulation time: 1 hr 22 min 1 sec) 
Heartbeat CPU 3 instructions: 390000002 cycles: 250822366 heartbeat IPC: 0.923584 cumulative IPC: 0.922864 (Simulation time: 1 hr 23 min 10 sec) 
Heartbeat CPU 0 instructions: 380000000 cycles: 255493688 heartbeat IPC: 1.0182 cumulative IPC: 1.01343 (Simulation time: 1 hr 24 min 15 sec) 
Heartbeat CPU 1 instructions: 300000000 cycles: 257842160 heartbeat IPC: 0.660086 cumulative IPC: 0.709376 (Simulation time: 1 hr 24 min 45 sec) 
Heartbeat CPU 3 instructions: 400000000 cycles: 261639779 heartbeat IPC: 0.924435 cumulative IPC: 0.922981 (Simulation time: 1 hr 25 min 42 sec) 
Heartbeat CPU 2 instructions: 320000000 cycles: 263370949 heartbeat IPC: 0.58387 cumulative IPC: 0.604489 (Simulation time: 1 hr 26 min 7 sec) 
Heartbeat CPU 0 instructions: 390000001 cycles: 265308348 heartbeat IPC: 1.01888 cumulative IPC: 1.01379 (Simulation time: 1 hr 26 min 34 sec) 
Heartbeat CPU 3 instructions: 410000001 cycles: 272452311 heartbeat IPC: 0.924853 cumulative IPC: 0.923111 (Simulation time: 1 hr 28 min 23 sec) 
Heartbeat CPU 1 instructions: 310000001 cycles: 272473756 heartbeat IPC: 0.683452 cumulative IPC: 0.706938 (Simulation time: 1 hr 28 min 24 sec) 
Heartbeat CPU 0 instructions: 400000000 cycles: 275147324 heartbeat IPC: 1.01637 cumulative IPC: 1.01395 (Simulation time: 1 hr 29 min 0 sec) 
Heartbeat CPU 2 instructions: 330000001 cycles: 280538265 heartbeat IPC: 0.582502 cumulative IPC: 0.602182 (Simulation time: 1 hr 30 min 22 sec) 
Heartbeat CPU 3 instructions: 420000000 cycles: 283248898 heartbeat IPC: 0.926219 cumulative IPC: 0.923313 (Simulation time: 1 hr 31 min 2 sec) 
Heartbeat CPU 0 instructions: 410000000 cycles: 284966420 heartbeat IPC: 1.01842 cumulative IPC: 1.01421 (Simulation time: 1 hr 31 min 30 sec) 
Heartbeat CPU 1 instructions: 320000000 cycles: 286311138 heartbeat IPC: 0.72268 cumulative IPC: 0.708224 (Simulation time: 1 hr 31 min 53 sec) 
Heartbeat CPU 3 instructions: 430000003 cycles: 294070359 heartbeat IPC: 0.92409 cumulative IPC: 0.92336 (Simulation time: 1 hr 33 min 57 sec) 
Heartbeat CPU 0 instructions: 420000000 cycles: 294782382 heartbeat IPC: 1.01875 cumulative IPC: 1.01446 (Simulation time: 1 hr 34 min 9 sec) 
Heartbeat CPU 2 instructions: 340000000 cycles: 296714503 heartbeat IPC: 0.618191 cumulative IPC: 0.603622 (Simulation time: 1 hr 34 min 40 sec) 
Heartbeat CPU 1 instructions: 330000002 cycles: 298141550 heartbeat IPC: 0.845279 cumulative IPC: 0.717169 (Simulation time: 1 hr 35 min 5 sec) 
Heartbeat CPU 3 instructions: 440000000 cycles: 304923552 heartbeat IPC: 0.921388 cumulative IPC: 0.923247 (Simulation time: 1 hr 36 min 55 sec) 
Heartbeat CPU 0 instructions: 430000000 cycles: 304976606 heartbeat IPC: 0.980948 cumulative IPC: 1.01265 (Simulation time: 1 hr 36 min 55 sec) 
Heartbeat CPU 2 instructions: 350000003 cycles: 308963700 heartbeat IPC: 0.81638 cumulative IPC: 0.617189 (Simulation time: 1 hr 37 min 57 sec) 
Heartbeat CPU 1 instructions: 340000000 cycles: 310859924 heartbeat IPC: 0.786264 cumulative IPC: 0.721699 (Simulation time: 1 hr 38 min 25 sec) 
Heartbeat CPU 0 instructions: 440000000 cycles: 315031174 heartbeat IPC: 0.994573 cumulative IPC: 1.01173 (Simulation time: 1 hr 39 min 29 sec) 
Heartbeat CPU 3 instructions: 450000001 cycles: 315848259 heartbeat IPC: 0.915356 cumulative IPC: 0.922813 (Simulation time: 1 hr 39 min 41 sec) 
Heartbeat CPU 1 instructions: 350000003 cycles: 323405041 heartbeat IPC: 0.797123 cumulative IPC: 0.72628 (Simulation time: 1 hr 41 min 34 sec) 
Heartbeat CPU 0 instructions: 450000001 cycles: 324899337 heartbeat IPC: 1.01336 cumulative IPC: 1.01181 (Simulation time: 1 hr 41 min 57 sec) 
Heartbeat CPU 3 instructions: 460000000 cycles: 326724102 heartbeat IPC: 0.919469 cumulative IPC: 0.92264 (Simulation time: 1 hr 42 min 21 sec) 
Heartbeat CPU 2 instructions: 360000000 cycles: 329977113 heartbeat IPC: 0.475886 cumulative IPC: 0.603256 (Simulation time: 1 hr 43 min 4 sec) 
Heartbeat CPU 0 instructions: 460000000 cycles: 334722497 heartbeat IPC: 1.018 cumulative IPC: 1.01209 (Simulation time: 1 hr 44 min 6 sec) 
Heartbeat CPU 3 instructions: 470000001 cycles: 337519985 heartbeat IPC: 0.926279 cumulative IPC: 0.922818 (Simulation time: 1 hr 44 min 41 sec) 
Heartbeat CPU 1 instructions: 360000000 cycles: 337848752 heartbeat IPC: 0.692343 cumulative IPC: 0.724062 (Simulation time: 1 hr 44 min 45 sec) 
Heartbeat CPU 0 instructions: 470000001 cycles: 344651628 heartbeat IPC: 1.00714 cumulative IPC: 1.01187 (Simulation time: 1 hr 46 min 10 sec) 
Heartbeat CPU 3 instructions: 480000000 cycles: 348676402 heartbeat IPC: 0.896345 cumulative IPC: 0.921544 (Simulation time: 1 hr 47 min 3 sec) 
Heartbeat CPU 1 instructions: 370000002 cycles: 350745687 heartbeat IPC: 0.775378 cumulative IPC: 0.726892 (Simulation time: 1 hr 47 min 30 sec) 
Heartbeat CPU 2 instructions: 370000002 cycles: 351004330 heartbeat IPC: 0.475574 cumulative IPC: 0.591789 (Simulation time: 1 hr 47 min 33 sec) 
Heartbeat CPU 0 instructions: 480000000 cycles: 354876443 heartbeat IPC: 0.978013 cumulative IPC: 1.01042 (Simulation time: 1 hr 48 min 32 sec) 
Heartbeat CPU 3 instructions: 490000000 cycles: 359913259 heartbeat IPC: 0.889929 cumulative IPC: 0.920082 (Simulation time: 1 hr 49 min 50 sec) 
Heartbeat CPU 1 instructions: 380000000 cycles: 364477720 heartbeat IPC: 0.728224 cumulative IPC: 0.726966 (Simulation time: 1 hr 50 min 46 sec) 
Heartbeat CPU 0 instructions: 490000000 cycles: 364877074 heartbeat IPC: 0.999937 cumulative IPC: 1.00999 (Simulation time: 1 hr 50 min 51 sec) 
Heartbeat CPU 2 instructions: 380000000 cycles: 372086856 heartbeat IPC: 0.474326 cumulative IPC: 0.582086 (Simulation time: 1 hr 52 min 14 sec) 
Heartbeat CPU 3 instructions: 500000000 cycles: 373244547 heartbeat IPC: 0.750115 cumulative IPC: 0.911244 (Simulation time: 1 hr 52 min 28 sec) 
Heartbeat CPU 0 instructions: 500000000 cycles: 374774339 heartbeat IPC: 1.01038 cumulative IPC: 1.01001 (Simulation time: 1 hr 52 min 45 sec) 
Heartbeat CPU 1 instructions: 390000003 cycles: 379394035 heartbeat IPC: 0.670407 cumulative IPC: 0.723752 (Simulation time: 1 hr 53 min 39 sec) 
Heartbeat CPU 0 instructions: 510000003 cycles: 384628435 heartbeat IPC: 1.01481 cumulative IPC: 1.01019 (Simulation time: 1 hr 54 min 40 sec) 
Heartbeat CPU 3 instructions: 510000001 cycles: 386597380 heartbeat IPC: 0.748905 cumulative IPC: 0.903207 (Simulation time: 1 hr 55 min 3 sec) 
Heartbeat CPU 2 instructions: 390000001 cycles: 390142055 heartbeat IPC: 0.553857 cumulative IPC: 0.580221 (Simulation time: 1 hr 55 min 48 sec) 
Heartbeat CPU 1 instructions: 400000000 cycles: 394197031 heartbeat IPC: 0.675539 cumulative IPC: 0.721179 (Simulation time: 1 hr 56 min 39 sec) 
Heartbeat CPU 0 instructions: 520000000 cycles: 394748714 heartbeat IPC: 0.988115 cumulative IPC: 1.00938 (Simulation time: 1 hr 56 min 46 sec) 
Heartbeat CPU 3 instructions: 520000000 cycles: 400182582 heartbeat IPC: 0.736095 cumulative IPC: 0.895194 (Simulation time: 1 hr 57 min 58 sec) 
Heartbeat CPU 2 instructions: 400000000 cycles: 402629359 heartbeat IPC: 0.800813 cumulative IPC: 0.58986 (Simulation time: 1 hr 58 min 28 sec) 
Heartbeat CPU 0 instructions: 530000003 cycles: 404811354 heartbeat IPC: 0.993775 cumulative IPC: 1.00884 (Simulation time: 1 hr 58 min 54 sec) 
Heartbeat CPU 1 instructions: 410000000 cycles: 408034863 heartbeat IPC: 0.722657 cumulative IPC: 0.721249 (Simulation time: 1 hr 59 min 33 sec) 
Heartbeat CPU 3 instructions: 530000001 cycles: 414078711 heartbeat IPC: 0.719625 cumulative IPC: 0.886985 (Simulation time: 2 hr 0 min 47 sec) 
Heartbeat CPU 0 instructions: 540000000 cycles: 414708908 heartbeat IPC: 1.01035 cumulative IPC: 1.00889 (Simulation time: 2 hr 0 min 55 sec) 
Heartbeat CPU 2 instructions: 410000000 cycles: 417439951 heartbeat IPC: 0.675192 cumulative IPC: 0.594065 (Simulation time: 2 hr 1 min 30 sec) 
Heartbeat CPU 1 instructions: 420000000 cycles: 421264860 heartbeat IPC: 0.755858 cumulative IPC: 0.722753 (Simulation time: 2 hr 2 min 16 sec) 
Heartbeat CPU 0 instructions: 550000000 cycles: 424596581 heartbeat IPC: 1.01136 cumulative IPC: 1.00897 (Simulation time: 2 hr 2 min 57 sec) 
Heartbeat CPU 3 instructions: 540000000 cycles: 426349591 heartbeat IPC: 0.814937 cumulative IPC: 0.884128 (Simulation time: 2 hr 3 min 22 sec) 
Heartbeat CPU 2 instructions: 420000000 cycles: 432260494 heartbeat IPC: 0.674739 cumulative IPC: 0.597856 (Simulation time: 2 hr 4 min 52 sec) 
Heartbeat CPU 3 instructions: 550000002 cycles: 432719945 heartbeat IPC: 1.56977 cumulative IPC: 0.897957 (Simulation time: 2 hr 4 min 59 sec) 
Heartbeat CPU 1 instructions: 430000001 cycles: 433398619 heartbeat IPC: 0.824147 cumulative IPC: 0.72664 (Simulation time: 2 hr 5 min 9 sec) 
Heartbeat CPU 0 instructions: 560000000 cycles: 434474269 heartbeat IPC: 1.01238 cumulative IPC: 1.00907 (Simulation time: 2 hr 5 min 25 sec) 
Heartbeat CPU 3 instructions: 560000000 cycles: 439086705 heartbeat IPC: 1.57066 cumulative IPC: 0.911249 (Simulation time: 2 hr 6 min 33 sec) 
Heartbeat CPU 0 instructions: 570000003 cycles: 444321844 heartbeat IPC: 1.01548 cumulative IPC: 1.00927 (Simulation time: 2 hr 7 min 47 sec) 
Heartbeat CPU 2 instructions: 430000000 cycles: 445394837 heartbeat IPC: 0.761363 cumulative IPC: 0.604393 (Simulation time: 2 hr 8 min 2 sec) 
Heartbeat CPU 3 instructions: 570000003 cycles: 445469691 heartbeat IPC: 1.56667 cumulative IPC: 0.923981 (Simulation time: 2 hr 8 min 3 sec) 
Heartbeat CPU 1 instructions: 440000000 cycles: 447368111 heartbeat IPC: 0.715846 cumulative IPC: 0.726184 (Simulation time: 2 hr 8 min 32 sec) 
Heartbeat CPU 3 instructions: 580000000 cycles: 451832857 heartbeat IPC: 1.57154 cumulative IPC: 0.936282 (Simulation time: 2 hr 9 min 41 sec) 
Heartbeat CPU 0 instructions: 580000000 cycles: 454166694 heartbeat IPC: 1.01576 cumulative IPC: 1.00945 (Simulation time: 2 hr 10 min 18 sec) 
Heartbeat CPU 3 instructions: 590000000 cycles: 458192663 heartbeat IPC: 1.57238 cumulative IPC: 0.948135 (Simulation time: 2 hr 11 min 20 sec) 
Heartbeat CPU 2 instructions: 440000000 cycles: 458336289 heartbeat IPC: 0.772711 cumulative IPC: 0.610772 (Simulation time: 2 hr 11 min 22 sec) 
Heartbeat CPU 1 instructions: 450000001 cycles: 459201931 heartbeat IPC: 0.845036 cumulative IPC: 0.730292 (Simulation time: 2 hr 11 min 36 sec) 
Heartbeat CPU 0 instructions: 590000003 cycles: 464055615 heartbeat IPC: 1.01123 cumulative IPC: 1.00951 (Simulation time: 2 hr 12 min 45 sec) 
Heartbeat CPU 3 instructions: 600000000 cycles: 465550789 heartbeat IPC: 1.35904 cumulative IPC: 0.956806 (Simulation time: 2 hr 13 min 5 sec) 
Heartbeat CPU 2 instructions: 450000001 cycles: 471472936 heartbeat IPC: 0.761229 cumulative IPC: 0.616346 (Simulation time: 2 hr 14 min 33 sec) 
Heartbeat CPU 3 instructions: 610000002 cycles: 472007265 heartbeat IPC: 1.54883 cumulative IPC: 0.967569 (Simulation time: 2 hr 14 min 41 sec) 
Heartbeat CPU 1 instructions: 460000000 cycles: 473210334 heartbeat IPC: 0.713857 cumulative IPC: 0.729646 (Simulation time: 2 hr 14 min 59 sec) 
Heartbeat CPU 0 instructions: 600000000 cycles: 473968198 heartbeat IPC: 1.00882 cumulative IPC: 1.00949 (Simulation time: 2 hr 15 min 11 sec) 
Heartbeat CPU 3 instructions: 620000000 cycles: 478443751 heartbeat IPC: 1.55364 cumulative IPC: 0.978002 (Simulation time: 2 hr 16 min 17 sec) 
Heartbeat CPU 0 instructions: 610000002 cycles: 483867931 heartbeat IPC: 1.01013 cumulative IPC: 1.0095 (Simulation time: 2 hr 17 min 32 sec) 
Heartbeat CPU 2 instructions: 460000000 cycles: 484759482 heartbeat IPC: 0.752641 cumulative IPC: 0.621269 (Simulation time: 2 hr 17 min 44 sec) 
Heartbeat CPU 3 instructions: 630000003 cycles: 484893890 heartbeat IPC: 1.55035 cumulative IPC: 0.988034 (Simulation time: 2 hr 17 min 46 sec) 
Heartbeat CPU 3 instructions: 640000000 cycles: 491362937 heartbeat IPC: 1.54582 cumulative IPC: 0.997669 (Simulation time: 2 hr 19 min 13 sec) 
Heartbeat CPU 1 instructions: 470000000 cycles: 492118359 heartbeat IPC: 0.528876 cumulative IPC: 0.71953 (Simulation time: 2 hr 19 min 24 sec) 
Heartbeat CPU 0 instructions: 620000000 cycles: 493769590 heartbeat IPC: 1.00993 cumulative IPC: 1.00951 (Simulation time: 2 hr 19 min 48 sec) 
Heartbeat CPU 2 instructions: 470000000 cycles: 498734598 heartbeat IPC: 0.715558 cumulative IPC: 0.624719 (Simulation time: 2 hr 20 min 43 sec) 
Heartbeat CPU 3 instructions: 650000003 cycles: 499701160 heartbeat IPC: 1.1993 cumulative IPC: 1.00206 (Simulation time: 2 hr 20 min 52 sec) 
Heartbeat CPU 0 instructions: 630000000 cycles: 507771608 heartbeat IPC: 0.714183 cumulative IPC: 0.998936 (Simulation time: 2 hr 22 min 19 sec) 
Heartbeat CPU 1 instructions: 480000000 cycles: 511413907 heartbeat IPC: 0.518254 cumulative IPC: 0.709686 (Simulation time: 2 hr 22 min 58 sec) 
Heartbeat CPU 2 instructions: 480000000 cycles: 512182028 heartbeat IPC: 0.743636 cumulative IPC: 0.628765 (Simulation time: 2 hr 23 min 7 sec) 
Heartbeat CPU 3 instructions: 660000000 cycles: 512255936 heartbeat IPC: 0.796509 cumulative IPC: 0.995534 (Simulation time: 2 hr 23 min 8 sec) 
Heartbeat CPU 0 instructions: 640000000 cycles: 523328019 heartbeat IPC: 0.642822 cumulative IPC: 0.985306 (Simulation time: 2 hr 25 min 17 sec) 
Heartbeat CPU 1 instructions: 490000000 cycles: 524289059 heartbeat IPC: 0.77669 cumulative IPC: 0.711803 (Simulation time: 2 hr 25 min 29 sec) 
Heartbeat CPU 3 instructions: 670000002 cycles: 524813970 heartbeat IPC: 0.796303 cumulative IPC: 0.989401 (Simulation time: 2 hr 25 min 36 sec) 
Heartbeat CPU 2 instructions: 490000003 cycles: 524924073 heartbeat IPC: 0.784804 cumulative IPC: 0.633637 (Simulation time: 2 hr 25 min 37 sec) 
Heartbeat CPU 3 instructions: 680000000 cycles: 535796938 heartbeat IPC: 0.910501 cumulative IPC: 0.987332 (Simulation time: 2 hr 27 min 53 sec) 
Heartbeat CPU 2 instructions: 500000000 cycles: 537653928 heartbeat IPC: 0.785555 cumulative IPC: 0.638233 (Simulation time: 2 hr 28 min 16 sec) 
Heartbeat CPU 0 instructions: 650000002 cycles: 538984131 heartbeat IPC: 0.638728 cumulative IPC: 0.972452 (Simulation time: 2 hr 28 min 33 sec) 
Heartbeat CPU 1 instructions: 500000000 cycles: 539708082 heartbeat IPC: 0.648549 cumulative IPC: 0.709497 (Simulation time: 2 hr 28 min 43 sec) 
Heartbeat CPU 3 instructions: 690000001 cycles: 546615933 heartbeat IPC: 0.9243 cumulative IPC: 0.985745 (Simulation time: 2 hr 30 min 15 sec) 
Heartbeat CPU 2 instructions: 510000000 cycles: 550581247 heartbeat IPC: 0.773556 cumulative IPC: 0.642267 (Simulation time: 2 hr 31 min 5 sec) 
Heartbeat CPU 0 instructions: 660000000 cycles: 554576512 heartbeat IPC: 0.641339 cumulative IPC: 0.960656 (Simulation time: 2 hr 31 min 50 sec) 
Heartbeat CPU 1 instructions: 510000001 cycles: 557368380 heartbeat IPC: 0.566242 cumulative IPC: 0.703753 (Simulation time: 2 hr 32 min 20 sec) 
Heartbeat CPU 3 instructions: 700000000 cycles: 557491295 heartbeat IPC: 0.91951 cumulative IPC: 0.98411 (Simulation time: 2 hr 32 min 21 sec) 
Heartbeat CPU 2 instructions: 520000000 cycles: 563485410 heartbeat IPC: 0.774944 cumulative IPC: 0.6461 (Simulation time: 2 hr 33 min 27 sec) 
Heartbeat CPU 3 instructions: 710000000 cycles: 568488005 heartbeat IPC: 0.909363 cumulative IPC: 0.98229 (Simulation time: 2 hr 34 min 22 sec) 
Heartbeat CPU 0 instructions: 670000001 cycles: 570233977 heartbeat IPC: 0.638673 cumulative IPC: 0.949536 (Simulation time: 2 hr 34 min 42 sec) 
Heartbeat CPU 2 instructions: 530000000 cycles: 576124555 heartbeat IPC: 0.791193 cumulative IPC: 0.650093 (Simulation time: 2 hr 35 min 49 sec) 
Heartbeat CPU 3 instructions: 720000000 cycles: 579452237 heartbeat IPC: 0.912057 cumulative IPC: 0.980626 (Simulation time: 2 hr 36 min 26 sec) 
Heartbeat CPU 1 instructions: 520000000 cycles: 581916381 heartbeat IPC: 0.407365 cumulative IPC: 0.688108 (Simulation time: 2 hr 36 min 54 sec) 
Heartbeat CPU 0 instructions: 680000000 cycles: 585922237 heartbeat IPC: 0.637419 cumulative IPC: 0.939097 (Simulation time: 2 hr 37 min 39 sec) 
Heartbeat CPU 2 instructions: 540000000 cycles: 588588934 heartbeat IPC: 0.802286 cumulative IPC: 0.654115 (Simulation time: 2 hr 38 min 10 sec) 
Heartbeat CPU 3 instructions: 730000003 cycles: 590427500 heartbeat IPC: 0.91114 cumulative IPC: 0.979015 (Simulation time: 2 hr 38 min 31 sec) 
Heartbeat CPU 2 instructions: 550000002 cycles: 601347116 heartbeat IPC: 0.783811 cumulative IPC: 0.65753 (Simulation time: 2 hr 40 min 35 sec) 
Heartbeat CPU 0 instructions: 690000001 cycles: 601383366 heartbeat IPC: 0.646783 cumulative IPC: 0.929769 (Simulation time: 2 hr 40 min 35 sec) 
Heartbeat CPU 3 instructions: 740000000 cycles: 601387481 heartbeat IPC: 0.91241 cumulative IPC: 0.977509 (Simulation time: 2 hr 40 min 35 sec) 
Heartbeat CPU 1 instructions: 530000001 cycles: 605333542 heartbeat IPC: 0.427037 cumulative IPC: 0.675592 (Simulation time: 2 hr 41 min 20 sec) 
Heartbeat CPU 3 instructions: 750000003 cycles: 612356906 heartbeat IPC: 0.911625 cumulative IPC: 0.97605 (Simulation time: 2 hr 42 min 41 sec) 
Heartbeat CPU 2 instructions: 560000000 cycles: 614151309 heartbeat IPC: 0.780994 cumulative IPC: 0.660709 (Simulation time: 2 hr 43 min 1 sec) 
Heartbeat CPU 0 instructions: 700000000 cycles: 617046056 heartbeat IPC: 0.63846 cumulative IPC: 0.920647 (Simulation time: 2 hr 43 min 33 sec) 
Heartbeat CPU 3 instructions: 760000000 cycles: 623298335 heartbeat IPC: 0.913957 cumulative IPC: 0.974708 (Simulation time: 2 hr 44 min 42 sec) 
Heartbeat CPU 2 instructions: 570000000 cycles: 626922643 heartbeat IPC: 0.783004 cumulative IPC: 0.663771 (Simulation time: 2 hr 45 min 22 sec) 
Heartbeat CPU 1 instructions: 540000000 cycles: 628044027 heartbeat IPC: 0.440325 cumulative IPC: 0.66514 (Simulation time: 2 hr 45 min 35 sec) 
Heartbeat CPU 0 instructions: 710000001 cycles: 632621999 heartbeat IPC: 0.642016 cumulative IPC: 0.912232 (Simulation time: 2 hr 46 min 24 sec) 
Heartbeat CPU 3 instructions: 770000000 cycles: 634208801 heartbeat IPC: 0.916551 cumulative IPC: 0.973482 (Simulation time: 2 hr 46 min 42 sec) 
Heartbeat CPU 2 instructions: 580000000 cycles: 639559578 heartbeat IPC: 0.791331 cumulative IPC: 0.666855 (Simulation time: 2 hr 47 min 41 sec) 
Heartbeat CPU 3 instructions: 780000000 cycles: 645047223 heartbeat IPC: 0.922644 cumulative IPC: 0.972439 (Simulation time: 2 hr 48 min 42 sec) 
Heartbeat CPU 0 instructions: 720000000 cycles: 648268290 heartbeat IPC: 0.639129 cumulative IPC: 0.904191 (Simulation time: 2 hr 49 min 18 sec) 
Heartbeat CPU 2 instructions: 590000002 cycles: 652283007 heartbeat IPC: 0.785952 cumulative IPC: 0.669686 (Simulation time: 2 hr 50 min 3 sec) 
Heartbeat CPU 1 instructions: 550000002 cycles: 652925433 heartbeat IPC: 0.401907 cumulative IPC: 0.652921 (Simulation time: 2 hr 50 min 11 sec) 
Heartbeat CPU 3 instructions: 790000002 cycles: 655897729 heartbeat IPC: 0.921616 cumulative IPC: 0.971416 (Simulation time: 2 hr 50 min 46 sec) 
Heartbeat CPU 0 instructions: 730000000 cycles: 663732233 heartbeat IPC: 0.646666 cumulative IPC: 0.896908 (Simulation time: 2 hr 52 min 22 sec) 
Heartbeat CPU 2 instructions: 600000000 cycles: 665114434 heartbeat IPC: 0.779336 cumulative IPC: 0.672252 (Simulation time: 2 hr 52 min 39 sec) 
Heartbeat CPU 3 instructions: 800000000 cycles: 666719661 heartbeat IPC: 0.924049 cumulative IPC: 0.970483 (Simulation time: 2 hr 52 min 58 sec) 
Heartbeat CPU 1 instructions: 560000000 cycles: 667016991 heartbeat IPC: 0.709645 cumulative IPC: 0.654374 (Simulation time: 2 hr 53 min 2 sec) 
Heartbeat CPU 3 instructions: 810000002 cycles: 677544162 heartbeat IPC: 0.92383 cumulative IPC: 0.969583 (Simulation time: 2 hr 55 min 8 sec) 
Heartbeat CPU 2 instructions: 610000002 cycles: 678901417 heartbeat IPC: 0.725322 cumulative IPC: 0.673554 (Simulation time: 2 hr 55 min 24 sec) 
Heartbeat CPU 0 instructions: 740000000 cycles: 679373105 heartbeat IPC: 0.639351 cumulative IPC: 0.889747 (Simulation time: 2 hr 55 min 30 sec) 
Heartbeat CPU 1 instructions: 570000000 cycles: 680310716 heartbeat IPC: 0.752235 cumulative IPC: 0.656683 (Simulation time: 2 hr 55 min 41 sec) 
Heartbeat CPU 3 instructions: 820000000 cycles: 688341456 heartbeat IPC: 0.926158 cumulative IPC: 0.968762 (Simulation time: 2 hr 57 min 15 sec) 
Heartbeat CPU 2 instructions: 620000000 cycles: 692803590 heartbeat IPC: 0.719312 cumulative IPC: 0.674658 (Simulation time: 2 hr 58 min 7 sec) 
Heartbeat CPU 0 instructions: 750000000 cycles: 695031292 heartbeat IPC: 0.638644 cumulative IPC: 0.882946 (Simulation time: 2 hr 58 min 33 sec) 
Heartbeat CPU 1 instructions: 580000000 cycles: 695214422 heartbeat IPC: 0.670974 cumulative IPC: 0.657052 (Simulation time: 2 hr 58 min 35 sec) 
Heartbeat CPU 3 instructions: 830000002 cycles: 699177228 heartbeat IPC: 0.922869 cumulative IPC: 0.967908 (Simulation time: 2 hr 59 min 22 sec) 
Heartbeat CPU 2 instructions: 630000000 cycles: 706688348 heartbeat IPC: 0.720214 cumulative IPC: 0.675731 (Simulation time: 3 hr 0 min 49 sec) 
Heartbeat CPU 1 instructions: 590000002 cycles: 709865432 heartbeat IPC: 0.682547 cumulative IPC: 0.657681 (Simulation time: 3 hr 1 min 26 sec) 
Heartbeat CPU 3 instructions: 840000000 cycles: 710039132 heartbeat IPC: 0.920649 cumulative IPC: 0.967043 (Simulation time: 3 hr 1 min 28 sec) 
Heartbeat CPU 0 instructions: 760000000 cycles: 710623640 heartbeat IPC: 0.64134 cumulative IPC: 0.876601 (Simulation time: 3 hr 1 min 36 sec) 
Heartbeat CPU 2 instructions: 640000000 cycles: 720550260 heartbeat IPC: 0.721401 cumulative IPC: 0.676779 (Simulation time: 3 hr 3 min 27 sec) 
Heartbeat CPU 3 instructions: 850000003 cycles: 720870757 heartbeat IPC: 0.923223 cumulative IPC: 0.966257 (Simulation time: 3 hr 3 min 30 sec) 
Heartbeat CPU 0 instructions: 770000000 cycles: 726317046 heartbeat IPC: 0.63721 cumulative IPC: 0.870437 (Simulation time: 3 hr 4 min 31 sec) 
Heartbeat CPU 1 instructions: 600000000 cycles: 730047017 heartbeat IPC: 0.495501 cumulative IPC: 0.652344 (Simulation time: 3 hr 5 min 10 sec) 
Heartbeat CPU 3 instructions: 860000000 cycles: 731692879 heartbeat IPC: 0.924033 cumulative IPC: 0.965514 (Simulation time: 3 hr 5 min 27 sec) 
Heartbeat CPU 2 instructions: 650000000 cycles: 734067143 heartbeat IPC: 0.739816 cumulative IPC: 0.67816 (Simulation time: 3 hr 5 min 52 sec) 
Heartbeat CPU 0 instructions: 780000000 cycles: 741909266 heartbeat IPC: 0.641346 cumulative IPC: 0.864722 (Simulation time: 3 hr 7 min 20 sec) 
Heartbeat CPU 3 instructions: 870000002 cycles: 742522051 heartbeat IPC: 0.923432 cumulative IPC: 0.964785 (Simulation time: 3 hr 7 min 27 sec) 
Heartbeat CPU 2 instructions: 660000000 cycles: 747390083 heartbeat IPC: 0.750585 cumulative IPC: 0.67969 (Simulation time: 3 hr 8 min 21 sec) 
Heartbeat CPU 3 instructions: 880000000 cycles: 753361101 heartbeat IPC: 0.92259 cumulative IPC: 0.964067 (Simulation time: 3 hr 9 min 27 sec) 
Heartbeat CPU 1 instructions: 610000000 cycles: 754692092 heartbeat IPC: 0.405761 cumulative IPC: 0.642816 (Simulation time: 3 hr 9 min 43 sec) 
Heartbeat CPU 0 instructions: 790000002 cycles: 757583094 heartbeat IPC: 0.638006 cumulative IPC: 0.859176 (Simulation time: 3 hr 10 min 14 sec) 
Heartbeat CPU 2 instructions: 670000000 cycles: 760715294 heartbeat IPC: 0.750457 cumulative IPC: 0.681155 (Simulation time: 3 hr 10 min 48 sec) 
Heartbeat CPU 3 instructions: 890000002 cycles: 764241929 heartbeat IPC: 0.919048 cumulative IPC: 0.96331 (Simulation time: 3 hr 11 min 26 sec) 
Heartbeat CPU 0 instructions: 800000000 cycles: 773141884 heartbeat IPC: 0.642723 cumulative IPC: 0.854044 (Simulation time: 3 hr 13 min 2 sec) 
Heartbeat CPU 2 instructions: 680000000 cycles: 773917457 heartbeat IPC: 0.757452 cumulative IPC: 0.682688 (Simulation time: 3 hr 13 min 11 sec) 
Heartbeat CPU 3 instructions: 900000000 cycles: 775070670 heartbeat IPC: 0.923468 cumulative IPC: 0.962655 (Simulation time: 3 hr 13 min 24 sec) 
Heartbeat CPU 1 instructions: 620000000 cycles: 780008019 heartbeat IPC: 0.395008 cumulative IPC: 0.633355 (Simulation time: 3 hr 14 min 19 sec) 
Heartbeat CPU 3 instructions: 910000001 cycles: 785912107 heartbeat IPC: 0.922387 cumulative IPC: 0.962002 (Simulation time: 3 hr 15 min 23 sec) 
Heartbeat CPU 2 instructions: 690000002 cycles: 786885347 heartbeat IPC: 0.771136 cumulative IPC: 0.6844 (Simulation time: 3 hr 15 min 33 sec) 
Heartbeat CPU 0 instructions: 810000003 cycles: 788832566 heartbeat IPC: 0.637321 cumulative IPC: 0.848984 (Simulation time: 3 hr 15 min 56 sec) 
Heartbeat CPU 3 instructions: 920000000 cycles: 796795203 heartbeat IPC: 0.918856 cumulative IPC: 0.961312 (Simulation time: 3 hr 17 min 30 sec) 
Heartbeat CPU 1 instructions: 630000001 cycles: 798477318 heartbeat IPC: 0.541439 cumulative IPC: 0.630865 (Simulation time: 3 hr 17 min 49 sec) 
Heartbeat CPU 2 instructions: 700000000 cycles: 800295091 heartbeat IPC: 0.745726 cumulative IPC: 0.685603 (Simulation time: 3 hr 18 min 10 sec) 
Heartbeat CPU 0 instructions: 820000000 cycles: 804507213 heartbeat IPC: 0.637973 cumulative IPC: 0.844174 (Simulation time: 3 hr 18 min 58 sec) 
Heartbeat CPU 3 instructions: 930000000 cycles: 807611374 heartbeat IPC: 0.924542 cumulative IPC: 0.960736 (Simulation time: 3 hr 19 min 33 sec) 
Heartbeat CPU 2 instructions: 710000001 cycles: 813639510 heartbeat IPC: 0.749377 cumulative IPC: 0.686825 (Simulation time: 3 hr 20 min 41 sec) 
Heartbeat CPU 3 instructions: 940000000 cycles: 818480197 heartbeat IPC: 0.920063 cumulative IPC: 0.960106 (Simulation time: 3 hr 21 min 37 sec) 
Heartbeat CPU 1 instructions: 640000000 cycles: 818785411 heartbeat IPC: 0.492414 cumulative IPC: 0.626859 (Simulation time: 3 hr 21 min 41 sec) 
Heartbeat CPU 0 instructions: 830000000 cycles: 820080759 heartbeat IPC: 0.642115 cumulative IPC: 0.839699 (Simulation time: 3 hr 21 min 55 sec) 
Heartbeat CPU 2 instructions: 720000000 cycles: 826248298 heartbeat IPC: 0.793098 cumulative IPC: 0.688714 (Simulation time: 3 hr 23 min 6 sec) 
Heartbeat CPU 3 instructions: 950000003 cycles: 829340350 heartbeat IPC: 0.920798 cumulative IPC: 0.959506 (Simulation time: 3 hr 23 min 41 sec) 
Heartbeat CPU 0 instructions: 840000000 cycles: 835737170 heartbeat IPC: 0.638716 cumulative IPC: 0.835321 (Simulation time: 3 hr 24 min 55 sec) 
Heartbeat CPU 2 instructions: 730000002 cycles: 838732723 heartbeat IPC: 0.800998 cumulative IPC: 0.690655 (Simulation time: 3 hr 25 min 29 sec) 
Heartbeat CPU 3 instructions: 960000000 cycles: 840174313 heartbeat IPC: 0.923023 cumulative IPC: 0.95896 (Simulation time: 3 hr 25 min 46 sec) 
Heartbeat CPU 1 instructions: 650000000 cycles: 844776951 heartbeat IPC: 0.384741 cumulative IPC: 0.618214 (Simulation time: 3 hr 26 min 40 sec) 
Heartbeat CPU 3 instructions: 970000002 cycles: 850975035 heartbeat IPC: 0.925864 cumulative IPC: 0.958473 (Simulation time: 3 hr 27 min 50 sec) 
Heartbeat CPU 0 instructions: 850000001 cycles: 851318390 heartbeat IPC: 0.641798 cumulative IPC: 0.831216 (Simulation time: 3 hr 27 min 54 sec) 
Heartbeat CPU 2 instructions: 740000000 cycles: 851521059 heartbeat IPC: 0.781962 cumulative IPC: 0.692245 (Simulation time: 3 hr 27 min 56 sec) 
Heartbeat CPU 3 instructions: 980000000 cycles: 861850522 heartbeat IPC: 0.919499 cumulative IPC: 0.957904 (Simulation time: 3 hr 29 min 59 sec) 
Heartbeat CPU 2 instructions: 750000003 cycles: 864349244 heartbeat IPC: 0.779534 cumulative IPC: 0.693743 (Simulation time: 3 hr 30 min 28 sec) 
Heartbeat CPU 0 instructions: 860000000 cycles: 867000914 heartbeat IPC: 0.637652 cumulative IPC: 0.827169 (Simulation time: 3 hr 31 min 0 sec) 
Heartbeat CPU 1 instructions: 660000000 cycles: 867392695 heartbeat IPC: 0.44217 cumulative IPC: 0.612909 (Simulation time: 3 hr 31 min 5 sec) 
Heartbeat CPU 3 instructions: 990000003 cycles: 872688484 heartbeat IPC: 0.922683 cumulative IPC: 0.957399 (Simulation time: 3 hr 32 min 11 sec) 
Heartbeat CPU 2 instructions: 760000000 cycles: 877066156 heartbeat IPC: 0.786354 cumulative IPC: 0.695292 (Simulation time: 3 hr 33 min 5 sec) 
Heartbeat CPU 0 instructions: 870000001 cycles: 882602520 heartbeat IPC: 0.64096 cumulative IPC: 0.823375 (Simulation time: 3 hr 34 min 13 sec) 
Heartbeat CPU 3 instructions: 1000000000 cycles: 883494559 heartbeat IPC: 0.925405 cumulative IPC: 0.956948 (Simulation time: 3 hr 34 min 25 sec) 
Heartbeat CPU 1 instructions: 670000000 cycles: 883885460 heartbeat IPC: 0.606326 cumulative IPC: 0.612767 (Simulation time: 3 hr 34 min 30 sec) 
Heartbeat CPU 2 instructions: 770000000 cycles: 889694083 heartbeat IPC: 0.791896 cumulative IPC: 0.696871 (Simulation time: 3 hr 35 min 38 sec) 
Heartbeat CPU 3 instructions: 1010000002 cycles: 894348461 heartbeat IPC: 0.921328 cumulative IPC: 0.956451 (Simulation time: 3 hr 36 min 32 sec) 
Heartbeat CPU 0 instructions: 880000000 cycles: 898262807 heartbeat IPC: 0.638558 cumulative IPC: 0.819671 (Simulation time: 3 hr 37 min 16 sec) 
Heartbeat CPU 2 instructions: 780000000 cycles: 902340533 heartbeat IPC: 0.790736 cumulative IPC: 0.698382 (Simulation time: 3 hr 38 min 3 sec) 
Heartbeat CPU 3 instructions: 1020000000 cycles: 905196091 heartbeat IPC: 0.92186 cumulative IPC: 0.955975 (Simulation time: 3 hr 38 min 35 sec) 
Heartbeat CPU 1 instructions: 680000000 cycles: 909970554 heartbeat IPC: 0.383361 cumulative IPC: 0.605222 (Simulation time: 3 hr 39 min 29 sec) 
Heartbeat CPU 0 instructions: 890000003 cycles: 913903838 heartbeat IPC: 0.639344 cumulative IPC: 0.816132 (Simulation time: 3 hr 40 min 15 sec) 
Heartbeat CPU 2 instructions: 790000001 cycles: 915203215 heartbeat IPC: 0.777443 cumulative IPC: 0.699656 (Simulation time: 3 hr 40 min 29 sec) 
Heartbeat CPU 3 instructions: 1030000001 cycles: 916077541 heartbeat IPC: 0.918995 cumulative IPC: 0.955471 (Simulation time: 3 hr 40 min 39 sec) 
Heartbeat CPU 3 instructions: 1040000000 cycles: 926958126 heartbeat IPC: 0.919068 cumulative IPC: 0.954982 (Simulation time: 3 hr 42 min 46 sec) 
Heartbeat CPU 2 instructions: 800000000 cycles: 928060051 heartbeat IPC: 0.777796 cumulative IPC: 0.700894 (Simulation time: 3 hr 42 min 59 sec) 
Heartbeat CPU 0 instructions: 900000000 cycles: 929508979 heartbeat IPC: 0.640814 cumulative IPC: 0.812766 (Simulation time: 3 hr 43 min 16 sec) 
Heartbeat CPU 1 instructions: 690000002 cycles: 933924705 heartbeat IPC: 0.417464 cumulative IPC: 0.599717 (Simulation time: 3 hr 44 min 8 sec) 
Heartbeat CPU 3 instructions: 1050000001 cycles: 937829696 heartbeat IPC: 0.91983 cumulative IPC: 0.954517 (Simulation time: 3 hr 44 min 58 sec) 
Heartbeat CPU 2 instructions: 810000001 cycles: 940660353 heartbeat IPC: 0.793632 cumulative IPC: 0.702313 (Simulation time: 3 hr 45 min 34 sec) 
Heartbeat CPU 0 instructions: 910000001 cycles: 945150301 heartbeat IPC: 0.639332 cumulative IPC: 0.809491 (Simulation time: 3 hr 46 min 30 sec) 
Heartbeat CPU 1 instructions: 700000000 cycles: 948438482 heartbeat IPC: 0.689 cumulative IPC: 0.601276 (Simulation time: 3 hr 47 min 12 sec) 
Heartbeat CPU 3 instructions: 1060000000 cycles: 948662723 heartbeat IPC: 0.923103 cumulative IPC: 0.954108 (Simulation time: 3 hr 47 min 15 sec) 
Heartbeat CPU 2 instructions: 820000000 cycles: 953103808 heartbeat IPC: 0.803635 cumulative IPC: 0.70382 (Simulation time: 3 hr 48 min 18 sec) 
Heartbeat CPU 3 instructions: 1070000000 cycles: 959519936 heartbeat IPC: 0.921047 cumulative IPC: 0.953682 (Simulation time: 3 hr 49 min 41 sec) 
Heartbeat CPU 0 instructions: 920000000 cycles: 960688470 heartbeat IPC: 0.643576 cumulative IPC: 0.806435 (Simulation time: 3 hr 49 min 56 sec) 
Heartbeat CPU 1 instructions: 710000001 cycles: 961491993 heartbeat IPC: 0.766078 cumulative IPC: 0.603823 (Simulation time: 3 hr 50 min 7 sec) 
Heartbeat CPU 2 instructions: 830000001 cycles: 965922415 heartbeat IPC: 0.780116 cumulative IPC: 0.704972 (Simulation time: 3 hr 51 min 5 sec) 
Heartbeat CPU 3 instructions: 1080000000 cycles: 970407908 heartbeat IPC: 0.918445 cumulative IPC: 0.953232 (Simulation time: 3 hr 52 min 3 sec) 
Heartbeat CPU 1 instructions: 720000000 cycles: 974016710 heartbeat IPC: 0.798421 cumulative IPC: 0.606666 (Simulation time: 3 hr 52 min 48 sec) 
Heartbeat CPU 0 instructions: 930000000 cycles: 976328426 heartbeat IPC: 0.639388 cumulative IPC: 0.803396 (Simulation time: 3 hr 53 min 18 sec) 
Heartbeat CPU 2 instructions: 840000000 cycles: 978744945 heartbeat IPC: 0.779877 cumulative IPC: 0.706087 (Simulation time: 3 hr 53 min 49 sec) 
Heartbeat CPU 3 instructions: 1090000000 cycles: 981232299 heartbeat IPC: 0.92384 cumulative IPC: 0.952864 (Simulation time: 3 hr 54 min 21 sec) 
Heartbeat CPU 1 instructions: 730000000 cycles: 985668847 heartbeat IPC: 0.858212 cumulative IPC: 0.61004 (Simulation time: 3 hr 55 min 18 sec) 
Heartbeat CPU 2 instructions: 850000000 cycles: 991450522 heartbeat IPC: 0.787056 cumulative IPC: 0.707263 (Simulation time: 3 hr 56 min 32 sec) 
Heartbeat CPU 0 instructions: 940000000 cycles: 991898599 heartbeat IPC: 0.642254 cumulative IPC: 0.800528 (Simulation time: 3 hr 56 min 38 sec) 
Heartbeat CPU 3 instructions: 1100000000 cycles: 992050091 heartbeat IPC: 0.924403 cumulative IPC: 0.952512 (Simulation time: 3 hr 56 min 40 sec) 
Heartbeat CPU 1 instructions: 740000000 cycles: 997914519 heartbeat IPC: 0.816615 cumulative IPC: 0.612911 (Simulation time: 3 hr 57 min 52 sec) 
Heartbeat CPU 3 instructions: 1110000003 cycles: 1002900707 heartbeat IPC: 0.921607 cumulative IPC: 0.952134 (Simulation time: 3 hr 58 min 53 sec) 
Heartbeat CPU 2 instructions: 860000000 cycles: 1004019992 heartbeat IPC: 0.795578 cumulative IPC: 0.708514 (Simulation time: 3 hr 59 min 7 sec) 
Heartbeat CPU 0 instructions: 950000002 cycles: 1007601196 heartbeat IPC: 0.636837 cumulative IPC: 0.797642 (Simulation time: 3 hr 59 min 49 sec) 
Heartbeat CPU 1 instructions: 750000001 cycles: 1011756048 heartbeat IPC: 0.722464 cumulative IPC: 0.614606 (Simulation time: 4 hr 0 min 39 sec) 
Heartbeat CPU 3 instructions: 1120000000 cycles: 1013723166 heartbeat IPC: 0.924004 cumulative IPC: 0.951794 (Simulation time: 4 hr 1 min 3 sec) 
Heartbeat CPU 2 instructions: 870000002 cycles: 1016564848 heartbeat IPC: 0.79714 cumulative IPC: 0.70975 (Simulation time: 4 hr 1 min 38 sec) 
Heartbeat CPU 0 instructions: 960000000 cycles: 1023182114 heartbeat IPC: 0.641811 cumulative IPC: 0.794963 (Simulation time: 4 hr 2 min 58 sec) 
Heartbeat CPU 3 instructions: 1130000002 cycles: 1024581887 heartbeat IPC: 0.920919 cumulative IPC: 0.951425 (Simulation time: 4 hr 3 min 14 sec) 
Heartbeat CPU 1 instructions: 760000000 cycles: 1025408489 heartbeat IPC: 0.73247 cumulative IPC: 0.616377 (Simulation time: 4 hr 3 min 24 sec) 
Heartbeat CPU 2 instructions: 880000000 cycles: 1029367593 heartbeat IPC: 0.781082 cumulative IPC: 0.710751 (Simulation time: 4 hr 4 min 12 sec) 
Heartbeat CPU 3 instructions: 1140000000 cycles: 1035449871 heartbeat IPC: 0.920134 cumulative IPC: 0.951055 (Simulation time: 4 hr 5 min 26 sec) 
Heartbeat CPU 0 instructions: 970000000 cycles: 1038834968 heartbeat IPC: 0.638861 cumulative IPC: 0.792313 (Simulation time: 4 hr 6 min 9 sec) 
Heartbeat CPU 1 instructions: 770000003 cycles: 1039055226 heartbeat IPC: 0.732776 cumulative IPC: 0.618099 (Simulation time: 4 hr 6 min 12 sec) 
Heartbeat CPU 2 instructions: 890000001 cycles: 1042151570 heartbeat IPC: 0.782229 cumulative IPC: 0.711738 (Simulation time: 4 hr 6 min 52 sec) 
Heartbeat CPU 3 instructions: 1150000003 cycles: 1046311334 heartbeat IPC: 0.920687 cumulative IPC: 0.9507 (Simulation time: 4 hr 7 min 48 sec) 
Heartbeat CPU 1 instructions: 780000000 cycles: 1051629443 heartbeat IPC: 0.795278 cumulative IPC: 0.620483 (Simulation time: 4 hr 8 min 56 sec) 
Heartbeat CPU 0 instructions: 980000000 cycles: 1054536711 heartbeat IPC: 0.636872 cumulative IPC: 0.78971 (Simulation time: 4 hr 9 min 32 sec) 
Heartbeat CPU 2 instructions: 900000000 cycles: 1054706757 heartbeat IPC: 0.796483 cumulative IPC: 0.712873 (Simulation time: 4 hr 9 min 35 sec) 
Heartbeat CPU 3 instructions: 1160000000 cycles: 1057177270 heartbeat IPC: 0.920307 cumulative IPC: 0.950349 (Simulation time: 4 hr 10 min 6 sec) 
Heartbeat CPU 1 instructions: 790000003 cycles: 1064985864 heartbeat IPC: 0.748704 cumulative IPC: 0.622289 (Simulation time: 4 hr 11 min 48 sec) 
Heartbeat CPU 2 instructions: 910000003 cycles: 1067128806 heartbeat IPC: 0.80502 cumulative IPC: 0.714078 (Simulation time: 4 hr 12 min 17 sec) 
Heartbeat CPU 3 instructions: 1170000000 cycles: 1067985670 heartbeat IPC: 0.925206 cumulative IPC: 0.950063 (Simulation time: 4 hr 12 min 28 sec) 
Heartbeat CPU 0 instructions: 990000000 cycles: 1070119272 heartbeat IPC: 0.641743 cumulative IPC: 0.787291 (Simulation time: 4 hr 12 min 56 sec) 
Heartbeat CPU 1 instructions: 800000000 cycles: 1077947793 heartbeat IPC: 0.77149 cumulative IPC: 0.624301 (Simulation time: 4 hr 14 min 37 sec) 
Heartbeat CPU 3 instructions: 1180000000 cycles: 1078794430 heartbeat IPC: 0.925175 cumulative IPC: 0.949783 (Simulation time: 4 hr 14 min 48 sec) 
Heartbeat CPU 2 instructions: 920000000 cycles: 1079907547 heartbeat IPC: 0.782549 cumulative IPC: 0.714986 (Simulation time: 4 hr 15 min 2 sec) 
Heartbeat CPU 0 instructions: 1000000000 cycles: 1085825916 heartbeat IPC: 0.636673 cumulative IPC: 0.78485 (Simulation time: 4 hr 16 min 17 sec) 
Heartbeat CPU 3 instructions: 1190000001 cycles: 1089636929 heartbeat IPC: 0.922297 cumulative IPC: 0.949477 (Simulation time: 4 hr 17 min 6 sec) 
Heartbeat CPU 1 instructions: 810000003 cycles: 1091797194 heartbeat IPC: 0.722053 cumulative IPC: 0.62569 (Simulation time: 4 hr 17 min 34 sec) 
Heartbeat CPU 2 instructions: 930000000 cycles: 1092650781 heartbeat IPC: 0.78473 cumulative IPC: 0.715897 (Simulation time: 4 hr 17 min 44 sec) 
Heartbeat CPU 3 instructions: 1200000000 cycles: 1100439268 heartbeat IPC: 0.925725 cumulative IPC: 0.949216 (Simulation time: 4 hr 19 min 27 sec) 
Heartbeat CPU 0 instructions: 1010000001 cycles: 1101388847 heartbeat IPC: 0.642553 cumulative IPC: 0.782601 (Simulation time: 4 hr 19 min 41 sec) 
Heartbeat CPU 1 instructions: 820000000 cycles: 1102001934 heartbeat IPC: 0.979936 cumulative IPC: 0.629359 (Simulation time: 4 hr 19 min 49 sec) 
Heartbeat CPU 2 instructions: 940000000 cycles: 1105301596 heartbeat IPC: 0.790463 cumulative IPC: 0.716851 (Simulation time: 4 hr 20 min 32 sec) 
Heartbeat CPU 3 instructions: 1210000000 cycles: 1111270749 heartbeat IPC: 0.923235 cumulative IPC: 0.948933 (Simulation time: 4 hr 21 min 53 sec) 
Heartbeat CPU 1 instructions: 830000000 cycles: 1111820657 heartbeat IPC: 1.01846 cumulative IPC: 0.633199 (Simulation time: 4 hr 22 min 1 sec) 
Heartbeat CPU 0 instructions: 1020000000 cycles: 1116733639 heartbeat IPC: 0.651687 cumulative IPC: 0.780591 (Simulation time: 4 hr 23 min 6 sec) 
Heartbeat CPU 2 instructions: 950000000 cycles: 1117815784 heartbeat IPC: 0.799093 cumulative IPC: 0.71788 (Simulation time: 4 hr 23 min 20 sec) 
Heartbeat CPU 3 instructions: 1220000000 cycles: 1122140785 heartbeat IPC: 0.91996 cumulative IPC: 0.94862 (Simulation time: 4 hr 24 min 15 sec) 
Heartbeat CPU 1 instructions: 840000000 cycles: 1124617577 heartbeat IPC: 0.781438 cumulative IPC: 0.635082 (Simulation time: 4 hr 24 min 48 sec) 
Heartbeat CPU 2 instructions: 960000000 cycles: 1130324061 heartbeat IPC: 0.799471 cumulative IPC: 0.718887 (Simulation time: 4 hr 26 min 3 sec) 
Heartbeat CPU 0 instructions: 1030000001 cycles: 1131912928 heartbeat IPC: 0.658792 cumulative IPC: 0.77877 (Simulation time: 4 hr 26 min 24 sec) 
Heartbeat CPU 3 instructions: 1230000003 cycles: 1132944561 heartbeat IPC: 0.925603 cumulative IPC: 0.948375 (Simulation time: 4 hr 26 min 37 sec) 
Heartbeat CPU 1 instructions: 850000002 cycles: 1138014730 heartbeat IPC: 0.746427 cumulative IPC: 0.636543 (Simulation time: 4 hr 27 min 42 sec) 
Heartbeat CPU 2 instructions: 970000000 cycles: 1143112052 heartbeat IPC: 0.781984 cumulative IPC: 0.719673 (Simulation time: 4 hr 28 min 48 sec) 
Heartbeat CPU 3 instructions: 1240000000 cycles: 1143749334 heartbeat IPC: 0.925517 cumulative IPC: 0.948135 (Simulation time: 4 hr 28 min 57 sec) 
Heartbeat CPU 0 instructions: 1040000000 cycles: 1147184058 heartbeat IPC: 0.65483 cumulative IPC: 0.776933 (Simulation time: 4 hr 29 min 44 sec) 
Heartbeat CPU 1 instructions: 860000000 cycles: 1150286637 heartbeat IPC: 0.814869 cumulative IPC: 0.63866 (Simulation time: 4 hr 30 min 26 sec) 
Heartbeat CPU 3 instructions: 1250000003 cycles: 1154560633 heartbeat IPC: 0.924959 cumulative IPC: 0.947893 (Simulation time: 4 hr 31 min 23 sec) 
Heartbeat CPU 2 instructions: 980000000 cycles: 1155892971 heartbeat IPC: 0.782416 cumulative IPC: 0.720445 (Simulation time: 4 hr 31 min 49 sec) 
Heartbeat CPU 0 instructions: 1050000000 cycles: 1162467828 heartbeat IPC: 0.654289 cumulative IPC: 0.77514 (Simulation time: 4 hr 33 min 34 sec) 
Heartbeat CPU 1 instructions: 870000000 cycles: 1162519296 heartbeat IPC: 0.817484 cumulative IPC: 0.640752 (Simulation time: 4 hr 33 min 35 sec) 
Heartbeat CPU 3 instructions: 1260000000 cycles: 1165397313 heartbeat IPC: 0.922792 cumulative IPC: 0.947634 (Simulation time: 4 hr 34 min 15 sec) 
Heartbeat CPU 2 instructions: 990000001 cycles: 1168519924 heartbeat IPC: 0.791957 cumulative IPC: 0.721303 (Simulation time: 4 hr 34 min 56 sec) 
Finished CPU 3 instructions: 1000000000 cycles: 1055409601 cumulative IPC: 0.947499 (Simulation time: 4 hr 35 min 46 sec) 
Heartbeat CPU 1 instructions: 880000000 cycles: 1175795652 heartbeat IPC: 0.753219 cumulative IPC: 0.642162 (Simulation time: 4 hr 36 min 31 sec) 
Heartbeat CPU 3 instructions: 1270000000 cycles: 1176187590 heartbeat IPC: 0.92676 cumulative IPC: 0.947421 (Simulation time: 4 hr 36 min 36 sec) 
Heartbeat CPU 0 instructions: 1060000000 cycles: 1177668875 heartbeat IPC: 0.657849 cumulative IPC: 0.773459 (Simulation time: 4 hr 36 min 55 sec) 
Heartbeat CPU 2 instructions: 1000000000 cycles: 1181006625 heartbeat IPC: 0.800852 cumulative IPC: 0.722237 (Simulation time: 4 hr 37 min 38 sec) 
Heartbeat CPU 3 instructions: 1280000000 cycles: 1187015844 heartbeat IPC: 0.92351 cumulative IPC: 0.947179 (Simulation time: 4 hr 38 min 56 sec) 
Heartbeat CPU 1 instructions: 890000000 cycles: 1189749844 heartbeat IPC: 0.716631 cumulative IPC: 0.643131 (Simulation time: 4 hr 39 min 30 sec) 
Heartbeat CPU 0 instructions: 1070000001 cycles: 1192936929 heartbeat IPC: 0.654962 cumulative IPC: 0.771778 (Simulation time: 4 hr 40 min 11 sec) 
Heartbeat CPU 2 instructions: 1010000000 cycles: 1193722087 heartbeat IPC: 0.786444 cumulative IPC: 0.722995 (Simulation time: 4 hr 40 min 21 sec) 
Heartbeat CPU 3 instructions: 1290000000 cycles: 1197846949 heartbeat IPC: 0.923267 cumulative IPC: 0.94694 (Simulation time: 4 hr 41 min 14 sec) 
Heartbeat CPU 1 instructions: 900000000 cycles: 1203224291 heartbeat IPC: 0.742145 cumulative IPC: 0.644359 (Simulation time: 4 hr 42 min 24 sec) 
Heartbeat CPU 2 instructions: 1020000000 cycles: 1206464129 heartbeat IPC: 0.784804 cumulative IPC: 0.723718 (Simulation time: 4 hr 43 min 8 sec) 
Heartbeat CPU 0 instructions: 1080000000 cycles: 1208124129 heartbeat IPC: 0.658449 cumulative IPC: 0.770201 (Simulation time: 4 hr 43 min 31 sec) 
Heartbeat CPU 3 instructions: 1300000000 cycles: 1208687180 heartbeat IPC: 0.92249 cumulative IPC: 0.946697 (Simulation time: 4 hr 43 min 39 sec) 
Heartbeat CPU 1 instructions: 910000002 cycles: 1214444748 heartbeat IPC: 0.891229 cumulative IPC: 0.646883 (Simulation time: 4 hr 44 min 56 sec) 
Heartbeat CPU 2 instructions: 1030000003 cycles: 1219080852 heartbeat IPC: 0.792599 cumulative IPC: 0.724506 (Simulation time: 4 hr 45 min 56 sec) 
Heartbeat CPU 3 instructions: 1310000000 cycles: 1219520619 heartbeat IPC: 0.923068 cumulative IPC: 0.946465 (Simulation time: 4 hr 46 min 2 sec) 
Heartbeat CPU 0 instructions: 1090000000 cycles: 1223379319 heartbeat IPC: 0.655515 cumulative IPC: 0.76862 (Simulation time: 4 hr 46 min 50 sec) 
Heartbeat CPU 1 instructions: 920000000 cycles: 1227183136 heartbeat IPC: 0.785029 cumulative IPC: 0.648468 (Simulation time: 4 hr 47 min 38 sec) 
Heartbeat CPU 3 instructions: 1320000000 cycles: 1230370403 heartbeat IPC: 0.921677 cumulative IPC: 0.946223 (Simulation time: 4 hr 48 min 17 sec) 
Heartbeat CPU 2 instructions: 1040000000 cycles: 1231631332 heartbeat IPC: 0.796782 cumulative IPC: 0.72532 (Simulation time: 4 hr 48 min 35 sec) 
Heartbeat CPU 0 instructions: 1100000000 cycles: 1238653306 heartbeat IPC: 0.654708 cumulative IPC: 0.767069 (Simulation time: 4 hr 50 min 10 sec) 
Heartbeat CPU 1 instructions: 930000003 cycles: 1239353876 heartbeat IPC: 0.821643 cumulative IPC: 0.650345 (Simulation time: 4 hr 50 min 19 sec) 
Heartbeat CPU 3 instructions: 1330000002 cycles: 1241217065 heartbeat IPC: 0.921943 cumulative IPC: 0.945989 (Simulation time: 4 hr 50 min 44 sec) 
Heartbeat CPU 2 instructions: 1050000003 cycles: 1244099510 heartbeat IPC: 0.802042 cumulative IPC: 0.726169 (Simulation time: 4 hr 51 min 22 sec) 
Heartbeat CPU 1 instructions: 940000000 cycles: 1251693231 heartbeat IPC: 0.810415 cumulative IPC: 0.652086 (Simulation time: 4 hr 53 min 5 sec) 
Heartbeat CPU 3 instructions: 1340000000 cycles: 1252079567 heartbeat IPC: 0.920598 cumulative IPC: 0.945746 (Simulation time: 4 hr 53 min 10 sec) 
Heartbeat CPU 0 instructions: 1110000000 cycles: 1253901127 heartbeat IPC: 0.655831 cumulative IPC: 0.765577 (Simulation time: 4 hr 53 min 35 sec) 
Heartbeat CPU 2 instructions: 1060000000 cycles: 1256802188 heartbeat IPC: 0.787235 cumulative IPC: 0.726849 (Simulation time: 4 hr 54 min 15 sec) 
Heartbeat CPU 3 instructions: 1350000000 cycles: 1262984040 heartbeat IPC: 0.917055 cumulative IPC: 0.945473 (Simulation time: 4 hr 55 min 34 sec) 
Heartbeat CPU 1 instructions: 950000001 cycles: 1265616437 heartbeat IPC: 0.718225 cumulative IPC: 0.652887 (Simulation time: 4 hr 56 min 11 sec) 
Heartbeat CPU 0 instructions: 1120000000 cycles: 1269241379 heartbeat IPC: 0.65188 cumulative IPC: 0.764063 (Simulation time: 4 hr 56 min 57 sec) 
Heartbeat CPU 2 instructions: 1070000001 cycles: 1269462639 heartbeat IPC: 0.789861 cumulative IPC: 0.727541 (Simulation time: 4 hr 56 min 59 sec) 
Heartbeat CPU 3 instructions: 1360000000 cycles: 1273914240 heartbeat IPC: 0.914896 cumulative IPC: 0.945184 (Simulation time: 4 hr 57 min 57 sec) 
Heartbeat CPU 1 instructions: 960000000 cycles: 1279975190 heartbeat IPC: 0.696439 cumulative IPC: 0.653425 (Simulation time: 4 hr 59 min 13 sec) 
Heartbeat CPU 2 instructions: 1080000000 cycles: 1282055889 heartbeat IPC: 0.794076 cumulative IPC: 0.72826 (Simulation time: 4 hr 59 min 39 sec) 
Heartbeat CPU 0 instructions: 1130000000 cycles: 1284524438 heartbeat IPC: 0.654319 cumulative IPC: 0.762627 (Simulation time: 5 hr 0 min 11 sec) 
Heartbeat CPU 3 instructions: 1370000001 cycles: 1284891852 heartbeat IPC: 0.910945 cumulative IPC: 0.944862 (Simulation time: 5 hr 0 min 15 sec) 
Heartbeat CPU 1 instructions: 970000001 cycles: 1294343067 heartbeat IPC: 0.695997 cumulative IPC: 0.653945 (Simulation time: 5 hr 2 min 11 sec) 
Heartbeat CPU 2 instructions: 1090000002 cycles: 1294542203 heartbeat IPC: 0.800877 cumulative IPC: 0.72903 (Simulation time: 5 hr 2 min 13 sec) 
Heartbeat CPU 3 instructions: 1380000000 cycles: 1295831047 heartbeat IPC: 0.914144 cumulative IPC: 0.944577 (Simulation time: 5 hr 2 min 29 sec) 
Heartbeat CPU 0 instructions: 1140000000 cycles: 1299846846 heartbeat IPC: 0.652639 cumulative IPC: 0.761202 (Simulation time: 5 hr 3 min 18 sec) 
Heartbeat CPU 3 instructions: 1390000002 cycles: 1306767549 heartbeat IPC: 0.914369 cumulative IPC: 0.9443 (Simulation time: 5 hr 4 min 46 sec) 
Heartbeat CPU 2 instructions: 1100000000 cycles: 1307071909 heartbeat IPC: 0.798103 cumulative IPC: 0.729757 (Simulation time: 5 hr 4 min 49 sec) 
Heartbeat CPU 1 instructions: 980000000 cycles: 1307941810 heartbeat IPC: 0.735362 cumulative IPC: 0.654874 (Simulation time: 5 hr 5 min 0 sec) 
Heartbeat CPU 0 instructions: 1150000003 cycles: 1315190825 heartbeat IPC: 0.651722 cumulative IPC: 0.759801 (Simulation time: 5 hr 6 min 29 sec) 
Heartbeat CPU 3 instructions: 1400000000 cycles: 1317662102 heartbeat IPC: 0.91789 cumulative IPC: 0.94406 (Simulation time: 5 hr 7 min 1 sec) 
Heartbeat CPU 2 instructions: 1110000002 cycles: 1319760972 heartbeat IPC: 0.78808 cumulative IPC: 0.730373 (Simulation time: 5 hr 7 min 28 sec) 
Heartbeat CPU 1 instructions: 990000000 cycles: 1322418870 heartbeat IPC: 0.690748 cumulative IPC: 0.655305 (Simulation time: 5 hr 8 min 2 sec) 
Heartbeat CPU 3 instructions: 1410000000 cycles: 1328566182 heartbeat IPC: 0.917088 cumulative IPC: 0.943817 (Simulation time: 5 hr 9 min 20 sec) 
Heartbeat CPU 0 instructions: 1160000000 cycles: 1330470512 heartbeat IPC: 0.654463 cumulative IPC: 0.758474 (Simulation time: 5 hr 9 min 45 sec) 
Heartbeat CPU 2 instructions: 1120000000 cycles: 1332497221 heartbeat IPC: 0.78516 cumulative IPC: 0.730947 (Simulation time: 5 hr 10 min 12 sec) 
Heartbeat CPU 1 instructions: 1000000000 cycles: 1335865876 heartbeat IPC: 0.74366 cumulative IPC: 0.65628 (Simulation time: 5 hr 10 min 57 sec) 
Heartbeat CPU 3 instructions: 1420000000 cycles: 1339410481 heartbeat IPC: 0.922144 cumulative IPC: 0.943625 (Simulation time: 5 hr 11 min 45 sec) 
Heartbeat CPU 2 instructions: 1130000001 cycles: 1345020600 heartbeat IPC: 0.798507 cumulative IPC: 0.731636 (Simulation time: 5 hr 13 min 0 sec) 
Heartbeat CPU 0 instructions: 1170000002 cycles: 1345774521 heartbeat IPC: 0.653424 cumulative IPC: 0.757166 (Simulation time: 5 hr 13 min 10 sec) 
Heartbeat CPU 1 instructions: 1010000001 cycles: 1347316900 heartbeat IPC: 0.873284 cumulative IPC: 0.658299 (Simulation time: 5 hr 13 min 29 sec) 
Heartbeat CPU 3 instructions: 1430000003 cycles: 1350257626 heartbeat IPC: 0.921902 cumulative IPC: 0.943434 (Simulation time: 5 hr 14 min 7 sec) 
Heartbeat CPU 2 instructions: 1140000000 cycles: 1357433884 heartbeat IPC: 0.805588 cumulative IPC: 0.732376 (Simulation time: 5 hr 15 min 40 sec) 
Heartbeat CPU 0 instructions: 1180000000 cycles: 1360907622 heartbeat IPC: 0.660803 cumulative IPC: 0.755994 (Simulation time: 5 hr 16 min 25 sec) 
Heartbeat CPU 3 instructions: 1440000000 cycles: 1361085758 heartbeat IPC: 0.92352 cumulative IPC: 0.943261 (Simulation time: 5 hr 16 min 27 sec) 
Heartbeat CPU 1 instructions: 1020000000 cycles: 1361281216 heartbeat IPC: 0.716111 cumulative IPC: 0.658948 (Simulation time: 5 hr 16 min 29 sec) 
Heartbeat CPU 2 instructions: 1150000000 cycles: 1370135502 heartbeat IPC: 0.787301 cumulative IPC: 0.732932 (Simulation time: 5 hr 18 min 25 sec) 
Heartbeat CPU 3 instructions: 1450000000 cycles: 1371954710 heartbeat IPC: 0.920052 cumulative IPC: 0.94306 (Simulation time: 5 hr 18 min 49 sec) 
Heartbeat CPU 1 instructions: 1030000000 cycles: 1374133877 heartbeat IPC: 0.778049 cumulative IPC: 0.660165 (Simulation time: 5 hr 19 min 19 sec) 
Heartbeat CPU 0 instructions: 1190000001 cycles: 1376025574 heartbeat IPC: 0.661465 cumulative IPC: 0.754859 (Simulation time: 5 hr 19 min 44 sec) 
Heartbeat CPU 3 instructions: 1460000000 cycles: 1382752780 heartbeat IPC: 0.926091 cumulative IPC: 0.942915 (Simulation time: 5 hr 21 min 12 sec) 
Heartbeat CPU 2 instructions: 1160000000 cycles: 1382825428 heartbeat IPC: 0.788027 cumulative IPC: 0.733484 (Simulation time: 5 hr 21 min 13 sec) 
Heartbeat CPU 1 instructions: 1040000000 cycles: 1387670408 heartbeat IPC: 0.738742 cumulative IPC: 0.661002 (Simulation time: 5 hr 22 min 15 sec) 
Heartbeat CPU 0 instructions: 1200000000 cycles: 1391129930 heartbeat IPC: 0.662061 cumulative IPC: 0.753759 (Simulation time: 5 hr 22 min 59 sec) 
Heartbeat CPU 3 instructions: 1470000003 cycles: 1393591565 heartbeat IPC: 0.922613 cumulative IPC: 0.942743 (Simulation time: 5 hr 23 min 31 sec) 
Heartbeat CPU 2 instructions: 1170000000 cycles: 1395433812 heartbeat IPC: 0.793123 cumulative IPC: 0.734073 (Simulation time: 5 hr 23 min 55 sec) 
Heartbeat CPU 1 instructions: 1050000000 cycles: 1401778094 heartbeat IPC: 0.708833 cumulative IPC: 0.661528 (Simulation time: 5 hr 25 min 16 sec) 
Heartbeat CPU 3 instructions: 1480000000 cycles: 1404410527 heartbeat IPC: 0.924303 cumulative IPC: 0.942588 (Simulation time: 5 hr 25 min 51 sec) 
Heartbeat CPU 0 instructions: 1210000002 cycles: 1406184732 heartbeat IPC: 0.66424 cumulative IPC: 0.752714 (Simulation time: 5 hr 26 min 14 sec) 
Heartbeat CPU 2 instructions: 1180000000 cycles: 1407964454 heartbeat IPC: 0.798044 cumulative IPC: 0.734693 (Simulation time: 5 hr 26 min 37 sec) 
Heartbeat CPU 3 instructions: 1490000002 cycles: 1415257010 heartbeat IPC: 0.921958 cumulative IPC: 0.942415 (Simulation time: 5 hr 28 min 8 sec) 
Heartbeat CPU 1 instructions: 1060000000 cycles: 1416637183 heartbeat IPC: 0.672989 cumulative IPC: 0.661659 (Simulation time: 5 hr 28 min 24 sec) 
Heartbeat CPU 2 instructions: 1190000001 cycles: 1420449274 heartbeat IPC: 0.800973 cumulative IPC: 0.735328 (Simulation time: 5 hr 29 min 11 sec) 
Heartbeat CPU 0 instructions: 1220000000 cycles: 1421341270 heartbeat IPC: 0.659781 cumulative IPC: 0.751634 (Simulation time: 5 hr 29 min 22 sec) 
Heartbeat CPU 3 instructions: 1500000000 cycles: 1426140993 heartbeat IPC: 0.918781 cumulative IPC: 0.942219 (Simulation time: 5 hr 30 min 21 sec) 
Heartbeat CPU 1 instructions: 1070000000 cycles: 1430835541 heartbeat IPC: 0.704307 cumulative IPC: 0.662119 (Simulation time: 5 hr 31 min 18 sec) 
Heartbeat CPU 2 instructions: 1200000000 cycles: 1433195951 heartbeat IPC: 0.784518 cumulative IPC: 0.735804 (Simulation time: 5 hr 31 min 47 sec) 
Heartbeat CPU 0 instructions: 1230000000 cycles: 1436428278 heartbeat IPC: 0.662822 cumulative IPC: 0.750619 (Simulation time: 5 hr 32 min 27 sec) 
Heartbeat CPU 3 instructions: 1510000000 cycles: 1436971692 heartbeat IPC: 0.923301 cumulative IPC: 0.942064 (Simulation time: 5 hr 32 min 33 sec) 
Heartbeat CPU 1 instructions: 1080000000 cycles: 1443728121 heartbeat IPC: 0.77564 cumulative IPC: 0.663222 (Simulation time: 5 hr 33 min 59 sec) 
Heartbeat CPU 2 instructions: 1210000001 cycles: 1445991892 heartbeat IPC: 0.781498 cumulative IPC: 0.736244 (Simulation time: 5 hr 34 min 27 sec) 
Heartbeat CPU 3 instructions: 1520000000 cycles: 1447802852 heartbeat IPC: 0.923262 cumulative IPC: 0.941911 (Simulation time: 5 hr 34 min 50 sec) 
Finished CPU 0 instructions: 1000000002 cycles: 1334005583 cumulative IPC: 0.749622 (Simulation time: 5 hr 35 min 29 sec) 
Heartbeat CPU 0 instructions: 1240000000 cycles: 1451625638 heartbeat IPC: 0.658009 cumulative IPC: 0.749564 (Simulation time: 5 hr 35 min 38 sec) 
Heartbeat CPU 1 instructions: 1090000001 cycles: 1456838476 heartbeat IPC: 0.762756 cumulative IPC: 0.664196 (Simulation time: 5 hr 36 min 43 sec) 
Heartbeat CPU 2 instructions: 1220000000 cycles: 1458578042 heartbeat IPC: 0.794524 cumulative IPC: 0.736791 (Simulation time: 5 hr 37 min 5 sec) 
Heartbeat CPU 3 instructions: 1530000000 cycles: 1458686312 heartbeat IPC: 0.918825 cumulative IPC: 0.941723 (Simulation time: 5 hr 37 min 6 sec) 
Heartbeat CPU 0 instructions: 1250000001 cycles: 1466989755 heartbeat IPC: 0.650867 cumulative IPC: 0.748441 (Simulation time: 5 hr 38 min 52 sec) 
Heartbeat CPU 1 instructions: 1100000000 cycles: 1468631556 heartbeat IPC: 0.847955 cumulative IPC: 0.665799 (Simulation time: 5 hr 39 min 13 sec) 
Heartbeat CPU 3 instructions: 1540000000 cycles: 1469587280 heartbeat IPC: 0.91735 cumulative IPC: 0.941527 (Simulation time: 5 hr 39 min 25 sec) 
Heartbeat CPU 2 instructions: 1230000000 cycles: 1471035848 heartbeat IPC: 0.80271 cumulative IPC: 0.737398 (Simulation time: 5 hr 39 min 44 sec) 
Finished CPU 2 instructions: 1000000001 cycles: 1356173954 cumulative IPC: 0.737369 (Simulation time: 5 hr 40 min 8 sec) 
Heartbeat CPU 3 instructions: 1550000001 cycles: 1480426875 heartbeat IPC: 0.922544 cumulative IPC: 0.941376 (Simulation time: 5 hr 41 min 39 sec) 
Heartbeat CPU 1 instructions: 1110000003 cycles: 1481907885 heartbeat IPC: 0.75322 cumulative IPC: 0.66665 (Simulation time: 5 hr 41 min 57 sec) 
Heartbeat CPU 0 instructions: 1260000000 cycles: 1482265128 heartbeat IPC: 0.654648 cumulative IPC: 0.747392 (Simulation time: 5 hr 42 min 2 sec) 
Heartbeat CPU 2 instructions: 1240000000 cycles: 1483826737 heartbeat IPC: 0.781806 cumulative IPC: 0.737813 (Simulation time: 5 hr 42 min 20 sec) 
Heartbeat CPU 3 instructions: 1560000000 cycles: 1491274880 heartbeat IPC: 0.921828 cumulative IPC: 0.941222 (Simulation time: 5 hr 43 min 50 sec) 
Heartbeat CPU 1 instructions: 1120000000 cycles: 1495915573 heartbeat IPC: 0.713893 cumulative IPC: 0.66713 (Simulation time: 5 hr 44 min 49 sec) 
Heartbeat CPU 2 instructions: 1250000001 cycles: 1496673120 heartbeat IPC: 0.778429 cumulative IPC: 0.738191 (Simulation time: 5 hr 44 min 59 sec) 
Heartbeat CPU 0 instructions: 1270000001 cycles: 1497578116 heartbeat IPC: 0.65304 cumulative IPC: 0.746345 (Simulation time: 5 hr 45 min 11 sec) 
Heartbeat CPU 3 instructions: 1570000003 cycles: 1502157749 heartbeat IPC: 0.918876 cumulative IPC: 0.941046 (Simulation time: 5 hr 46 min 13 sec) 
Heartbeat CPU 1 instructions: 1130000001 cycles: 1507984512 heartbeat IPC: 0.828573 cumulative IPC: 0.66853 (Simulation time: 5 hr 47 min 30 sec) 
Heartbeat CPU 2 instructions: 1260000000 cycles: 1509357792 heartbeat IPC: 0.788353 cumulative IPC: 0.738648 (Simulation time: 5 hr 47 min 47 sec) 
Heartbeat CPU 0 instructions: 1280000000 cycles: 1512842153 heartbeat IPC: 0.655135 cumulative IPC: 0.745348 (Simulation time: 5 hr 48 min 32 sec) 
Heartbeat CPU 3 instructions: 1580000000 cycles: 1513009896 heartbeat IPC: 0.921476 cumulative IPC: 0.940894 (Simulation time: 5 hr 48 min 34 sec) 
Heartbeat CPU 2 instructions: 1270000002 cycles: 1521932285 heartbeat IPC: 0.795261 cumulative IPC: 0.739155 (Simulation time: 5 hr 50 min 26 sec) 
Heartbeat CPU 1 instructions: 1140000000 cycles: 1522756746 heartbeat IPC: 0.676946 cumulative IPC: 0.668619 (Simulation time: 5 hr 50 min 37 sec) 
Heartbeat CPU 3 instructions: 1590000000 cycles: 1523865571 heartbeat IPC: 0.921177 cumulative IPC: 0.940742 (Simulation time: 5 hr 50 min 50 sec) 
Heartbeat CPU 0 instructions: 1290000001 cycles: 1528116977 heartbeat IPC: 0.654672 cumulative IPC: 0.744366 (Simulation time: 5 hr 51 min 44 sec) 
Heartbeat CPU 2 instructions: 1280000000 cycles: 1534461852 heartbeat IPC: 0.798112 cumulative IPC: 0.739676 (Simulation time: 5 hr 53 min 4 sec) 
Heartbeat CPU 3 instructions: 1600000000 cycles: 1534775242 heartbeat IPC: 0.916618 cumulative IPC: 0.940556 (Simulation time: 5 hr 53 min 8 sec) 
Heartbeat CPU 1 instructions: 1150000000 cycles: 1537307302 heartbeat IPC: 0.687259 cumulative IPC: 0.66881 (Simulation time: 5 hr 53 min 40 sec) 
Heartbeat CPU 0 instructions: 1300000000 cycles: 1543367885 heartbeat IPC: 0.655699 cumulative IPC: 0.743418 (Simulation time: 5 hr 54 min 57 sec) 
Heartbeat CPU 3 instructions: 1610000003 cycles: 1545694451 heartbeat IPC: 0.915817 cumulative IPC: 0.940367 (Simulation time: 5 hr 55 min 27 sec) 
Heartbeat CPU 2 instructions: 1290000002 cycles: 1547230237 heartbeat IPC: 0.783185 cumulative IPC: 0.740064 (Simulation time: 5 hr 55 min 46 sec) 
Heartbeat CPU 1 instructions: 1160000000 cycles: 1552021401 heartbeat IPC: 0.67962 cumulative IPC: 0.66892 (Simulation time: 5 hr 56 min 48 sec) 
Heartbeat CPU 3 instructions: 1620000000 cycles: 1556554680 heartbeat IPC: 0.920791 cumulative IPC: 0.94022 (Simulation time: 5 hr 57 min 45 sec) 
Heartbeat CPU 0 instructions: 1310000003 cycles: 1558554997 heartbeat IPC: 0.658453 cumulative IPC: 0.742523 (Simulation time: 5 hr 58 min 10 sec) 
Heartbeat CPU 2 instructions: 1300000000 cycles: 1559936243 heartbeat IPC: 0.787029 cumulative IPC: 0.740478 (Simulation time: 5 hr 58 min 27 sec) 
Heartbeat CPU 1 instructions: 1170000000 cycles: 1565352256 heartbeat IPC: 0.750139 cumulative IPC: 0.669668 (Simulation time: 5 hr 59 min 39 sec) 
Heartbeat CPU 3 instructions: 1630000003 cycles: 1567407590 heartbeat IPC: 0.921412 cumulative IPC: 0.940079 (Simulation time: 6 hr 0 min 5 sec) 
Heartbeat CPU 2 instructions: 1310000003 cycles: 1572527219 heartbeat IPC: 0.79422 cumulative IPC: 0.740943 (Simulation time: 6 hr 1 min 12 sec) 
Heartbeat CPU 0 instructions: 1320000000 cycles: 1573813418 heartbeat IPC: 0.655376 cumulative IPC: 0.741611 (Simulation time: 6 hr 1 min 29 sec) 
Heartbeat CPU 1 instructions: 1180000000 cycles: 1577765420 heartbeat IPC: 0.805596 cumulative IPC: 0.670823 (Simulation time: 6 hr 2 min 21 sec) 
Heartbeat CPU 3 instructions: 1640000000 cycles: 1578234065 heartbeat IPC: 0.923661 cumulative IPC: 0.939957 (Simulation time: 6 hr 2 min 27 sec) 
Heartbeat CPU 2 instructions: 1320000000 cycles: 1585035868 heartbeat IPC: 0.799447 cumulative IPC: 0.741441 (Simulation time: 6 hr 3 min 56 sec) 
Heartbeat CPU 0 instructions: 1330000000 cycles: 1589022759 heartbeat IPC: 0.657491 cumulative IPC: 0.740742 (Simulation time: 6 hr 4 min 45 sec) 
Heartbeat CPU 3 instructions: 1650000001 cycles: 1589139909 heartbeat IPC: 0.91694 cumulative IPC: 0.939787 (Simulation time: 6 hr 4 min 47 sec) 
Heartbeat CPU 1 instructions: 1190000002 cycles: 1591275602 heartbeat IPC: 0.740183 cumulative IPC: 0.671458 (Simulation time: 6 hr 5 min 15 sec) 
Heartbeat CPU 2 instructions: 1330000001 cycles: 1597710140 heartbeat IPC: 0.789 cumulative IPC: 0.741848 (Simulation time: 6 hr 6 min 41 sec) 
Heartbeat CPU 3 instructions: 1660000000 cycles: 1600043128 heartbeat IPC: 0.91716 cumulative IPC: 0.93962 (Simulation time: 6 hr 7 min 12 sec) 
Heartbeat CPU 1 instructions: 1200000000 cycles: 1602877049 heartbeat IPC: 0.861961 cumulative IPC: 0.672946 (Simulation time: 6 hr 7 min 51 sec) 
Finished CPU 1 instructions: 1000000000 cycles: 1486003835 cumulative IPC: 0.672946 (Simulation time: 6 hr 7 min 51 sec) 

CPU 0 Branch Prediction Accuracy: 99.9529% MPKI: 0.0363519

CPU 1 Branch Prediction Accuracy: 97.8584% MPKI: 2.84518

CPU 2 Branch Prediction Accuracy: 99.7728% MPKI: 0.116752

CPU 3 Branch Prediction Accuracy: 99.8365% MPKI: 0.146317

ChampSim completed all CPUs

Total Simulation Statistics (not including warmup)

CPU 0 cumulative IPC: 0.739933 instructions: 1099542834 cycles: 1486003835
L1D TOTAL     ACCESS:  323502689  HIT:  314648067  MISS:    8854622
L1D LOAD      ACCESS:  233767189  HIT:  225373240  MISS:    8393949
L1D RFO       ACCESS:   89735500  HIT:   89274827  MISS:     460673
L1D PREFETCH  ACCESS:          0  HIT:          0  MISS:          0
L1D WRITEBACK ACCESS:          0  HIT:          0  MISS:          0
L1I TOTAL     ACCESS:  386147799  HIT:  386146359  MISS:       1440
L1I LOAD      ACCESS:  386147799  HIT:  386146359  MISS:       1440
L1I RFO       ACCESS:          0  HIT:          0  MISS:          0
L1I PREFETCH  ACCESS:          0  HIT:          0  MISS:          0
L1I WRITEBACK ACCESS:          0  HIT:          0  MISS:          0
L2C TOTAL     ACCESS:   16374867  HIT:   10331477  MISS:    6043390
L2C LOAD      ACCESS:    8394716  HIT:    7889400  MISS:     505316
L2C RFO       ACCESS:     460347  HIT:     337760  MISS:     122587
L2C PREFETCH  ACCESS:    5452976  HIT:      39944  MISS:    5413032
L2C WRITEBACK ACCESS:    2066828  HIT:    2064373  MISS:       2455

L2C DA-AMPM prefetcher final stats
LLC TOTAL     ACCESS:    6167921  HIT:    1054179  MISS:    5113742
LLC LOAD      ACCESS:     483688  HIT:      81494  MISS:     402194
LLC RFO       ACCESS:     122583  HIT:      21213  MISS:     101370
LLC PREFETCH  ACCESS:    5434660  HIT:     847830  MISS:    4586830
LLC WRITEBACK ACCESS:     126990  HIT:     103642  MISS:      23348

CPU 1 cumulative IPC: 0.672946 instructions: 1000000000 cycles: 1486003835
L1D TOTAL     ACCESS:  374360628  HIT:  372961841  MISS:    1398787
L1D LOAD      ACCESS:  166138303  HIT:  164852055  MISS:    1286248
L1D RFO       ACCESS:  208222325  HIT:  208109786  MISS:     112539
L1D PREFETCH  ACCESS:          0  HIT:          0  MISS:          0
L1D WRITEBACK ACCESS:          0  HIT:          0  MISS:          0
L1I TOTAL     ACCESS:  270999022  HIT:  269351935  MISS:    1647087
L1I LOAD      ACCESS:  270999022  HIT:  269351935  MISS:    1647087
L1I RFO       ACCESS:          0  HIT:          0  MISS:          0
L1I PREFETCH  ACCESS:          0  HIT:          0  MISS:          0
L1I WRITEBACK ACCESS:          0  HIT:          0  MISS:          0
L2C TOTAL     ACCESS:    4120329  HIT:    3012709  MISS:    1107620
L2C LOAD      ACCESS:    2933184  HIT:    2336342  MISS:     596842
L2C RFO       ACCESS:     112529  HIT:      66402  MISS:      46127
L2C PREFETCH  ACCESS:     707545  HIT:     251135  MISS:     456410
L2C WRITEBACK ACCESS:     367071  HIT:     358830  MISS:       8241

L2C DA-AMPM prefetcher final stats
LLC TOTAL     ACCESS:    1254667  HIT:     753419  MISS:     501248
LLC LOAD      ACCESS:     591008  HIT:     335597  MISS:     255411
LLC RFO       ACCESS:      46116  HIT:      23631  MISS:      22485
LLC PREFETCH  ACCESS:     462245  HIT:     248230  MISS:     214015
LLC WRITEBACK ACCESS:     155298  HIT:     145961  MISS:       9337

CPU 2 cumulative IPC: 0.742053 instructions: 1102694279 cycles: 1486003836
L1D TOTAL     ACCESS:  458547207  HIT:  420138254  MISS:   38408953
L1D LOAD      ACCESS:  363817733  HIT:  330085232  MISS:   33732501
L1D RFO       ACCESS:   94729474  HIT:   90053022  MISS:    4676452
L1D PREFETCH  ACCESS:          0  HIT:          0  MISS:          0
L1D WRITEBACK ACCESS:          0  HIT:          0  MISS:          0
L1I TOTAL     ACCESS:  334995496  HIT:  334995163  MISS:        333
L1I LOAD      ACCESS:  334995496  HIT:  334995163  MISS:        333
L1I RFO       ACCESS:          0  HIT:          0  MISS:          0
L1I PREFETCH  ACCESS:          0  HIT:          0  MISS:          0
L1I WRITEBACK ACCESS:          0  HIT:          0  MISS:          0
L2C TOTAL     ACCESS:   51518993  HIT:   36868873  MISS:   14650120
L2C LOAD      ACCESS:   33730787  HIT:   27083774  MISS:    6647013
L2C RFO       ACCESS:    4675364  HIT:    1603810  MISS:    3071554
L2C PREFETCH  ACCESS:    6903013  HIT:    1974338  MISS:    4928675
L2C WRITEBACK ACCESS:    6209829  HIT:    6206951  MISS:       2878

L2C DA-AMPM prefetcher final stats
LLC TOTAL     ACCESS:   19018080  HIT:   13440255  MISS:    5577825
LLC LOAD      ACCESS:    6618107  HIT:    4844744  MISS:    1773363
LLC RFO       ACCESS:    3071552  HIT:    2534864  MISS:     536688
LLC PREFETCH  ACCESS:    4957582  HIT:    1696827  MISS:    3260755
LLC WRITEBACK ACCESS:    4370839  HIT:    4363820  MISS:       7019

CPU 3 cumulative IPC: 0.939575 instructions: 1396212651 cycles: 1486003836
L1D TOTAL     ACCESS:  367150045  HIT:  353511962  MISS:   13638083
L1D LOAD      ACCESS:  315516012  HIT:  301995572  MISS:   13520440
L1D RFO       ACCESS:   51634033  HIT:   51516390  MISS:     117643
L1D PREFETCH  ACCESS:          0  HIT:          0  MISS:          0
L1D WRITEBACK ACCESS:          0  HIT:          0  MISS:          0
L1I TOTAL     ACCESS:  455194963  HIT:  455194477  MISS:        486
L1I LOAD      ACCESS:  455194963  HIT:  455194477  MISS:        486
L1I RFO       ACCESS:          0  HIT:          0  MISS:          0
L1I PREFETCH  ACCESS:          0  HIT:          0  MISS:          0
L1I WRITEBACK ACCESS:          0  HIT:          0  MISS:          0
L2C TOTAL     ACCESS:   19764942  HIT:   17017435  MISS:    2747507
L2C LOAD      ACCESS:   13520913  HIT:   12420236  MISS:    1100677
L2C RFO       ACCESS:     117643  HIT:      12202  MISS:     105441
L2C PREFETCH  ACCESS:    1548342  HIT:       7737  MISS:    1540605
L2C WRITEBACK ACCESS:    4578044  HIT:    4577260  MISS:        784

L2C DA-AMPM prefetcher final stats
LLC TOTAL     ACCESS:    3406475  HIT:    1675025  MISS:    1731450
LLC LOAD      ACCESS:    1073567  HIT:     829518  MISS:     244049
LLC RFO       ACCESS:     105441  HIT:       2616  MISS:     102825
LLC PREFETCH  ACCESS:    1567705  HIT:     199475  MISS:    1368230
LLC WRITEBACK ACCESS:     659762  HIT:     643416  MISS:      16346

Region of Interest Statistics

CPU 0 cumulative IPC: 0.749622 instructions: 1000000002 cycles: 1334005583
L1D TOTAL     ACCESS:  295011829  HIT:  286360015  MISS:    8651814
L1D LOAD      ACCESS:  215882391  HIT:  207636130  MISS:    8246261
L1D RFO       ACCESS:   79129438  HIT:   78723885  MISS:     405553
L1D PREFETCH  ACCESS:          0  HIT:          0  MISS:          0
L1D WRITEBACK ACCESS:          0  HIT:          0  MISS:          0
L1D PREFETCH  REQUESTED:          0  ISSUED:          0  USEFUL:          0  USELESS:          0
L1I TOTAL     ACCESS:  345854103  HIT:  345852663  MISS:       1440
L1I LOAD      ACCESS:  345854103  HIT:  345852663  MISS:       1440
L1I RFO       ACCESS:          0  HIT:          0  MISS:          0
L1I PREFETCH  ACCESS:          0  HIT:          0  MISS:          0
L1I WRITEBACK ACCESS:          0  HIT:          0  MISS:          0
L1I PREFETCH  REQUESTED:          0  ISSUED:          0  USEFUL:          0  USELESS:          0
L2C TOTAL     ACCESS:   16080373  HIT:   10067209  MISS:    6013164
L2C LOAD      ACCESS:    8247028  HIT:    7744453  MISS:     502575
L2C RFO       ACCESS:     405227  HIT:     293885  MISS:     111342
L2C PREFETCH  ACCESS:    5435388  HIT:      38589  MISS:    5396799
L2C WRITEBACK ACCESS:    1992730  HIT:    1990282  MISS:       2448
L2C PREFETCH  REQUESTED:    8726026  ISSUED:    8726026  USEFUL:    7423283  USELESS:    1219484
LLC TOTAL     ACCESS:    6126256  HIT:    1043072  MISS:    5083184
LLC LOAD      ACCESS:     480948  HIT:      80988  MISS:     399960
LLC RFO       ACCESS:     111338  HIT:      19171  MISS:      92167
LLC PREFETCH  ACCESS:    5418426  HIT:     847765  MISS:    4570661
LLC WRITEBACK ACCESS:     115544  HIT:      95148  MISS:      20396
LLC PREFETCH  REQUESTED:          0  ISSUED:          0  USEFUL:    1860552  USELESS:   11385455
Major fault: 0 Minor fault: 209866

CPU 1 cumulative IPC: 0.672946 instructions: 1000000000 cycles: 1486003835
L1D TOTAL     ACCESS:  374360628  HIT:  372961841  MISS:    1398787
L1D LOAD      ACCESS:  166138303  HIT:  164852055  MISS:    1286248
L1D RFO       ACCESS:  208222325  HIT:  208109786  MISS:     112539
L1D PREFETCH  ACCESS:          0  HIT:          0  MISS:          0
L1D WRITEBACK ACCESS:          0  HIT:          0  MISS:          0
L1D PREFETCH  REQUESTED:          0  ISSUED:          0  USEFUL:          0  USELESS:          0
L1I TOTAL     ACCESS:  270999022  HIT:  269351935  MISS:    1647087
L1I LOAD      ACCESS:  270999022  HIT:  269351935  MISS:    1647087
L1I RFO       ACCESS:          0  HIT:          0  MISS:          0
L1I PREFETCH  ACCESS:          0  HIT:          0  MISS:          0
L1I WRITEBACK ACCESS:          0  HIT:          0  MISS:          0
L1I PREFETCH  REQUESTED:          0  ISSUED:          0  USEFUL:          0  USELESS:          0
L2C TOTAL     ACCESS:    4120329  HIT:    3012709  MISS:    1107620
L2C LOAD      ACCESS:    2933184  HIT:    2336342  MISS:     596842
L2C RFO       ACCESS:     112529  HIT:      66402  MISS:      46127
L2C PREFETCH  ACCESS:     707545  HIT:     251135  MISS:     456410
L2C WRITEBACK ACCESS:     367071  HIT:     358830  MISS:       8241
L2C PREFETCH  REQUESTED:     743612  ISSUED:     743612  USEFUL:     154489  USELESS:     307790
LLC TOTAL     ACCESS:    1254667  HIT:     753419  MISS:     501248
LLC LOAD      ACCESS:     591008  HIT:     335597  MISS:     255411
LLC RFO       ACCESS:      46116  HIT:      23631  MISS:      22485
LLC PREFETCH  ACCESS:     462245  HIT:     248230  MISS:     214015
LLC WRITEBACK ACCESS:     155298  HIT:     145961  MISS:       9337
LLC PREFETCH  REQUESTED:          0  ISSUED:          0  USEFUL:    1860552  USELESS:   11385455
Major fault: 0 Minor fault: 6011

CPU 2 cumulative IPC: 0.737369 instructions: 1000000001 cycles: 1356173954
L1D TOTAL     ACCESS:  412369127  HIT:  378387145  MISS:   33981982
L1D LOAD      ACCESS:  325804647  HIT:  296008189  MISS:   29796458
L1D RFO       ACCESS:   86564480  HIT:   82378956  MISS:    4185524
L1D PREFETCH  ACCESS:          0  HIT:          0  MISS:          0
L1D WRITEBACK ACCESS:          0  HIT:          0  MISS:          0
L1D PREFETCH  REQUESTED:          0  ISSUED:          0  USEFUL:          0  USELESS:          0
L1I TOTAL     ACCESS:  306299132  HIT:  306298799  MISS:        333
L1I LOAD      ACCESS:  306299132  HIT:  306298799  MISS:        333
L1I RFO       ACCESS:          0  HIT:          0  MISS:          0
L1I PREFETCH  ACCESS:          0  HIT:          0  MISS:          0
L1I WRITEBACK ACCESS:          0  HIT:          0  MISS:          0
L1I PREFETCH  REQUESTED:          0  ISSUED:          0  USEFUL:          0  USELESS:          0
L2C TOTAL     ACCESS:   45692365  HIT:   32613217  MISS:   13079148
L2C LOAD      ACCESS:   29794987  HIT:   23918306  MISS:    5876681
L2C RFO       ACCESS:    4184537  HIT:    1422887  MISS:    2761650
L2C PREFETCH  ACCESS:    6175214  HIT:    1736989  MISS:    4438225
L2C WRITEBACK ACCESS:    5537627  HIT:    5535035  MISS:       2592
L2C PREFETCH  REQUESTED:    7916981  ISSUED:    7916981  USEFUL:    5066498  USELESS:     827882
LLC TOTAL     ACCESS:   16984136  HIT:   11895178  MISS:    5088958
LLC LOAD      ACCESS:    5848194  HIT:    4271522  MISS:    1576672
LLC RFO       ACCESS:    2761648  HIT:    2230149  MISS:     531499
LLC PREFETCH  ACCESS:    4466713  HIT:    1492945  MISS:    2973768
LLC WRITEBACK ACCESS:    3907581  HIT:    3900562  MISS:       7019
LLC PREFETCH  REQUESTED:          0  ISSUED:          0  USEFUL:    1860552  USELESS:   11385455
Major fault: 0 Minor fault: 126609

CPU 3 cumulative IPC: 0.947499 instructions: 1000000000 cycles: 1055409601
L1D TOTAL     ACCESS:  262342836  HIT:  253217798  MISS:    9125038
L1D LOAD      ACCESS:  221639290  HIT:  212628382  MISS:    9010908
L1D RFO       ACCESS:   40703546  HIT:   40589416  MISS:     114130
L1D PREFETCH  ACCESS:          0  HIT:          0  MISS:          0
L1D WRITEBACK ACCESS:          0  HIT:          0  MISS:          0
L1D PREFETCH  REQUESTED:          0  ISSUED:          0  USEFUL:          0  USELESS:          0
L1I TOTAL     ACCESS:  322367267  HIT:  322366781  MISS:        486
L1I LOAD      ACCESS:  322367267  HIT:  322366781  MISS:        486
L1I RFO       ACCESS:          0  HIT:          0  MISS:          0
L1I PREFETCH  ACCESS:          0  HIT:          0  MISS:          0
L1I WRITEBACK ACCESS:          0  HIT:          0  MISS:          0
L1I PREFETCH  REQUESTED:          0  ISSUED:          0  USEFUL:          0  USELESS:          0
L2C TOTAL     ACCESS:   13476199  HIT:   11421004  MISS:    2055195
L2C LOAD      ACCESS:    9011383  HIT:    8339252  MISS:     672131
L2C RFO       ACCESS:     114130  HIT:       8986  MISS:     105144
L2C PREFETCH  ACCESS:    1283319  HIT:       6174  MISS:    1277145
L2C WRITEBACK ACCESS:    3067367  HIT:    3066592  MISS:        775
L2C PREFETCH  REQUESTED:    1801285  ISSUED:    1801285  USEFUL:    1488404  USELESS:     233524
LLC TOTAL     ACCESS:    2570565  HIT:    1153540  MISS:    1417025
LLC LOAD      ACCESS:     645346  HIT:     449177  MISS:     196169
LLC RFO       ACCESS:     105144  HIT:       2319  MISS:     102825
LLC PREFETCH  ACCESS:    1303925  HIT:     197940  MISS:    1105985
LLC WRITEBACK ACCESS:     516150  HIT:     504104  MISS:      12046
LLC PREFETCH  REQUESTED:          0  ISSUED:          0  USEFUL:    1860552  USELESS:   11385455
Major fault: 0 Minor fault: 32332

L2C DA-AMPM prefetcher final stats

L2C DA-AMPM prefetcher final stats

L2C DA-AMPM prefetcher final stats

L2C DA-AMPM prefetcher final stats

DRAM Statistics
 CHANNEL 0
 RQ ROW_BUFFER_HIT:    4727530  ROW_BUFFER_MISS:    1699819
 DBUS_CONGESTED:    3571729
 WQ ROW_BUFFER_HIT:      57761  ROW_BUFFER_MISS:     477991  FULL:          0

 CHANNEL 1
 RQ ROW_BUFFER_HIT:    4725916  ROW_BUFFER_MISS:    1713822
 DBUS_CONGESTED:    3571729
 WQ ROW_BUFFER_HIT:      57691  ROW_BUFFER_MISS:     478301  FULL:          0

 AVG_CONGESTED_CYCLE: 12
