
*** ChampSim Multicore Out-of-Order Simulator ***

Warmup Instructions: 200000000
Simulation Instructions: 1000000000
Number of CPUs: 4
LLC sets: 8192
LLC ways: 16
Off-chip DRAM Size: 8192 MB Channels: 2 Width: 64-bit Data Rate: 1600 MT/s

CPU 0 runs /scratch/user/djimenez/champsim-traces/speccpu2017/xz/648.exchange2_s/648.exchange2_s-584B.champsimtrace.xz
CPU 1 runs /scratch/user/djimenez/champsim-traces/speccpu2017/xz/648.exchange2_s/648.exchange2_s-72B.champsimtrace.xz
CPU 2 runs /scratch/user/djimenez/champsim-traces/speccpu2017/xz/621.wrf_s/621.wrf_s-8065B.champsimtrace.xz
CPU 3 runs /scratch/user/djimenez/champsim-traces/speccpu2017/xz/605.mcf_s/605.mcf_s-1644B.champsimtrace.xz
L2C DA-AMPM prefetcher
L2C DA-AMPM prefetcher
L2C DA-AMPM prefetcher
L2C DA-AMPM prefetcher
Heartbeat CPU 1 instructions: 10000000 cycles: 4333400 heartbeat IPC: 2.30766 cumulative IPC: 2.30766 (Simulation time: 0 hr 1 min 27 sec) 
Heartbeat CPU 0 instructions: 10000001 cycles: 4404143 heartbeat IPC: 2.27059 cumulative IPC: 2.27059 (Simulation time: 0 hr 1 min 29 sec) 
Heartbeat CPU 2 instructions: 10000003 cycles: 4755977 heartbeat IPC: 2.10262 cumulative IPC: 2.10262 (Simulation time: 0 hr 1 min 36 sec) 
Heartbeat CPU 1 instructions: 20000000 cycles: 8670586 heartbeat IPC: 2.30564 cumulative IPC: 2.30665 (Simulation time: 0 hr 2 min 54 sec) 
Heartbeat CPU 0 instructions: 20000000 cycles: 8824392 heartbeat IPC: 2.26232 cumulative IPC: 2.26645 (Simulation time: 0 hr 2 min 57 sec) 
Heartbeat CPU 2 instructions: 20000000 cycles: 9266903 heartbeat IPC: 2.21684 cumulative IPC: 2.15822 (Simulation time: 0 hr 3 min 5 sec) 
Heartbeat CPU 3 instructions: 10000002 cycles: 10562185 heartbeat IPC: 0.946774 cumulative IPC: 0.946774 (Simulation time: 0 hr 3 min 31 sec) 
Heartbeat CPU 1 instructions: 30000000 cycles: 13000969 heartbeat IPC: 2.30926 cumulative IPC: 2.30752 (Simulation time: 0 hr 4 min 21 sec) 
Heartbeat CPU 0 instructions: 30000001 cycles: 13236808 heartbeat IPC: 2.26633 cumulative IPC: 2.26641 (Simulation time: 0 hr 4 min 26 sec) 
Heartbeat CPU 2 instructions: 30000000 cycles: 13670894 heartbeat IPC: 2.27067 cumulative IPC: 2.19444 (Simulation time: 0 hr 4 min 35 sec) 
Heartbeat CPU 1 instructions: 40000000 cycles: 17294914 heartbeat IPC: 2.32886 cumulative IPC: 2.31282 (Simulation time: 0 hr 5 min 48 sec) 
Heartbeat CPU 0 instructions: 40000000 cycles: 17687036 heartbeat IPC: 2.24708 cumulative IPC: 2.26154 (Simulation time: 0 hr 5 min 56 sec) 
Heartbeat CPU 2 instructions: 40000000 cycles: 18322401 heartbeat IPC: 2.14984 cumulative IPC: 2.18312 (Simulation time: 0 hr 6 min 9 sec) 
Heartbeat CPU 3 instructions: 20000000 cycles: 21061075 heartbeat IPC: 0.952481 cumulative IPC: 0.949619 (Simulation time: 0 hr 7 min 3 sec) 
Heartbeat CPU 1 instructions: 50000001 cycles: 21641686 heartbeat IPC: 2.30056 cumulative IPC: 2.31036 (Simulation time: 0 hr 7 min 15 sec) 
Heartbeat CPU 0 instructions: 50000003 cycles: 22145542 heartbeat IPC: 2.2429 cumulative IPC: 2.25779 (Simulation time: 0 hr 7 min 26 sec) 
Heartbeat CPU 2 instructions: 50000003 cycles: 22787001 heartbeat IPC: 2.23984 cumulative IPC: 2.19423 (Simulation time: 0 hr 7 min 39 sec) 
Heartbeat CPU 1 instructions: 60000000 cycles: 25993756 heartbeat IPC: 2.29776 cumulative IPC: 2.30825 (Simulation time: 0 hr 8 min 42 sec) 
Heartbeat CPU 0 instructions: 60000000 cycles: 26580233 heartbeat IPC: 2.25495 cumulative IPC: 2.25732 (Simulation time: 0 hr 8 min 53 sec) 
Heartbeat CPU 2 instructions: 60000000 cycles: 27432157 heartbeat IPC: 2.15278 cumulative IPC: 2.18721 (Simulation time: 0 hr 9 min 11 sec) 
Heartbeat CPU 1 instructions: 70000003 cycles: 30285304 heartbeat IPC: 2.33016 cumulative IPC: 2.31135 (Simulation time: 0 hr 10 min 8 sec) 
Heartbeat CPU 0 instructions: 70000000 cycles: 31026582 heartbeat IPC: 2.24904 cumulative IPC: 2.25613 (Simulation time: 0 hr 10 min 23 sec) 
Heartbeat CPU 3 instructions: 30000003 cycles: 31689849 heartbeat IPC: 0.940843 cumulative IPC: 0.946675 (Simulation time: 0 hr 10 min 37 sec) 
Heartbeat CPU 2 instructions: 70000002 cycles: 31862303 heartbeat IPC: 2.25726 cumulative IPC: 2.19695 (Simulation time: 0 hr 10 min 40 sec) 
Heartbeat CPU 1 instructions: 80000000 cycles: 34633597 heartbeat IPC: 2.29975 cumulative IPC: 2.3099 (Simulation time: 0 hr 11 min 40 sec) 
Heartbeat CPU 0 instructions: 80000000 cycles: 35480030 heartbeat IPC: 2.24545 cumulative IPC: 2.25479 (Simulation time: 0 hr 11 min 57 sec) 
Heartbeat CPU 2 instructions: 80000000 cycles: 36541414 heartbeat IPC: 2.13716 cumulative IPC: 2.1893 (Simulation time: 0 hr 12 min 18 sec) 
Heartbeat CPU 1 instructions: 90000001 cycles: 38934210 heartbeat IPC: 2.32525 cumulative IPC: 2.31159 (Simulation time: 0 hr 13 min 5 sec) 
Heartbeat CPU 0 instructions: 90000002 cycles: 39833902 heartbeat IPC: 2.29681 cumulative IPC: 2.25938 (Simulation time: 0 hr 13 min 23 sec) 
Heartbeat CPU 2 instructions: 90000000 cycles: 40977852 heartbeat IPC: 2.25406 cumulative IPC: 2.19631 (Simulation time: 0 hr 13 min 46 sec) 
Heartbeat CPU 3 instructions: 40000000 cycles: 42288409 heartbeat IPC: 0.943524 cumulative IPC: 0.945886 (Simulation time: 0 hr 14 min 12 sec) 
Heartbeat CPU 1 instructions: 100000000 cycles: 43206539 heartbeat IPC: 2.34064 cumulative IPC: 2.31446 (Simulation time: 0 hr 14 min 30 sec) 
Heartbeat CPU 0 instructions: 100000000 cycles: 44165202 heartbeat IPC: 2.30878 cumulative IPC: 2.26423 (Simulation time: 0 hr 14 min 49 sec) 
Heartbeat CPU 2 instructions: 100000000 cycles: 45650550 heartbeat IPC: 2.14009 cumulative IPC: 2.19055 (Simulation time: 0 hr 15 min 18 sec) 
Heartbeat CPU 1 instructions: 110000001 cycles: 47468038 heartbeat IPC: 2.34659 cumulative IPC: 2.31735 (Simulation time: 0 hr 15 min 54 sec) 
Heartbeat CPU 0 instructions: 110000003 cycles: 48657178 heartbeat IPC: 2.22619 cumulative IPC: 2.26071 (Simulation time: 0 hr 16 min 18 sec) 
Heartbeat CPU 2 instructions: 110000001 cycles: 50093371 heartbeat IPC: 2.25082 cumulative IPC: 2.1959 (Simulation time: 0 hr 16 min 47 sec) 
Heartbeat CPU 1 instructions: 120000000 cycles: 51676852 heartbeat IPC: 2.37597 cumulative IPC: 2.32212 (Simulation time: 0 hr 17 min 19 sec) 
Heartbeat CPU 3 instructions: 50000001 cycles: 52870880 heartbeat IPC: 0.944959 cumulative IPC: 0.9457 (Simulation time: 0 hr 17 min 42 sec) 
Heartbeat CPU 0 instructions: 120000000 cycles: 53124322 heartbeat IPC: 2.23857 cumulative IPC: 2.25885 (Simulation time: 0 hr 17 min 47 sec) 
Heartbeat CPU 2 instructions: 120000000 cycles: 54830227 heartbeat IPC: 2.1111 cumulative IPC: 2.18857 (Simulation time: 0 hr 18 min 19 sec) 
Heartbeat CPU 1 instructions: 130000003 cycles: 55870195 heartbeat IPC: 2.38473 cumulative IPC: 2.32682 (Simulation time: 0 hr 18 min 38 sec) 
Heartbeat CPU 0 instructions: 130000000 cycles: 57433317 heartbeat IPC: 2.32073 cumulative IPC: 2.26349 (Simulation time: 0 hr 19 min 5 sec) 
Heartbeat CPU 2 instructions: 130000001 cycles: 59784864 heartbeat IPC: 2.01831 cumulative IPC: 2.17446 (Simulation time: 0 hr 19 min 49 sec) 
Heartbeat CPU 1 instructions: 140000000 cycles: 60102269 heartbeat IPC: 2.36291 cumulative IPC: 2.32936 (Simulation time: 0 hr 19 min 55 sec) 
Heartbeat CPU 0 instructions: 140000000 cycles: 61820672 heartbeat IPC: 2.27928 cumulative IPC: 2.26461 (Simulation time: 0 hr 20 min 27 sec) 
Heartbeat CPU 3 instructions: 60000000 cycles: 63449079 heartbeat IPC: 0.94534 cumulative IPC: 0.94564 (Simulation time: 0 hr 20 min 58 sec) 
Heartbeat CPU 1 instructions: 150000001 cycles: 64264378 heartbeat IPC: 2.40263 cumulative IPC: 2.33411 (Simulation time: 0 hr 21 min 12 sec) 
Heartbeat CPU 2 instructions: 140000000 cycles: 64740286 heartbeat IPC: 2.01799 cumulative IPC: 2.16249 (Simulation time: 0 hr 21 min 20 sec) 
Heartbeat CPU 0 instructions: 150000003 cycles: 66327534 heartbeat IPC: 2.21884 cumulative IPC: 2.2615 (Simulation time: 0 hr 21 min 47 sec) 
Heartbeat CPU 1 instructions: 160000000 cycles: 68531944 heartbeat IPC: 2.34326 cumulative IPC: 2.33468 (Simulation time: 0 hr 22 min 26 sec) 
Heartbeat CPU 2 instructions: 150000002 cycles: 69804720 heartbeat IPC: 1.97455 cumulative IPC: 2.14885 (Simulation time: 0 hr 22 min 50 sec) 
Heartbeat CPU 0 instructions: 160000000 cycles: 70798332 heartbeat IPC: 2.23674 cumulative IPC: 2.25994 (Simulation time: 0 hr 23 min 8 sec) 
Heartbeat CPU 1 instructions: 170000003 cycles: 72753430 heartbeat IPC: 2.36883 cumulative IPC: 2.33666 (Simulation time: 0 hr 23 min 44 sec) 
Heartbeat CPU 3 instructions: 70000000 cycles: 74020639 heartbeat IPC: 0.945934 cumulative IPC: 0.945682 (Simulation time: 0 hr 24 min 7 sec) 
Heartbeat CPU 2 instructions: 160000000 cycles: 74087270 heartbeat IPC: 2.33506 cumulative IPC: 2.15962 (Simulation time: 0 hr 24 min 8 sec) 
Heartbeat CPU 0 instructions: 170000002 cycles: 75092283 heartbeat IPC: 2.32886 cumulative IPC: 2.26388 (Simulation time: 0 hr 24 min 27 sec) 
Heartbeat CPU 1 instructions: 180000000 cycles: 76961024 heartbeat IPC: 2.37665 cumulative IPC: 2.33885 (Simulation time: 0 hr 25 min 0 sec) 
Heartbeat CPU 2 instructions: 170000000 cycles: 79136156 heartbeat IPC: 1.98063 cumulative IPC: 2.1482 (Simulation time: 0 hr 25 min 40 sec) 
Heartbeat CPU 0 instructions: 180000000 cycles: 79519187 heartbeat IPC: 2.25891 cumulative IPC: 2.2636 (Simulation time: 0 hr 25 min 47 sec) 
Heartbeat CPU 1 instructions: 190000003 cycles: 81167863 heartbeat IPC: 2.37708 cumulative IPC: 2.34083 (Simulation time: 0 hr 26 min 18 sec) 
Heartbeat CPU 0 instructions: 190000000 cycles: 84019816 heartbeat IPC: 2.22191 cumulative IPC: 2.26137 (Simulation time: 0 hr 27 min 10 sec) 
Heartbeat CPU 2 instructions: 180000000 cycles: 84031303 heartbeat IPC: 2.04284 cumulative IPC: 2.14206 (Simulation time: 0 hr 27 min 10 sec) 
Heartbeat CPU 3 instructions: 80000000 cycles: 84592559 heartbeat IPC: 0.945902 cumulative IPC: 0.94571 (Simulation time: 0 hr 27 min 20 sec) 
Heartbeat CPU 1 instructions: 200000000 cycles: 85466904 heartbeat IPC: 2.3261 cumulative IPC: 2.34009 (Simulation time: 0 hr 27 min 36 sec) 
Heartbeat CPU 0 instructions: 200000000 cycles: 88443214 heartbeat IPC: 2.26071 cumulative IPC: 2.26134 (Simulation time: 0 hr 28 min 31 sec) 
Heartbeat CPU 2 instructions: 190000003 cycles: 88905795 heartbeat IPC: 2.0515 cumulative IPC: 2.13709 (Simulation time: 0 hr 28 min 39 sec) 
Heartbeat CPU 1 instructions: 210000000 cycles: 89755291 heartbeat IPC: 2.33188 cumulative IPC: 0.111414 (Simulation time: 0 hr 28 min 55 sec) 
Heartbeat CPU 0 instructions: 210000001 cycles: 92738670 heartbeat IPC: 2.32804 cumulative IPC: 0.10783 (Simulation time: 0 hr 29 min 49 sec) 
Heartbeat CPU 2 instructions: 200000000 cycles: 93803119 heartbeat IPC: 2.04193 cumulative IPC: 2.13213 (Simulation time: 0 hr 30 min 9 sec) 
Heartbeat CPU 1 instructions: 220000000 cycles: 94074129 heartbeat IPC: 2.31544 cumulative IPC: 0.212598 (Simulation time: 0 hr 30 min 14 sec) 
Heartbeat CPU 3 instructions: 90000003 cycles: 95139275 heartbeat IPC: 0.948163 cumulative IPC: 0.945982 (Simulation time: 0 hr 30 min 33 sec) 
Heartbeat CPU 0 instructions: 220000000 cycles: 97201274 heartbeat IPC: 2.24084 cumulative IPC: 0.205759 (Simulation time: 0 hr 31 min 12 sec) 
Heartbeat CPU 1 instructions: 230000003 cycles: 98394936 heartbeat IPC: 2.31438 cumulative IPC: 0.304894 (Simulation time: 0 hr 31 min 33 sec) 
Heartbeat CPU 2 instructions: 210000003 cycles: 98426774 heartbeat IPC: 2.16279 cumulative IPC: 0.101598 (Simulation time: 0 hr 31 min 34 sec) 
Heartbeat CPU 0 instructions: 230000000 cycles: 101693301 heartbeat IPC: 2.22617 cumulative IPC: 0.295005 (Simulation time: 0 hr 32 min 34 sec) 
Heartbeat CPU 1 instructions: 240000000 cycles: 102658902 heartbeat IPC: 2.34523 cumulative IPC: 0.38964 (Simulation time: 0 hr 32 min 52 sec) 
Heartbeat CPU 2 instructions: 220000000 cycles: 103126381 heartbeat IPC: 2.12784 cumulative IPC: 0.193937 (Simulation time: 0 hr 33 min 1 sec) 
Heartbeat CPU 3 instructions: 100000000 cycles: 105694896 heartbeat IPC: 0.947362 cumulative IPC: 0.946119 (Simulation time: 0 hr 33 min 47 sec) 
Heartbeat CPU 0 instructions: 240000000 cycles: 106054454 heartbeat IPC: 2.29297 cumulative IPC: 0.377165 (Simulation time: 0 hr 33 min 54 sec) 
Heartbeat CPU 1 instructions: 250000001 cycles: 106911041 heartbeat IPC: 2.35176 cumulative IPC: 0.467679 (Simulation time: 0 hr 34 min 10 sec) 
Heartbeat CPU 2 instructions: 230000002 cycles: 107715170 heartbeat IPC: 2.17922 cumulative IPC: 0.278512 (Simulation time: 0 hr 34 min 25 sec) 
Heartbeat CPU 0 instructions: 250000003 cycles: 110232986 heartbeat IPC: 2.39319 cumulative IPC: 0.453585 (Simulation time: 0 hr 35 min 13 sec) 
Heartbeat CPU 1 instructions: 260000000 cycles: 111203979 heartbeat IPC: 2.32941 cumulative IPC: 0.539549 (Simulation time: 0 hr 35 min 31 sec) 
Heartbeat CPU 2 instructions: 240000000 cycles: 112438952 heartbeat IPC: 2.11695 cumulative IPC: 0.355749 (Simulation time: 0 hr 35 min 54 sec) 
Heartbeat CPU 0 instructions: 260000000 cycles: 114421546 heartbeat IPC: 2.38745 cumulative IPC: 0.524377 (Simulation time: 0 hr 36 min 30 sec) 
Heartbeat CPU 1 instructions: 270000000 cycles: 115507465 heartbeat IPC: 2.3237 cumulative IPC: 0.606021 (Simulation time: 0 hr 36 min 49 sec) 
Heartbeat CPU 3 instructions: 110000002 cycles: 116257347 heartbeat IPC: 0.94675 cumulative IPC: 0.946177 (Simulation time: 0 hr 37 min 2 sec) 
Heartbeat CPU 2 instructions: 250000000 cycles: 117727081 heartbeat IPC: 1.89103 cumulative IPC: 0.424711 (Simulation time: 0 hr 37 min 29 sec) 
Heartbeat CPU 0 instructions: 270000002 cycles: 118561957 heartbeat IPC: 2.41522 cumulative IPC: 0.590409 (Simulation time: 0 hr 37 min 45 sec) 
Heartbeat CPU 1 instructions: 280000000 cycles: 119827760 heartbeat IPC: 2.31466 cumulative IPC: 0.667625 (Simulation time: 0 hr 38 min 8 sec) 
Heartbeat CPU 2 instructions: 260000000 cycles: 121833036 heartbeat IPC: 2.43549 cumulative IPC: 0.492477 (Simulation time: 0 hr 38 min 45 sec) 
Heartbeat CPU 0 instructions: 280000000 cycles: 122784303 heartbeat IPC: 2.36835 cumulative IPC: 0.651549 (Simulation time: 0 hr 39 min 3 sec) 
Heartbeat CPU 1 instructions: 290000003 cycles: 124153473 heartbeat IPC: 2.31176 cumulative IPC: 0.724909 (Simulation time: 0 hr 39 min 26 sec) 
Heartbeat CPU 2 instructions: 270000000 cycles: 125511616 heartbeat IPC: 2.71844 cumulative IPC: 0.557717 (Simulation time: 0 hr 39 min 51 sec) 
Heartbeat CPU 3 instructions: 120000000 cycles: 126830301 heartbeat IPC: 0.945809 cumulative IPC: 0.946146 (Simulation time: 0 hr 40 min 15 sec) 
Heartbeat CPU 0 instructions: 290000003 cycles: 126950895 heartbeat IPC: 2.40004 cumulative IPC: 0.708936 (Simulation time: 0 hr 40 min 17 sec) 
Heartbeat CPU 1 instructions: 300000000 cycles: 128471847 heartbeat IPC: 2.31569 cumulative IPC: 0.778381 (Simulation time: 0 hr 40 min 45 sec) 
Heartbeat CPU 2 instructions: 280000000 cycles: 129679163 heartbeat IPC: 2.39949 cumulative IPC: 0.616907 (Simulation time: 0 hr 41 min 8 sec) 
Heartbeat CPU 0 instructions: 300000000 cycles: 131191022 heartbeat IPC: 2.35842 cumulative IPC: 0.762247 (Simulation time: 0 hr 41 min 35 sec) 
Heartbeat CPU 1 instructions: 310000000 cycles: 132755528 heartbeat IPC: 2.33444 cumulative IPC: 0.828591 (Simulation time: 0 hr 42 min 4 sec) 
Heartbeat CPU 2 instructions: 290000003 cycles: 134008373 heartbeat IPC: 2.30989 cumulative IPC: 0.6716 (Simulation time: 0 hr 42 min 27 sec) 
Heartbeat CPU 0 instructions: 310000003 cycles: 135274895 heartbeat IPC: 2.44866 cumulative IPC: 0.813159 (Simulation time: 0 hr 42 min 51 sec) 
Heartbeat CPU 1 instructions: 320000000 cycles: 137077358 heartbeat IPC: 2.31383 cumulative IPC: 0.875418 (Simulation time: 0 hr 43 min 24 sec) 
Heartbeat CPU 3 instructions: 130000000 cycles: 137421887 heartbeat IPC: 0.944146 cumulative IPC: 0.945992 (Simulation time: 0 hr 43 min 30 sec) 
Heartbeat CPU 2 instructions: 300000000 cycles: 138863266 heartbeat IPC: 2.05978 cumulative IPC: 0.720133 (Simulation time: 0 hr 43 min 57 sec) 
Heartbeat CPU 0 instructions: 320000000 cycles: 139461367 heartbeat IPC: 2.38865 cumulative IPC: 0.860453 (Simulation time: 0 hr 44 min 8 sec) 
Heartbeat CPU 1 instructions: 330000002 cycles: 141346483 heartbeat IPC: 2.3424 cumulative IPC: 0.919726 (Simulation time: 0 hr 44 min 42 sec) 
Heartbeat CPU 2 instructions: 310000000 cycles: 143466309 heartbeat IPC: 2.17248 cumulative IPC: 0.766731 (Simulation time: 0 hr 45 min 24 sec) 
Heartbeat CPU 0 instructions: 330000002 cycles: 143608675 heartbeat IPC: 2.4112 cumulative IPC: 0.905238 (Simulation time: 0 hr 45 min 27 sec) 
Heartbeat CPU 1 instructions: 340000000 cycles: 145516343 heartbeat IPC: 2.39816 cumulative IPC: 0.962091 (Simulation time: 0 hr 46 min 6 sec) 
Heartbeat CPU 0 instructions: 340000000 cycles: 147802201 heartbeat IPC: 2.38463 cumulative IPC: 0.947212 (Simulation time: 0 hr 46 min 52 sec) 
Heartbeat CPU 3 instructions: 140000000 cycles: 148001335 heartbeat IPC: 0.945229 cumulative IPC: 0.945937 (Simulation time: 0 hr 46 min 56 sec) 
Heartbeat CPU 2 instructions: 320000000 cycles: 148093331 heartbeat IPC: 2.16122 cumulative IPC: 0.8103 (Simulation time: 0 hr 46 min 58 sec) 
Heartbeat CPU 1 instructions: 350000002 cycles: 149624059 heartbeat IPC: 2.43444 cumulative IPC: 1.00251 (Simulation time: 0 hr 47 min 29 sec) 
Heartbeat CPU 0 instructions: 350000000 cycles: 151907084 heartbeat IPC: 2.43612 cumulative IPC: 0.987446 (Simulation time: 0 hr 48 min 14 sec) 
Heartbeat CPU 2 instructions: 330000002 cycles: 152883888 heartbeat IPC: 2.08744 cumulative IPC: 0.850319 (Simulation time: 0 hr 48 min 33 sec) 
Heartbeat CPU 1 instructions: 360000000 cycles: 153721307 heartbeat IPC: 2.44066 cumulative IPC: 1.04084 (Simulation time: 0 hr 48 min 53 sec) 
Heartbeat CPU 0 instructions: 360000000 cycles: 156110778 heartbeat IPC: 2.37886 cumulative IPC: 1.02491 (Simulation time: 0 hr 49 min 43 sec) 
Heartbeat CPU 2 instructions: 340000000 cycles: 157562323 heartbeat IPC: 2.13747 cumulative IPC: 0.888537 (Simulation time: 0 hr 50 min 12 sec) 
Heartbeat CPU 1 instructions: 370000000 cycles: 157911808 heartbeat IPC: 2.38635 cumulative IPC: 1.07655 (Simulation time: 0 hr 50 min 19 sec) 
Heartbeat CPU 3 instructions: 150000001 cycles: 158549189 heartbeat IPC: 0.94806 cumulative IPC: 0.946079 (Simulation time: 0 hr 50 min 32 sec) 
Heartbeat CPU 0 instructions: 370000002 cycles: 160268913 heartbeat IPC: 2.40492 cumulative IPC: 1.06072 (Simulation time: 0 hr 51 min 5 sec) 
Heartbeat CPU 1 instructions: 380000000 cycles: 162082678 heartbeat IPC: 2.39758 cumulative IPC: 1.11054 (Simulation time: 0 hr 51 min 41 sec) 
Heartbeat CPU 2 instructions: 350000002 cycles: 162089530 heartbeat IPC: 2.20887 cumulative IPC: 0.925415 (Simulation time: 0 hr 51 min 41 sec) 
Heartbeat CPU 0 instructions: 380000000 cycles: 164431624 heartbeat IPC: 2.40228 cumulative IPC: 1.09468 (Simulation time: 0 hr 52 min 27 sec) 
Heartbeat CPU 1 instructions: 390000003 cycles: 166170546 heartbeat IPC: 2.44626 cumulative IPC: 1.1434 (Simulation time: 0 hr 53 min 1 sec) 
Heartbeat CPU 2 instructions: 360000000 cycles: 166775341 heartbeat IPC: 2.1341 cumulative IPC: 0.959374 (Simulation time: 0 hr 53 min 13 sec) 
Heartbeat CPU 0 instructions: 390000000 cycles: 168612971 heartbeat IPC: 2.39157 cumulative IPC: 1.12684 (Simulation time: 0 hr 53 min 48 sec) 
Heartbeat CPU 3 instructions: 160000000 cycles: 169008427 heartbeat IPC: 0.956092 cumulative IPC: 0.946698 (Simulation time: 0 hr 53 min 55 sec) 
Heartbeat CPU 1 instructions: 400000000 cycles: 170391364 heartbeat IPC: 2.36921 cumulative IPC: 1.17377 (Simulation time: 0 hr 54 min 21 sec) 
Heartbeat CPU 2 instructions: 370000003 cycles: 171260210 heartbeat IPC: 2.22972 cumulative IPC: 0.992642 (Simulation time: 0 hr 54 min 38 sec) 
Heartbeat CPU 0 instructions: 400000000 cycles: 172821428 heartbeat IPC: 2.37617 cumulative IPC: 1.15726 (Simulation time: 0 hr 55 min 7 sec) 
Heartbeat CPU 1 instructions: 410000001 cycles: 174618860 heartbeat IPC: 2.36547 cumulative IPC: 1.20262 (Simulation time: 0 hr 55 min 40 sec) 
Heartbeat CPU 2 instructions: 380000000 cycles: 175936033 heartbeat IPC: 2.13866 cumulative IPC: 1.0231 (Simulation time: 0 hr 56 min 6 sec) 
Heartbeat CPU 0 instructions: 410000001 cycles: 177061430 heartbeat IPC: 2.35849 cumulative IPC: 1.18603 (Simulation time: 0 hr 56 min 28 sec) 
Heartbeat CPU 1 instructions: 420000000 cycles: 178870932 heartbeat IPC: 2.35179 cumulative IPC: 1.22994 (Simulation time: 0 hr 57 min 3 sec) 
Heartbeat CPU 3 instructions: 170000001 cycles: 179625773 heartbeat IPC: 0.941855 cumulative IPC: 0.946412 (Simulation time: 0 hr 57 min 17 sec) 
Heartbeat CPU 2 instructions: 390000001 cycles: 180525582 heartbeat IPC: 2.17886 cumulative IPC: 1.05248 (Simulation time: 0 hr 57 min 35 sec) 
Heartbeat CPU 0 instructions: 420000000 cycles: 181240226 heartbeat IPC: 2.39303 cumulative IPC: 1.21386 (Simulation time: 0 hr 57 min 48 sec) 
Heartbeat CPU 1 instructions: 430000000 cycles: 182982302 heartbeat IPC: 2.43228 cumulative IPC: 1.25695 (Simulation time: 0 hr 58 min 21 sec) 
Heartbeat CPU 2 instructions: 400000000 cycles: 185067832 heartbeat IPC: 2.20155 cumulative IPC: 1.08068 (Simulation time: 0 hr 59 min 2 sec) 
Heartbeat CPU 0 instructions: 430000001 cycles: 185438615 heartbeat IPC: 2.38187 cumulative IPC: 1.2403 (Simulation time: 0 hr 59 min 9 sec) 
Heartbeat CPU 1 instructions: 440000000 cycles: 187217731 heartbeat IPC: 2.36104 cumulative IPC: 1.28193 (Simulation time: 0 hr 59 min 43 sec) 
Heartbeat CPU 0 instructions: 440000000 cycles: 189669687 heartbeat IPC: 2.36347 cumulative IPC: 1.26536 (Simulation time: 1 hr 0 min 31 sec) 
Heartbeat CPU 2 instructions: 410000000 cycles: 189735312 heartbeat IPC: 2.14248 cumulative IPC: 1.10681 (Simulation time: 1 hr 0 min 32 sec) 
Heartbeat CPU 3 instructions: 180000000 cycles: 190226308 heartbeat IPC: 0.943349 cumulative IPC: 0.946241 (Simulation time: 1 hr 0 min 41 sec) 
Heartbeat CPU 1 instructions: 450000000 cycles: 191428550 heartbeat IPC: 2.37484 cumulative IPC: 1.30597 (Simulation time: 1 hr 1 min 5 sec) 
Heartbeat CPU 0 instructions: 450000002 cycles: 193871150 heartbeat IPC: 2.38012 cumulative IPC: 1.28952 (Simulation time: 1 hr 1 min 52 sec) 
Heartbeat CPU 2 instructions: 420000000 cycles: 194227688 heartbeat IPC: 2.22599 cumulative IPC: 1.13269 (Simulation time: 1 hr 1 min 59 sec) 
Heartbeat CPU 1 instructions: 460000000 cycles: 195628723 heartbeat IPC: 2.38085 cumulative IPC: 1.32905 (Simulation time: 1 hr 2 min 26 sec) 
Heartbeat CPU 0 instructions: 460000000 cycles: 198078547 heartbeat IPC: 2.37677 cumulative IPC: 1.31261 (Simulation time: 1 hr 3 min 12 sec) 
Heartbeat CPU 2 instructions: 430000001 cycles: 198990369 heartbeat IPC: 2.09966 cumulative IPC: 1.15583 (Simulation time: 1 hr 3 min 29 sec) 
Heartbeat CPU 1 instructions: 470000000 cycles: 199845971 heartbeat IPC: 2.37121 cumulative IPC: 1.35104 (Simulation time: 1 hr 3 min 45 sec) 
Heartbeat CPU 3 instructions: 190000000 cycles: 200813802 heartbeat IPC: 0.944511 cumulative IPC: 0.94615 (Simulation time: 1 hr 4 min 3 sec) 
Heartbeat CPU 0 instructions: 470000000 cycles: 202316468 heartbeat IPC: 2.35965 cumulative IPC: 1.33454 (Simulation time: 1 hr 4 min 31 sec) 
Heartbeat CPU 2 instructions: 440000000 cycles: 203946267 heartbeat IPC: 2.0178 cumulative IPC: 1.17678 (Simulation time: 1 hr 5 min 1 sec) 
Heartbeat CPU 1 instructions: 480000000 cycles: 204037268 heartbeat IPC: 2.3859 cumulative IPC: 1.3723 (Simulation time: 1 hr 5 min 3 sec) 
Heartbeat CPU 0 instructions: 480000000 cycles: 206516598 heartbeat IPC: 2.38088 cumulative IPC: 1.35582 (Simulation time: 1 hr 5 min 49 sec) 
Heartbeat CPU 1 instructions: 490000001 cycles: 208427391 heartbeat IPC: 2.27784 cumulative IPC: 1.39137 (Simulation time: 1 hr 6 min 24 sec) 
Heartbeat CPU 2 instructions: 450000000 cycles: 208904049 heartbeat IPC: 2.01703 cumulative IPC: 1.19672 (Simulation time: 1 hr 6 min 33 sec) 
Heartbeat CPU 0 instructions: 490000003 cycles: 210691991 heartbeat IPC: 2.39498 cumulative IPC: 1.37642 (Simulation time: 1 hr 7 min 6 sec) 
Heartbeat CPU 3 instructions: 200000000 cycles: 211418908 heartbeat IPC: 0.942942 cumulative IPC: 0.945989 (Simulation time: 1 hr 7 min 20 sec) 

Warmup complete CPU 0 instructions: 491695629 cycles: 211418913 (Simulation time: 1 hr 7 min 20 sec) 
Warmup complete CPU 1 instructions: 496826900 cycles: 211418913 (Simulation time: 1 hr 7 min 20 sec) 
Warmup complete CPU 2 instructions: 455078530 cycles: 211418913 (Simulation time: 1 hr 7 min 20 sec) 
Warmup complete CPU 3 instructions: 200000004 cycles: 211418913 (Simulation time: 1 hr 7 min 20 sec) 

Heartbeat CPU 1 instructions: 500000000 cycles: 213482878 heartbeat IPC: 1.97805 cumulative IPC: 1.53738 (Simulation time: 1 hr 7 min 43 sec) 
Heartbeat CPU 0 instructions: 500000000 cycles: 216824797 heartbeat IPC: 1.63057 cumulative IPC: 1.53617 (Simulation time: 1 hr 8 min 21 sec) 
Heartbeat CPU 1 instructions: 510000002 cycles: 219992917 heartbeat IPC: 1.53609 cumulative IPC: 1.5364 (Simulation time: 1 hr 8 min 55 sec) 
Heartbeat CPU 2 instructions: 460000000 cycles: 220283134 heartbeat IPC: 0.878805 cumulative IPC: 0.555206 (Simulation time: 1 hr 8 min 58 sec) 
Heartbeat CPU 0 instructions: 510000000 cycles: 223259304 heartbeat IPC: 1.55412 cumulative IPC: 1.54593 (Simulation time: 1 hr 9 min 35 sec) 
Heartbeat CPU 1 instructions: 520000000 cycles: 226447682 heartbeat IPC: 1.54924 cumulative IPC: 1.54192 (Simulation time: 1 hr 10 min 14 sec) 
Heartbeat CPU 2 instructions: 470000000 cycles: 228993862 heartbeat IPC: 1.14801 cumulative IPC: 0.849019 (Simulation time: 1 hr 10 min 47 sec) 
Heartbeat CPU 0 instructions: 520000000 cycles: 229701132 heartbeat IPC: 1.55235 cumulative IPC: 1.54819 (Simulation time: 1 hr 10 min 56 sec) 
Heartbeat CPU 1 instructions: 530000001 cycles: 233013143 heartbeat IPC: 1.52312 cumulative IPC: 1.5362 (Simulation time: 1 hr 11 min 34 sec) 
Heartbeat CPU 0 instructions: 530000001 cycles: 236189606 heartbeat IPC: 1.54119 cumulative IPC: 1.54636 (Simulation time: 1 hr 12 min 8 sec) 
Heartbeat CPU 1 instructions: 540000000 cycles: 239507198 heartbeat IPC: 1.53987 cumulative IPC: 1.53705 (Simulation time: 1 hr 12 min 49 sec) 
Heartbeat CPU 2 instructions: 480000000 cycles: 241345126 heartbeat IPC: 0.809634 cumulative IPC: 0.832764 (Simulation time: 1 hr 13 min 12 sec) 
Heartbeat CPU 0 instructions: 540000000 cycles: 242732124 heartbeat IPC: 1.52846 cumulative IPC: 1.54262 (Simulation time: 1 hr 13 min 30 sec) 
Heartbeat CPU 1 instructions: 550000002 cycles: 245968447 heartbeat IPC: 1.54769 cumulative IPC: 1.53904 (Simulation time: 1 hr 14 min 12 sec) 
Heartbeat CPU 2 instructions: 490000003 cycles: 249193261 heartbeat IPC: 1.27419 cumulative IPC: 0.924476 (Simulation time: 1 hr 14 min 52 sec) 
Heartbeat CPU 0 instructions: 550000001 cycles: 249226862 heartbeat IPC: 1.53971 cumulative IPC: 1.54212 (Simulation time: 1 hr 14 min 52 sec) 
Heartbeat CPU 1 instructions: 560000000 cycles: 252983601 heartbeat IPC: 1.42549 cumulative IPC: 1.51987 (Simulation time: 1 hr 15 min 41 sec) 
Heartbeat CPU 0 instructions: 560000000 cycles: 255673587 heartbeat IPC: 1.55117 cumulative IPC: 1.54344 (Simulation time: 1 hr 16 min 16 sec) 
Heartbeat CPU 2 instructions: 500000000 cycles: 257101658 heartbeat IPC: 1.26448 cumulative IPC: 0.983336 (Simulation time: 1 hr 16 min 35 sec) 
Heartbeat CPU 1 instructions: 570000000 cycles: 259309255 heartbeat IPC: 1.58086 cumulative IPC: 1.52793 (Simulation time: 1 hr 17 min 3 sec) 
Heartbeat CPU 0 instructions: 570000000 cycles: 262200632 heartbeat IPC: 1.53209 cumulative IPC: 1.54198 (Simulation time: 1 hr 17 min 40 sec) 
Heartbeat CPU 2 instructions: 510000000 cycles: 265195574 heartbeat IPC: 1.2355 cumulative IPC: 1.02129 (Simulation time: 1 hr 18 min 19 sec) 
Heartbeat CPU 1 instructions: 580000000 cycles: 265715086 heartbeat IPC: 1.56108 cumulative IPC: 1.53184 (Simulation time: 1 hr 18 min 25 sec) 
Heartbeat CPU 0 instructions: 580000000 cycles: 268661443 heartbeat IPC: 1.54779 cumulative IPC: 1.54264 (Simulation time: 1 hr 19 min 1 sec) 
Heartbeat CPU 3 instructions: 210000000 cycles: 269340472 heartbeat IPC: 0.172647 cumulative IPC: 0.172647 (Simulation time: 1 hr 19 min 10 sec) 
Heartbeat CPU 2 instructions: 520000000 cycles: 272526879 heartbeat IPC: 1.36401 cumulative IPC: 1.06241 (Simulation time: 1 hr 19 min 51 sec) 
Heartbeat CPU 1 instructions: 590000003 cycles: 273192185 heartbeat IPC: 1.33742 cumulative IPC: 1.50831 (Simulation time: 1 hr 20 min 0 sec) 
Heartbeat CPU 0 instructions: 590000002 cycles: 275207929 heartbeat IPC: 1.52754 cumulative IPC: 1.54109 (Simulation time: 1 hr 20 min 28 sec) 
Heartbeat CPU 1 instructions: 600000000 cycles: 279319706 heartbeat IPC: 1.63198 cumulative IPC: 1.51947 (Simulation time: 1 hr 21 min 29 sec) 
Heartbeat CPU 2 instructions: 530000003 cycles: 280233561 heartbeat IPC: 1.29758 cumulative IPC: 1.08874 (Simulation time: 1 hr 21 min 42 sec) 
Heartbeat CPU 0 instructions: 600000000 cycles: 281732884 heartbeat IPC: 1.53258 cumulative IPC: 1.5403 (Simulation time: 1 hr 22 min 4 sec) 
Heartbeat CPU 1 instructions: 610000002 cycles: 285560835 heartbeat IPC: 1.60227 cumulative IPC: 1.52644 (Simulation time: 1 hr 22 min 59 sec) 
Heartbeat CPU 0 instructions: 610000003 cycles: 288296856 heartbeat IPC: 1.52347 cumulative IPC: 1.53886 (Simulation time: 1 hr 23 min 34 sec) 
Heartbeat CPU 2 instructions: 540000000 cycles: 288574757 heartbeat IPC: 1.19887 cumulative IPC: 1.10065 (Simulation time: 1 hr 23 min 38 sec) 
Heartbeat CPU 1 instructions: 620000000 cycles: 291665572 heartbeat IPC: 1.63807 cumulative IPC: 1.53493 (Simulation time: 1 hr 24 min 19 sec) 
Heartbeat CPU 0 instructions: 620000000 cycles: 294744873 heartbeat IPC: 1.55086 cumulative IPC: 1.53979 (Simulation time: 1 hr 25 min 0 sec) 
Heartbeat CPU 2 instructions: 550000000 cycles: 297468631 heartbeat IPC: 1.12437 cumulative IPC: 1.1031 (Simulation time: 1 hr 25 min 35 sec) 
Heartbeat CPU 1 instructions: 630000003 cycles: 298560975 heartbeat IPC: 1.45024 cumulative IPC: 1.52823 (Simulation time: 1 hr 25 min 47 sec) 
Heartbeat CPU 0 instructions: 630000000 cycles: 301235355 heartbeat IPC: 1.54072 cumulative IPC: 1.53986 (Simulation time: 1 hr 26 min 17 sec) 
Heartbeat CPU 1 instructions: 640000000 cycles: 305539632 heartbeat IPC: 1.43294 cumulative IPC: 1.52116 (Simulation time: 1 hr 27 min 7 sec) 
Heartbeat CPU 0 instructions: 640000000 cycles: 307686933 heartbeat IPC: 1.55001 cumulative IPC: 1.54054 (Simulation time: 1 hr 27 min 32 sec) 
Heartbeat CPU 2 instructions: 560000000 cycles: 311112986 heartbeat IPC: 0.732904 cumulative IPC: 1.05243 (Simulation time: 1 hr 28 min 13 sec) 
Heartbeat CPU 1 instructions: 650000000 cycles: 311769068 heartbeat IPC: 1.60528 cumulative IPC: 1.52639 (Simulation time: 1 hr 28 min 21 sec) 
Heartbeat CPU 0 instructions: 650000001 cycles: 314092963 heartbeat IPC: 1.56103 cumulative IPC: 1.54181 (Simulation time: 1 hr 28 min 50 sec) 
Heartbeat CPU 1 instructions: 660000000 cycles: 318744745 heartbeat IPC: 1.43355 cumulative IPC: 1.52035 (Simulation time: 1 hr 29 min 43 sec) 
Heartbeat CPU 2 instructions: 570000002 cycles: 319553815 heartbeat IPC: 1.18472 cumulative IPC: 1.06276 (Simulation time: 1 hr 29 min 54 sec) 
Heartbeat CPU 0 instructions: 660000000 cycles: 320578398 heartbeat IPC: 1.54192 cumulative IPC: 1.54182 (Simulation time: 1 hr 30 min 7 sec) 
Heartbeat CPU 1 instructions: 670000001 cycles: 325241176 heartbeat IPC: 1.53931 cumulative IPC: 1.52143 (Simulation time: 1 hr 31 min 1 sec) 
Heartbeat CPU 3 instructions: 220000000 cycles: 327009306 heartbeat IPC: 0.173404 cumulative IPC: 0.173025 (Simulation time: 1 hr 31 min 23 sec) 
Heartbeat CPU 0 instructions: 670000002 cycles: 327118413 heartbeat IPC: 1.52905 cumulative IPC: 1.5411 (Simulation time: 1 hr 31 min 24 sec) 
Heartbeat CPU 2 instructions: 580000000 cycles: 328730215 heartbeat IPC: 1.08975 cumulative IPC: 1.06487 (Simulation time: 1 hr 31 min 44 sec) 
Heartbeat CPU 1 instructions: 680000000 cycles: 331751134 heartbeat IPC: 1.53611 cumulative IPC: 1.52223 (Simulation time: 1 hr 32 min 18 sec) 
Heartbeat CPU 0 instructions: 680000000 cycles: 333653285 heartbeat IPC: 1.53025 cumulative IPC: 1.54052 (Simulation time: 1 hr 32 min 40 sec) 
Heartbeat CPU 1 instructions: 690000003 cycles: 338257400 heartbeat IPC: 1.53698 cumulative IPC: 1.52298 (Simulation time: 1 hr 33 min 33 sec) 
Heartbeat CPU 0 instructions: 690000001 cycles: 340147314 heartbeat IPC: 1.53988 cumulative IPC: 1.54049 (Simulation time: 1 hr 33 min 55 sec) 
Heartbeat CPU 2 instructions: 590000001 cycles: 341720041 heartbeat IPC: 0.769833 cumulative IPC: 1.03546 (Simulation time: 1 hr 34 min 16 sec) 
Heartbeat CPU 1 instructions: 700000000 cycles: 344731267 heartbeat IPC: 1.54467 cumulative IPC: 1.52404 (Simulation time: 1 hr 34 min 50 sec) 
Heartbeat CPU 0 instructions: 700000000 cycles: 346578719 heartbeat IPC: 1.55487 cumulative IPC: 1.54117 (Simulation time: 1 hr 35 min 13 sec) 
Heartbeat CPU 1 instructions: 710000000 cycles: 351757855 heartbeat IPC: 1.42317 cumulative IPC: 1.51899 (Simulation time: 1 hr 36 min 15 sec) 
Heartbeat CPU 2 instructions: 600000000 cycles: 352370017 heartbeat IPC: 0.938969 cumulative IPC: 1.02817 (Simulation time: 1 hr 36 min 23 sec) 
Heartbeat CPU 0 instructions: 710000000 cycles: 353056940 heartbeat IPC: 1.54363 cumulative IPC: 1.54128 (Simulation time: 1 hr 36 min 31 sec) 
Heartbeat CPU 1 instructions: 720000000 cycles: 358824795 heartbeat IPC: 1.41504 cumulative IPC: 1.514 (Simulation time: 1 hr 37 min 40 sec) 
Heartbeat CPU 0 instructions: 720000000 cycles: 359462391 heartbeat IPC: 1.56117 cumulative IPC: 1.54214 (Simulation time: 1 hr 37 min 48 sec) 
Heartbeat CPU 2 instructions: 610000003 cycles: 363019875 heartbeat IPC: 0.93898 cumulative IPC: 1.0219 (Simulation time: 1 hr 38 min 30 sec) 
Heartbeat CPU 1 instructions: 730000002 cycles: 365260829 heartbeat IPC: 1.55375 cumulative IPC: 1.51567 (Simulation time: 1 hr 38 min 57 sec) 
Heartbeat CPU 0 instructions: 730000003 cycles: 365956099 heartbeat IPC: 1.53995 cumulative IPC: 1.54205 (Simulation time: 1 hr 39 min 5 sec) 
Heartbeat CPU 1 instructions: 740000000 cycles: 371710667 heartbeat IPC: 1.55043 cumulative IPC: 1.51707 (Simulation time: 1 hr 40 min 12 sec) 
Heartbeat CPU 0 instructions: 740000000 cycles: 372361359 heartbeat IPC: 1.56122 cumulative IPC: 1.54281 (Simulation time: 1 hr 40 min 19 sec) 
Heartbeat CPU 2 instructions: 620000000 cycles: 375436091 heartbeat IPC: 0.805398 cumulative IPC: 1.00551 (Simulation time: 1 hr 40 min 56 sec) 
Heartbeat CPU 1 instructions: 750000001 cycles: 378719002 heartbeat IPC: 1.42687 cumulative IPC: 1.51329 (Simulation time: 1 hr 41 min 36 sec) 
Heartbeat CPU 0 instructions: 750000000 cycles: 378800292 heartbeat IPC: 1.55305 cumulative IPC: 1.54321 (Simulation time: 1 hr 41 min 37 sec) 
Heartbeat CPU 1 instructions: 760000000 cycles: 385157420 heartbeat IPC: 1.55318 cumulative IPC: 1.51477 (Simulation time: 1 hr 42 min 55 sec) 
Heartbeat CPU 0 instructions: 760000000 cycles: 385209689 heartbeat IPC: 1.56021 cumulative IPC: 1.54384 (Simulation time: 1 hr 42 min 55 sec) 
Heartbeat CPU 2 instructions: 630000003 cycles: 385395013 heartbeat IPC: 1.00412 cumulative IPC: 1.00543 (Simulation time: 1 hr 42 min 58 sec) 
Heartbeat CPU 3 instructions: 230000002 cycles: 385974375 heartbeat IPC: 0.169592 cumulative IPC: 0.171865 (Simulation time: 1 hr 43 min 5 sec) 
Heartbeat CPU 1 instructions: 770000000 cycles: 391568826 heartbeat IPC: 1.55972 cumulative IPC: 1.51637 (Simulation time: 1 hr 44 min 13 sec) 
Heartbeat CPU 0 instructions: 770000000 cycles: 391578941 heartbeat IPC: 1.57004 cumulative IPC: 1.54476 (Simulation time: 1 hr 44 min 13 sec) 
Heartbeat CPU 2 instructions: 640000000 cycles: 396174705 heartbeat IPC: 0.92767 cumulative IPC: 1.0009 (Simulation time: 1 hr 45 min 8 sec) 
Heartbeat CPU 1 instructions: 780000000 cycles: 397976028 heartbeat IPC: 1.56074 cumulative IPC: 1.51789 (Simulation time: 1 hr 45 min 30 sec) 
Heartbeat CPU 0 instructions: 780000000 cycles: 398034509 heartbeat IPC: 1.54905 cumulative IPC: 1.54491 (Simulation time: 1 hr 45 min 30 sec) 
Heartbeat CPU 0 instructions: 790000001 cycles: 404425908 heartbeat IPC: 1.5646 cumulative IPC: 1.54556 (Simulation time: 1 hr 46 min 43 sec) 
Heartbeat CPU 1 instructions: 790000000 cycles: 405674512 heartbeat IPC: 1.29896 cumulative IPC: 1.50921 (Simulation time: 1 hr 46 min 57 sec) 
Heartbeat CPU 2 instructions: 650000000 cycles: 407892831 heartbeat IPC: 0.853379 cumulative IPC: 0.992098 (Simulation time: 1 hr 47 min 22 sec) 
Heartbeat CPU 0 instructions: 800000000 cycles: 410869961 heartbeat IPC: 1.55182 cumulative IPC: 1.54576 (Simulation time: 1 hr 47 min 59 sec) 
Heartbeat CPU 1 instructions: 800000000 cycles: 412887860 heartbeat IPC: 1.38632 cumulative IPC: 1.50481 (Simulation time: 1 hr 48 min 23 sec) 
Heartbeat CPU 0 instructions: 810000001 cycles: 417294161 heartbeat IPC: 1.55661 cumulative IPC: 1.5461 (Simulation time: 1 hr 49 min 14 sec) 
Heartbeat CPU 2 instructions: 660000000 cycles: 418387090 heartbeat IPC: 0.952902 cumulative IPC: 0.990111 (Simulation time: 1 hr 49 min 26 sec) 
Heartbeat CPU 1 instructions: 810000002 cycles: 419777993 heartbeat IPC: 1.45135 cumulative IPC: 1.50305 (Simulation time: 1 hr 49 min 41 sec) 
Heartbeat CPU 0 instructions: 820000000 cycles: 423734832 heartbeat IPC: 1.55263 cumulative IPC: 1.5463 (Simulation time: 1 hr 50 min 26 sec) 
Heartbeat CPU 1 instructions: 820000000 cycles: 426161937 heartbeat IPC: 1.56643 cumulative IPC: 1.50493 (Simulation time: 1 hr 50 min 54 sec) 
Heartbeat CPU 0 instructions: 830000002 cycles: 430918434 heartbeat IPC: 1.39206 cumulative IPC: 1.54125 (Simulation time: 1 hr 51 min 43 sec) 
Heartbeat CPU 2 instructions: 670000001 cycles: 431071551 heartbeat IPC: 0.788366 cumulative IPC: 0.978461 (Simulation time: 1 hr 51 min 45 sec) 
Heartbeat CPU 1 instructions: 830000003 cycles: 433101062 heartbeat IPC: 1.4411 cumulative IPC: 1.50293 (Simulation time: 1 hr 52 min 5 sec) 
Heartbeat CPU 1 instructions: 840000000 cycles: 439522186 heartbeat IPC: 1.55736 cumulative IPC: 1.50446 (Simulation time: 1 hr 53 min 15 sec) 
Heartbeat CPU 0 instructions: 840000000 cycles: 439743132 heartbeat IPC: 1.13318 cumulative IPC: 1.52548 (Simulation time: 1 hr 53 min 17 sec) 
Heartbeat CPU 2 instructions: 680000000 cycles: 441005212 heartbeat IPC: 1.00668 cumulative IPC: 0.979682 (Simulation time: 1 hr 53 min 30 sec) 
Heartbeat CPU 3 instructions: 240000000 cycles: 444699261 heartbeat IPC: 0.170286 cumulative IPC: 0.171467 (Simulation time: 1 hr 54 min 11 sec) 
Heartbeat CPU 1 instructions: 850000000 cycles: 446477071 heartbeat IPC: 1.43784 cumulative IPC: 1.50249 (Simulation time: 1 hr 54 min 31 sec) 
Heartbeat CPU 0 instructions: 850000003 cycles: 447010884 heartbeat IPC: 1.37594 cumulative IPC: 1.52087 (Simulation time: 1 hr 54 min 37 sec) 
Heartbeat CPU 2 instructions: 690000000 cycles: 451393083 heartbeat IPC: 0.962661 cumulative IPC: 0.978945 (Simulation time: 1 hr 55 min 26 sec) 
Heartbeat CPU 1 instructions: 860000000 cycles: 453472826 heartbeat IPC: 1.42944 cumulative IPC: 1.50038 (Simulation time: 1 hr 55 min 48 sec) 
Heartbeat CPU 0 instructions: 860000000 cycles: 453842540 heartbeat IPC: 1.46377 cumulative IPC: 1.51926 (Simulation time: 1 hr 55 min 52 sec) 
Heartbeat CPU 0 instructions: 870000000 cycles: 460507751 heartbeat IPC: 1.50033 cumulative IPC: 1.51875 (Simulation time: 1 hr 56 min 58 sec) 
Heartbeat CPU 1 instructions: 870000000 cycles: 462808895 heartbeat IPC: 1.07111 cumulative IPC: 1.48444 (Simulation time: 1 hr 57 min 22 sec) 
Heartbeat CPU 2 instructions: 700000000 cycles: 464876381 heartbeat IPC: 0.741658 cumulative IPC: 0.966322 (Simulation time: 1 hr 57 min 44 sec) 
Heartbeat CPU 0 instructions: 880000000 cycles: 467153488 heartbeat IPC: 1.50472 cumulative IPC: 1.51839 (Simulation time: 1 hr 58 min 5 sec) 
Heartbeat CPU 1 instructions: 880000000 cycles: 470871674 heartbeat IPC: 1.24027 cumulative IPC: 1.47685 (Simulation time: 1 hr 58 min 41 sec) 
Heartbeat CPU 0 instructions: 890000000 cycles: 474443468 heartbeat IPC: 1.37175 cumulative IPC: 1.51432 (Simulation time: 1 hr 59 min 20 sec) 
Heartbeat CPU 1 instructions: 890000000 cycles: 477133691 heartbeat IPC: 1.59693 cumulative IPC: 1.47968 (Simulation time: 1 hr 59 min 50 sec) 
Heartbeat CPU 2 instructions: 710000001 cycles: 478285018 heartbeat IPC: 0.745788 cumulative IPC: 0.955241 (Simulation time: 2 hr 0 min 4 sec) 
Heartbeat CPU 0 instructions: 900000000 cycles: 481154589 heartbeat IPC: 1.49006 cumulative IPC: 1.51372 (Simulation time: 2 hr 0 min 39 sec) 
Heartbeat CPU 1 instructions: 900000000 cycles: 483399898 heartbeat IPC: 1.59586 cumulative IPC: 1.48236 (Simulation time: 2 hr 1 min 6 sec) 
Heartbeat CPU 2 instructions: 720000000 cycles: 487020843 heartbeat IPC: 1.14471 cumulative IPC: 0.961247 (Simulation time: 2 hr 1 min 50 sec) 
Heartbeat CPU 0 instructions: 910000003 cycles: 487922555 heartbeat IPC: 1.47755 cumulative IPC: 1.51283 (Simulation time: 2 hr 2 min 1 sec) 
Heartbeat CPU 1 instructions: 910000002 cycles: 489594360 heartbeat IPC: 1.61435 cumulative IPC: 1.4853 (Simulation time: 2 hr 2 min 21 sec) 
Heartbeat CPU 0 instructions: 920000000 cycles: 494645817 heartbeat IPC: 1.48737 cumulative IPC: 1.51223 (Simulation time: 2 hr 3 min 21 sec) 
Heartbeat CPU 1 instructions: 920000000 cycles: 495862795 heartbeat IPC: 1.59529 cumulative IPC: 1.48772 (Simulation time: 2 hr 3 min 35 sec) 
Heartbeat CPU 2 instructions: 730000001 cycles: 496360531 heartbeat IPC: 1.0707 cumulative IPC: 0.964834 (Simulation time: 2 hr 3 min 41 sec) 
Heartbeat CPU 0 instructions: 930000002 cycles: 501432081 heartbeat IPC: 1.47357 cumulative IPC: 1.51133 (Simulation time: 2 hr 4 min 41 sec) 
Heartbeat CPU 1 instructions: 930000001 cycles: 502116382 heartbeat IPC: 1.59908 cumulative IPC: 1.49012 (Simulation time: 2 hr 4 min 50 sec) 
Heartbeat CPU 3 instructions: 250000002 cycles: 503356171 heartbeat IPC: 0.170483 cumulative IPC: 0.17127 (Simulation time: 2 hr 5 min 4 sec) 
Heartbeat CPU 2 instructions: 740000000 cycles: 505273504 heartbeat IPC: 1.12196 cumulative IPC: 0.9696 (Simulation time: 2 hr 5 min 27 sec) 
Heartbeat CPU 0 instructions: 940000000 cycles: 508215258 heartbeat IPC: 1.47424 cumulative IPC: 1.51048 (Simulation time: 2 hr 6 min 2 sec) 
Heartbeat CPU 1 instructions: 940000000 cycles: 508361306 heartbeat IPC: 1.6013 cumulative IPC: 1.49245 (Simulation time: 2 hr 6 min 4 sec) 
Heartbeat CPU 1 instructions: 950000002 cycles: 514646191 heartbeat IPC: 1.59112 cumulative IPC: 1.4945 (Simulation time: 2 hr 7 min 16 sec) 
Heartbeat CPU 0 instructions: 950000003 cycles: 515017282 heartbeat IPC: 1.47015 cumulative IPC: 1.50957 (Simulation time: 2 hr 7 min 21 sec) 
Heartbeat CPU 2 instructions: 750000001 cycles: 515165313 heartbeat IPC: 1.01094 cumulative IPC: 0.970946 (Simulation time: 2 hr 7 min 22 sec) 
Heartbeat CPU 0 instructions: 960000000 cycles: 521877154 heartbeat IPC: 1.45775 cumulative IPC: 1.50843 (Simulation time: 2 hr 8 min 41 sec) 
Heartbeat CPU 1 instructions: 960000000 cycles: 522186611 heartbeat IPC: 1.32619 cumulative IPC: 1.49042 (Simulation time: 2 hr 8 min 45 sec) 
Heartbeat CPU 2 instructions: 760000000 cycles: 523958227 heartbeat IPC: 1.13728 cumulative IPC: 0.975626 (Simulation time: 2 hr 9 min 7 sec) 
Heartbeat CPU 1 instructions: 970000002 cycles: 528440256 heartbeat IPC: 1.59907 cumulative IPC: 1.49256 (Simulation time: 2 hr 10 min 3 sec) 
Heartbeat CPU 0 instructions: 970000000 cycles: 528698981 heartbeat IPC: 1.46588 cumulative IPC: 1.50751 (Simulation time: 2 hr 10 min 6 sec) 
Heartbeat CPU 2 instructions: 770000001 cycles: 533303696 heartbeat IPC: 1.07004 cumulative IPC: 0.978367 (Simulation time: 2 hr 11 min 4 sec) 
Heartbeat CPU 1 instructions: 980000000 cycles: 534770762 heartbeat IPC: 1.57965 cumulative IPC: 1.49426 (Simulation time: 2 hr 11 min 22 sec) 
Heartbeat CPU 0 instructions: 980000000 cycles: 535447886 heartbeat IPC: 1.48172 cumulative IPC: 1.50698 (Simulation time: 2 hr 11 min 31 sec) 
Heartbeat CPU 1 instructions: 990000002 cycles: 541638894 heartbeat IPC: 1.456 cumulative IPC: 1.49347 (Simulation time: 2 hr 12 min 42 sec) 
Heartbeat CPU 0 instructions: 990000001 cycles: 542236352 heartbeat IPC: 1.47309 cumulative IPC: 1.50628 (Simulation time: 2 hr 12 min 49 sec) 
Heartbeat CPU 2 instructions: 780000000 cycles: 543553366 heartbeat IPC: 0.975641 cumulative IPC: 0.978283 (Simulation time: 2 hr 13 min 4 sec) 
Heartbeat CPU 1 instructions: 1000000000 cycles: 547942648 heartbeat IPC: 1.58636 cumulative IPC: 1.49521 (Simulation time: 2 hr 13 min 56 sec) 
Heartbeat CPU 0 instructions: 1000000000 cycles: 549041142 heartbeat IPC: 1.46955 cumulative IPC: 1.50554 (Simulation time: 2 hr 14 min 9 sec) 
Heartbeat CPU 2 instructions: 790000000 cycles: 553995937 heartbeat IPC: 0.957619 cumulative IPC: 0.977653 (Simulation time: 2 hr 15 min 9 sec) 
Heartbeat CPU 1 instructions: 1010000000 cycles: 554322380 heartbeat IPC: 1.56746 cumulative IPC: 1.49655 (Simulation time: 2 hr 15 min 13 sec) 
Heartbeat CPU 0 instructions: 1010000003 cycles: 556489144 heartbeat IPC: 1.34264 cumulative IPC: 1.50203 (Simulation time: 2 hr 15 min 40 sec) 
Heartbeat CPU 3 instructions: 260000000 cycles: 560833992 heartbeat IPC: 0.17398 cumulative IPC: 0.171716 (Simulation time: 2 hr 16 min 34 sec) 
Heartbeat CPU 1 instructions: 1020000000 cycles: 561201108 heartbeat IPC: 1.45376 cumulative IPC: 1.49571 (Simulation time: 2 hr 16 min 38 sec) 
Heartbeat CPU 2 instructions: 800000000 cycles: 562806869 heartbeat IPC: 1.13495 cumulative IPC: 0.981597 (Simulation time: 2 hr 16 min 58 sec) 
Heartbeat CPU 0 instructions: 1020000000 cycles: 563458061 heartbeat IPC: 1.43494 cumulative IPC: 1.5007 (Simulation time: 2 hr 17 min 6 sec) 
Heartbeat CPU 1 instructions: 1030000000 cycles: 567418842 heartbeat IPC: 1.6083 cumulative IPC: 1.49768 (Simulation time: 2 hr 17 min 56 sec) 
Heartbeat CPU 0 instructions: 1030000001 cycles: 570467164 heartbeat IPC: 1.42672 cumulative IPC: 1.49925 (Simulation time: 2 hr 18 min 33 sec) 
Heartbeat CPU 2 instructions: 810000000 cycles: 572173063 heartbeat IPC: 1.06767 cumulative IPC: 0.983832 (Simulation time: 2 hr 18 min 54 sec) 
Heartbeat CPU 1 instructions: 1040000000 cycles: 573834896 heartbeat IPC: 1.55859 cumulative IPC: 1.49876 (Simulation time: 2 hr 19 min 14 sec) 
Heartbeat CPU 0 instructions: 1040000000 cycles: 577497746 heartbeat IPC: 1.42236 cumulative IPC: 1.49778 (Simulation time: 2 hr 19 min 54 sec) 
Heartbeat CPU 1 instructions: 1050000001 cycles: 581600564 heartbeat IPC: 1.28772 cumulative IPC: 1.49433 (Simulation time: 2 hr 20 min 40 sec) 
Heartbeat CPU 2 instructions: 820000000 cycles: 582107699 heartbeat IPC: 1.00658 cumulative IPC: 0.984442 (Simulation time: 2 hr 20 min 46 sec) 
Heartbeat CPU 0 instructions: 1050000000 cycles: 584595711 heartbeat IPC: 1.40885 cumulative IPC: 1.49609 (Simulation time: 2 hr 21 min 15 sec) 
Heartbeat CPU 1 instructions: 1060000000 cycles: 588037595 heartbeat IPC: 1.55351 cumulative IPC: 1.49534 (Simulation time: 2 hr 21 min 56 sec) 
Heartbeat CPU 0 instructions: 1060000000 cycles: 591107792 heartbeat IPC: 1.53561 cumulative IPC: 1.49676 (Simulation time: 2 hr 22 min 35 sec) 
Heartbeat CPU 2 instructions: 830000002 cycles: 592492969 heartbeat IPC: 0.962902 cumulative IPC: 0.983855 (Simulation time: 2 hr 22 min 52 sec) 
Heartbeat CPU 1 instructions: 1070000002 cycles: 594464922 heartbeat IPC: 1.55586 cumulative IPC: 1.49636 (Simulation time: 2 hr 23 min 17 sec) 
Heartbeat CPU 0 instructions: 1070000001 cycles: 597687281 heartbeat IPC: 1.51988 cumulative IPC: 1.49716 (Simulation time: 2 hr 23 min 59 sec) 
Heartbeat CPU 1 instructions: 1080000000 cycles: 600747007 heartbeat IPC: 1.59183 cumulative IPC: 1.4979 (Simulation time: 2 hr 24 min 38 sec) 
Heartbeat CPU 2 instructions: 840000000 cycles: 601347192 heartbeat IPC: 1.1294 cumulative IPC: 0.98716 (Simulation time: 2 hr 24 min 45 sec) 
Heartbeat CPU 0 instructions: 1080000000 cycles: 604259240 heartbeat IPC: 1.52162 cumulative IPC: 1.49757 (Simulation time: 2 hr 25 min 20 sec) 
Heartbeat CPU 1 instructions: 1090000003 cycles: 607810640 heartbeat IPC: 1.4157 cumulative IPC: 1.49643 (Simulation time: 2 hr 26 min 3 sec) 
Heartbeat CPU 2 instructions: 850000000 cycles: 610707643 heartbeat IPC: 1.06832 cumulative IPC: 0.989062 (Simulation time: 2 hr 26 min 39 sec) 
Heartbeat CPU 0 instructions: 1090000002 cycles: 610967622 heartbeat IPC: 1.49067 cumulative IPC: 1.49745 (Simulation time: 2 hr 26 min 42 sec) 
Heartbeat CPU 1 instructions: 1100000000 cycles: 614278694 heartbeat IPC: 1.54606 cumulative IPC: 1.49723 (Simulation time: 2 hr 27 min 24 sec) 
Heartbeat CPU 0 instructions: 1100000000 cycles: 617567189 heartbeat IPC: 1.51525 cumulative IPC: 1.49774 (Simulation time: 2 hr 27 min 59 sec) 
Heartbeat CPU 3 instructions: 270000002 cycles: 618571807 heartbeat IPC: 0.173197 cumulative IPC: 0.171926 (Simulation time: 2 hr 28 min 10 sec) 
Heartbeat CPU 2 instructions: 860000000 cycles: 621261661 heartbeat IPC: 0.947506 cumulative IPC: 0.987992 (Simulation time: 2 hr 28 min 40 sec) 
Heartbeat CPU 1 instructions: 1110000002 cycles: 621384660 heartbeat IPC: 1.40727 cumulative IPC: 1.49567 (Simulation time: 2 hr 28 min 41 sec) 
Heartbeat CPU 0 instructions: 1110000003 cycles: 624241713 heartbeat IPC: 1.49823 cumulative IPC: 1.49775 (Simulation time: 2 hr 29 min 13 sec) 
Heartbeat CPU 1 instructions: 1120000000 cycles: 627825465 heartbeat IPC: 1.5526 cumulative IPC: 1.49655 (Simulation time: 2 hr 29 min 55 sec) 
Heartbeat CPU 0 instructions: 1120000000 cycles: 630897189 heartbeat IPC: 1.50252 cumulative IPC: 1.49782 (Simulation time: 2 hr 30 min 35 sec) 
Heartbeat CPU 2 instructions: 870000001 cycles: 631955339 heartbeat IPC: 0.935132 cumulative IPC: 0.986648 (Simulation time: 2 hr 30 min 49 sec) 
Heartbeat CPU 1 instructions: 1130000001 cycles: 634808411 heartbeat IPC: 1.43206 cumulative IPC: 1.49549 (Simulation time: 2 hr 31 min 23 sec) 
Heartbeat CPU 0 instructions: 1130000000 cycles: 638019056 heartbeat IPC: 1.40413 cumulative IPC: 1.49626 (Simulation time: 2 hr 32 min 3 sec) 
Heartbeat CPU 2 instructions: 880000000 cycles: 640792132 heartbeat IPC: 1.13163 cumulative IPC: 0.989632 (Simulation time: 2 hr 32 min 38 sec) 
Heartbeat CPU 1 instructions: 1140000000 cycles: 641223528 heartbeat IPC: 1.55882 cumulative IPC: 1.49643 (Simulation time: 2 hr 32 min 43 sec) 
Heartbeat CPU 0 instructions: 1140000000 cycles: 644683535 heartbeat IPC: 1.50049 cumulative IPC: 1.49632 (Simulation time: 2 hr 33 min 25 sec) 
Heartbeat CPU 1 instructions: 1150000000 cycles: 648168593 heartbeat IPC: 1.43987 cumulative IPC: 1.49553 (Simulation time: 2 hr 34 min 5 sec) 
Heartbeat CPU 2 instructions: 890000002 cycles: 650173683 heartbeat IPC: 1.06592 cumulative IPC: 0.991263 (Simulation time: 2 hr 34 min 28 sec) 
Heartbeat CPU 0 instructions: 1150000000 cycles: 651367351 heartbeat IPC: 1.49615 cumulative IPC: 1.49632 (Simulation time: 2 hr 34 min 42 sec) 
Heartbeat CPU 1 instructions: 1160000000 cycles: 654912112 heartbeat IPC: 1.48291 cumulative IPC: 1.49534 (Simulation time: 2 hr 35 min 21 sec) 
Heartbeat CPU 0 instructions: 1160000000 cycles: 657981558 heartbeat IPC: 1.5119 cumulative IPC: 1.49655 (Simulation time: 2 hr 35 min 53 sec) 
Heartbeat CPU 2 instructions: 900000000 cycles: 660809414 heartbeat IPC: 0.940227 cumulative IPC: 0.990055 (Simulation time: 2 hr 36 min 22 sec) 
Heartbeat CPU 1 instructions: 1170000002 cycles: 661675594 heartbeat IPC: 1.47853 cumulative IPC: 1.49509 (Simulation time: 2 hr 36 min 31 sec) 
Heartbeat CPU 0 instructions: 1170000000 cycles: 666099646 heartbeat IPC: 1.23182 cumulative IPC: 1.49183 (Simulation time: 2 hr 37 min 18 sec) 
Heartbeat CPU 1 instructions: 1180000000 cycles: 668527649 heartbeat IPC: 1.45942 cumulative IPC: 1.49455 (Simulation time: 2 hr 37 min 44 sec) 
Heartbeat CPU 0 instructions: 1180000000 cycles: 672659286 heartbeat IPC: 1.52447 cumulative IPC: 1.49229 (Simulation time: 2 hr 38 min 29 sec) 
Heartbeat CPU 2 instructions: 910000000 cycles: 674327539 heartbeat IPC: 0.739748 cumulative IPC: 0.982746 (Simulation time: 2 hr 38 min 47 sec) 
Heartbeat CPU 1 instructions: 1190000000 cycles: 675635667 heartbeat IPC: 1.40686 cumulative IPC: 1.49321 (Simulation time: 2 hr 39 min 2 sec) 
Heartbeat CPU 3 instructions: 280000000 cycles: 676082283 heartbeat IPC: 0.173881 cumulative IPC: 0.172168 (Simulation time: 2 hr 39 min 7 sec) 
Heartbeat CPU 0 instructions: 1190000001 cycles: 679263346 heartbeat IPC: 1.51422 cumulative IPC: 1.4926 (Simulation time: 2 hr 39 min 41 sec) 
Heartbeat CPU 1 instructions: 1200000000 cycles: 683083619 heartbeat IPC: 1.34265 cumulative IPC: 1.49083 (Simulation time: 2 hr 40 min 22 sec) 
Heartbeat CPU 0 instructions: 1200000000 cycles: 685969958 heartbeat IPC: 1.49107 cumulative IPC: 1.49258 (Simulation time: 2 hr 40 min 54 sec) 
Heartbeat CPU 2 instructions: 920000000 cycles: 689246874 heartbeat IPC: 0.670271 cumulative IPC: 0.972989 (Simulation time: 2 hr 41 min 31 sec) 
Heartbeat CPU 1 instructions: 1210000000 cycles: 689434060 heartbeat IPC: 1.57469 cumulative IPC: 1.49195 (Simulation time: 2 hr 41 min 33 sec) 
Heartbeat CPU 0 instructions: 1210000002 cycles: 692488133 heartbeat IPC: 1.53417 cumulative IPC: 1.49314 (Simulation time: 2 hr 42 min 6 sec) 
Heartbeat CPU 1 instructions: 1220000000 cycles: 696443008 heartbeat IPC: 1.42675 cumulative IPC: 1.491 (Simulation time: 2 hr 42 min 49 sec) 
Heartbeat CPU 0 instructions: 1220000000 cycles: 699527159 heartbeat IPC: 1.42065 cumulative IPC: 1.4921 (Simulation time: 2 hr 43 min 23 sec) 
Heartbeat CPU 1 instructions: 1230000001 cycles: 704003151 heartbeat IPC: 1.32273 cumulative IPC: 1.48842 (Simulation time: 2 hr 44 min 12 sec) 
Heartbeat CPU 2 instructions: 930000000 cycles: 704173609 heartbeat IPC: 0.669939 cumulative IPC: 0.963809 (Simulation time: 2 hr 44 min 14 sec) 
Heartbeat CPU 0 instructions: 1230000000 cycles: 705808272 heartbeat IPC: 1.59207 cumulative IPC: 1.49337 (Simulation time: 2 hr 44 min 33 sec) 
Heartbeat CPU 1 instructions: 1240000000 cycles: 710245060 heartbeat IPC: 1.60207 cumulative IPC: 1.48984 (Simulation time: 2 hr 45 min 25 sec) 
Heartbeat CPU 0 instructions: 1240000000 cycles: 712127857 heartbeat IPC: 1.58238 cumulative IPC: 1.49449 (Simulation time: 2 hr 45 min 47 sec) 
Heartbeat CPU 1 instructions: 1250000000 cycles: 716579726 heartbeat IPC: 1.57862 cumulative IPC: 1.49096 (Simulation time: 2 hr 46 min 37 sec) 
Heartbeat CPU 0 instructions: 1250000001 cycles: 718511363 heartbeat IPC: 1.56654 cumulative IPC: 1.4954 (Simulation time: 2 hr 46 min 58 sec) 
Heartbeat CPU 2 instructions: 940000000 cycles: 719091544 heartbeat IPC: 0.670334 cumulative IPC: 0.955185 (Simulation time: 2 hr 47 min 4 sec) 
Heartbeat CPU 1 instructions: 1260000000 cycles: 722917993 heartbeat IPC: 1.57772 cumulative IPC: 1.49203 (Simulation time: 2 hr 47 min 46 sec) 
Heartbeat CPU 0 instructions: 1260000000 cycles: 725242102 heartbeat IPC: 1.48572 cumulative IPC: 1.49527 (Simulation time: 2 hr 48 min 11 sec) 
Heartbeat CPU 1 instructions: 1270000001 cycles: 729265453 heartbeat IPC: 1.57543 cumulative IPC: 1.49305 (Simulation time: 2 hr 48 min 54 sec) 
Heartbeat CPU 0 instructions: 1270000000 cycles: 731775805 heartbeat IPC: 1.53053 cumulative IPC: 1.49571 (Simulation time: 2 hr 49 min 19 sec) 
Heartbeat CPU 3 instructions: 290000000 cycles: 732842215 heartbeat IPC: 0.176181 cumulative IPC: 0.172604 (Simulation time: 2 hr 49 min 30 sec) 
Heartbeat CPU 2 instructions: 950000002 cycles: 734839531 heartbeat IPC: 0.635002 cumulative IPC: 0.945552 (Simulation time: 2 hr 49 min 50 sec) 
Heartbeat CPU 1 instructions: 1280000000 cycles: 737538047 heartbeat IPC: 1.20881 cumulative IPC: 1.48859 (Simulation time: 2 hr 50 min 18 sec) 
Heartbeat CPU 0 instructions: 1280000000 cycles: 738217538 heartbeat IPC: 1.55238 cumulative IPC: 1.49641 (Simulation time: 2 hr 50 min 25 sec) 
Heartbeat CPU 1 instructions: 1290000002 cycles: 744329690 heartbeat IPC: 1.4724 cumulative IPC: 1.48838 (Simulation time: 2 hr 51 min 29 sec) 
Heartbeat CPU 0 instructions: 1290000001 cycles: 744956853 heartbeat IPC: 1.48383 cumulative IPC: 1.49625 (Simulation time: 2 hr 51 min 35 sec) 
Heartbeat CPU 2 instructions: 960000000 cycles: 750296944 heartbeat IPC: 0.646939 cumulative IPC: 0.936987 (Simulation time: 2 hr 52 min 33 sec) 
Heartbeat CPU 1 instructions: 1300000000 cycles: 750623179 heartbeat IPC: 1.58894 cumulative IPC: 1.48955 (Simulation time: 2 hr 52 min 37 sec) 
Heartbeat CPU 0 instructions: 1300000000 cycles: 751503130 heartbeat IPC: 1.52759 cumulative IPC: 1.49663 (Simulation time: 2 hr 52 min 45 sec) 
Heartbeat CPU 1 instructions: 1310000000 cycles: 757590767 heartbeat IPC: 1.43522 cumulative IPC: 1.48886 (Simulation time: 2 hr 53 min 51 sec) 
Heartbeat CPU 0 instructions: 1310000002 cycles: 757823233 heartbeat IPC: 1.58225 cumulative IPC: 1.49762 (Simulation time: 2 hr 53 min 53 sec) 
Heartbeat CPU 1 instructions: 1320000000 cycles: 764039897 heartbeat IPC: 1.5506 cumulative IPC: 1.48958 (Simulation time: 2 hr 54 min 59 sec) 
Heartbeat CPU 0 instructions: 1320000000 cycles: 764765874 heartbeat IPC: 1.44037 cumulative IPC: 1.4969 (Simulation time: 2 hr 55 min 7 sec) 
Heartbeat CPU 2 instructions: 970000002 cycles: 765762955 heartbeat IPC: 0.646579 cumulative IPC: 0.928884 (Simulation time: 2 hr 55 min 18 sec) 
Heartbeat CPU 1 instructions: 1330000002 cycles: 770504817 heartbeat IPC: 1.54681 cumulative IPC: 1.49024 (Simulation time: 2 hr 56 min 9 sec) 
Heartbeat CPU 0 instructions: 1330000003 cycles: 771101836 heartbeat IPC: 1.57829 cumulative IPC: 1.49782 (Simulation time: 2 hr 56 min 16 sec) 
Heartbeat CPU 1 instructions: 1340000000 cycles: 776933576 heartbeat IPC: 1.55551 cumulative IPC: 1.49098 (Simulation time: 2 hr 57 min 18 sec) 
Heartbeat CPU 0 instructions: 1340000000 cycles: 777590116 heartbeat IPC: 1.54124 cumulative IPC: 1.49832 (Simulation time: 2 hr 57 min 25 sec) 
Heartbeat CPU 2 instructions: 980000000 cycles: 780712957 heartbeat IPC: 0.668896 cumulative IPC: 0.922057 (Simulation time: 2 hr 57 min 59 sec) 
Heartbeat CPU 1 instructions: 1350000000 cycles: 783402037 heartbeat IPC: 1.54596 cumulative IPC: 1.49161 (Simulation time: 2 hr 58 min 27 sec) 
Heartbeat CPU 0 instructions: 1350000001 cycles: 783938055 heartbeat IPC: 1.57531 cumulative IPC: 1.49917 (Simulation time: 2 hr 58 min 33 sec) 
Heartbeat CPU 3 instructions: 300000000 cycles: 789680919 heartbeat IPC: 0.175936 cumulative IPC: 0.172932 (Simulation time: 2 hr 59 min 32 sec) 
Heartbeat CPU 1 instructions: 1360000000 cycles: 789888843 heartbeat IPC: 1.54159 cumulative IPC: 1.49217 (Simulation time: 2 hr 59 min 34 sec) 
Heartbeat CPU 0 instructions: 1360000000 cycles: 791113418 heartbeat IPC: 1.39366 cumulative IPC: 1.49787 (Simulation time: 2 hr 59 min 47 sec) 
Heartbeat CPU 2 instructions: 990000000 cycles: 795196893 heartbeat IPC: 0.69042 cumulative IPC: 0.91631 (Simulation time: 3 hr 0 min 30 sec) 
Heartbeat CPU 1 instructions: 1370000003 cycles: 796397728 heartbeat IPC: 1.53636 cumulative IPC: 1.49266 (Simulation time: 3 hr 0 min 43 sec) 
Heartbeat CPU 0 instructions: 1370000000 cycles: 797644277 heartbeat IPC: 1.53119 cumulative IPC: 1.49824 (Simulation time: 3 hr 0 min 56 sec) 
Heartbeat CPU 1 instructions: 1380000000 cycles: 802910956 heartbeat IPC: 1.53534 cumulative IPC: 1.49313 (Simulation time: 3 hr 1 min 51 sec) 
Heartbeat CPU 0 instructions: 1380000000 cycles: 804216112 heartbeat IPC: 1.52165 cumulative IPC: 1.4985 (Simulation time: 3 hr 2 min 5 sec) 
Heartbeat CPU 2 instructions: 1000000000 cycles: 808652986 heartbeat IPC: 0.743158 cumulative IPC: 0.912409 (Simulation time: 3 hr 2 min 49 sec) 
Heartbeat CPU 1 instructions: 1390000003 cycles: 809516050 heartbeat IPC: 1.51398 cumulative IPC: 1.49336 (Simulation time: 3 hr 2 min 57 sec) 
Heartbeat CPU 0 instructions: 1390000001 cycles: 812381353 heartbeat IPC: 1.2247 cumulative IPC: 1.49478 (Simulation time: 3 hr 3 min 26 sec) 
Heartbeat CPU 1 instructions: 1400000000 cycles: 816005047 heartbeat IPC: 1.54107 cumulative IPC: 1.49387 (Simulation time: 3 hr 4 min 3 sec) 
Heartbeat CPU 0 instructions: 1400000000 cycles: 819129423 heartbeat IPC: 1.48191 cumulative IPC: 1.49463 (Simulation time: 3 hr 4 min 36 sec) 
Heartbeat CPU 1 instructions: 1410000003 cycles: 822538147 heartbeat IPC: 1.53067 cumulative IPC: 1.49426 (Simulation time: 3 hr 5 min 10 sec) 
Heartbeat CPU 2 instructions: 1010000000 cycles: 823245500 heartbeat IPC: 0.685283 cumulative IPC: 0.906991 (Simulation time: 3 hr 5 min 18 sec) 
Heartbeat CPU 0 instructions: 1410000000 cycles: 826273353 heartbeat IPC: 1.39979 cumulative IPC: 1.49353 (Simulation time: 3 hr 5 min 50 sec) 
Heartbeat CPU 1 instructions: 1420000000 cycles: 829070740 heartbeat IPC: 1.53079 cumulative IPC: 1.49465 (Simulation time: 3 hr 6 min 19 sec) 
Heartbeat CPU 0 instructions: 1420000000 cycles: 832750425 heartbeat IPC: 1.54391 cumulative IPC: 1.49406 (Simulation time: 3 hr 6 min 58 sec) 
Heartbeat CPU 1 instructions: 1430000002 cycles: 836159762 heartbeat IPC: 1.41063 cumulative IPC: 1.4937 (Simulation time: 3 hr 7 min 33 sec) 
Heartbeat CPU 2 instructions: 1020000000 cycles: 837066290 heartbeat IPC: 0.723548 cumulative IPC: 0.902939 (Simulation time: 3 hr 7 min 42 sec) 
Heartbeat CPU 0 instructions: 1430000000 cycles: 839318711 heartbeat IPC: 1.52247 cumulative IPC: 1.49435 (Simulation time: 3 hr 8 min 6 sec) 
Heartbeat CPU 1 instructions: 1440000000 cycles: 842508305 heartbeat IPC: 1.57516 cumulative IPC: 1.49452 (Simulation time: 3 hr 8 min 40 sec) 
Heartbeat CPU 0 instructions: 1440000000 cycles: 845936742 heartbeat IPC: 1.51102 cumulative IPC: 1.49453 (Simulation time: 3 hr 9 min 17 sec) 
Heartbeat CPU 3 instructions: 310000000 cycles: 847140382 heartbeat IPC: 0.174036 cumulative IPC: 0.173032 (Simulation time: 3 hr 9 min 30 sec) 
Heartbeat CPU 1 instructions: 1450000001 cycles: 849719067 heartbeat IPC: 1.38682 cumulative IPC: 1.4933 (Simulation time: 3 hr 9 min 55 sec) 
Heartbeat CPU 2 instructions: 1030000000 cycles: 851416464 heartbeat IPC: 0.696856 cumulative IPC: 0.898318 (Simulation time: 3 hr 10 min 12 sec) 
Heartbeat CPU 0 instructions: 1450000003 cycles: 852484956 heartbeat IPC: 1.52713 cumulative IPC: 1.49486 (Simulation time: 3 hr 10 min 22 sec) 
Heartbeat CPU 1 instructions: 1460000000 cycles: 857764654 heartbeat IPC: 1.24292 cumulative IPC: 1.49018 (Simulation time: 3 hr 11 min 14 sec) 
Heartbeat CPU 0 instructions: 1460000000 cycles: 859667512 heartbeat IPC: 1.39226 cumulative IPC: 1.49372 (Simulation time: 3 hr 11 min 34 sec) 
Heartbeat CPU 1 instructions: 1470000002 cycles: 864303611 heartbeat IPC: 1.5293 cumulative IPC: 1.49057 (Simulation time: 3 hr 12 min 23 sec) 
Heartbeat CPU 2 instructions: 1040000000 cycles: 865284909 heartbeat IPC: 0.721061 cumulative IPC: 0.894559 (Simulation time: 3 hr 12 min 33 sec) 
Heartbeat CPU 0 instructions: 1470000003 cycles: 866125860 heartbeat IPC: 1.54838 cumulative IPC: 1.49426 (Simulation time: 3 hr 12 min 42 sec) 
Heartbeat CPU 1 instructions: 1480000000 cycles: 870807751 heartbeat IPC: 1.53748 cumulative IPC: 1.49104 (Simulation time: 3 hr 13 min 31 sec) 
Heartbeat CPU 0 instructions: 1480000000 cycles: 872653823 heartbeat IPC: 1.53187 cumulative IPC: 1.49463 (Simulation time: 3 hr 13 min 51 sec) 
Heartbeat CPU 1 instructions: 1490000000 cycles: 877306365 heartbeat IPC: 1.53879 cumulative IPC: 1.4915 (Simulation time: 3 hr 14 min 40 sec) 
Heartbeat CPU 0 instructions: 1490000000 cycles: 879176365 heartbeat IPC: 1.53314 cumulative IPC: 1.49501 (Simulation time: 3 hr 15 min 0 sec) 
Heartbeat CPU 2 instructions: 1050000000 cycles: 879764629 heartbeat IPC: 0.690621 cumulative IPC: 0.89014 (Simulation time: 3 hr 15 min 6 sec) 
Finished CPU 0 instructions: 1000000000 cycles: 668874036 cumulative IPC: 1.49505 (Simulation time: 3 hr 15 min 12 sec) 
Finished CPU 1 instructions: 1000000000 cycles: 670242195 cumulative IPC: 1.492 (Simulation time: 3 hr 15 min 27 sec) 
Heartbeat CPU 1 instructions: 1500000000 cycles: 883699261 heartbeat IPC: 1.56424 cumulative IPC: 1.49219 (Simulation time: 3 hr 15 min 49 sec) 
Heartbeat CPU 0 instructions: 1500000000 cycles: 885696452 heartbeat IPC: 1.53372 cumulative IPC: 1.49538 (Simulation time: 3 hr 16 min 10 sec) 
Heartbeat CPU 1 instructions: 1510000002 cycles: 890209331 heartbeat IPC: 1.53608 cumulative IPC: 1.49262 (Simulation time: 3 hr 16 min 57 sec) 
Heartbeat CPU 0 instructions: 1510000001 cycles: 892280687 heartbeat IPC: 1.51878 cumulative IPC: 1.49561 (Simulation time: 3 hr 17 min 19 sec) 
Heartbeat CPU 2 instructions: 1060000000 cycles: 893493840 heartbeat IPC: 0.728374 cumulative IPC: 0.886884 (Simulation time: 3 hr 17 min 32 sec) 
Heartbeat CPU 1 instructions: 1520000000 cycles: 896661701 heartbeat IPC: 1.54982 cumulative IPC: 1.49315 (Simulation time: 3 hr 18 min 4 sec) 
Heartbeat CPU 0 instructions: 1520000000 cycles: 899309453 heartbeat IPC: 1.42272 cumulative IPC: 1.49487 (Simulation time: 3 hr 18 min 33 sec) 
Heartbeat CPU 1 instructions: 1530000002 cycles: 903069630 heartbeat IPC: 1.56057 cumulative IPC: 1.49378 (Simulation time: 3 hr 19 min 13 sec) 
Heartbeat CPU 3 instructions: 320000000 cycles: 903839125 heartbeat IPC: 0.176371 cumulative IPC: 0.173305 (Simulation time: 3 hr 19 min 21 sec) 
Heartbeat CPU 0 instructions: 1530000001 cycles: 905829261 heartbeat IPC: 1.53379 cumulative IPC: 1.49523 (Simulation time: 3 hr 19 min 42 sec) 
Heartbeat CPU 2 instructions: 1070000003 cycles: 908190594 heartbeat IPC: 0.680423 cumulative IPC: 0.882529 (Simulation time: 3 hr 20 min 8 sec) 
Heartbeat CPU 1 instructions: 1540000000 cycles: 909502301 heartbeat IPC: 1.55456 cumulative IPC: 1.49434 (Simulation time: 3 hr 20 min 22 sec) 
Heartbeat CPU 0 instructions: 1540000000 cycles: 912248323 heartbeat IPC: 1.55786 cumulative IPC: 1.49581 (Simulation time: 3 hr 20 min 52 sec) 
Heartbeat CPU 1 instructions: 1550000002 cycles: 915942188 heartbeat IPC: 1.55282 cumulative IPC: 1.49487 (Simulation time: 3 hr 21 min 31 sec) 
Heartbeat CPU 0 instructions: 1550000001 cycles: 918736025 heartbeat IPC: 1.54138 cumulative IPC: 1.49622 (Simulation time: 3 hr 22 min 1 sec) 
Heartbeat CPU 2 instructions: 1080000000 cycles: 921959709 heartbeat IPC: 0.726263 cumulative IPC: 0.879501 (Simulation time: 3 hr 22 min 36 sec) 
Heartbeat CPU 1 instructions: 1560000000 cycles: 922405574 heartbeat IPC: 1.54718 cumulative IPC: 1.49535 (Simulation time: 3 hr 22 min 41 sec) 
Heartbeat CPU 0 instructions: 1560000000 cycles: 925160601 heartbeat IPC: 1.55652 cumulative IPC: 1.49677 (Simulation time: 3 hr 23 min 9 sec) 
Heartbeat CPU 1 instructions: 1570000002 cycles: 928930330 heartbeat IPC: 1.53262 cumulative IPC: 1.49569 (Simulation time: 3 hr 23 min 50 sec) 
Heartbeat CPU 0 instructions: 1570000001 cycles: 931568271 heartbeat IPC: 1.56063 cumulative IPC: 1.49733 (Simulation time: 3 hr 24 min 17 sec) 
Heartbeat CPU 1 instructions: 1580000000 cycles: 935806145 heartbeat IPC: 1.45437 cumulative IPC: 1.4953 (Simulation time: 3 hr 25 min 3 sec) 
Heartbeat CPU 2 instructions: 1090000002 cycles: 936791066 heartbeat IPC: 0.674247 cumulative IPC: 0.875304 (Simulation time: 3 hr 25 min 13 sec) 
Heartbeat CPU 0 instructions: 1580000000 cycles: 938082532 heartbeat IPC: 1.53509 cumulative IPC: 1.49767 (Simulation time: 3 hr 25 min 27 sec) 
Heartbeat CPU 1 instructions: 1590000003 cycles: 942035367 heartbeat IPC: 1.60534 cumulative IPC: 1.49623 (Simulation time: 3 hr 26 min 10 sec) 
Heartbeat CPU 0 instructions: 1590000002 cycles: 944602269 heartbeat IPC: 1.5338 cumulative IPC: 1.49799 (Simulation time: 3 hr 26 min 38 sec) 
Heartbeat CPU 1 instructions: 1600000000 cycles: 948311250 heartbeat IPC: 1.5934 cumulative IPC: 1.49706 (Simulation time: 3 hr 27 min 18 sec) 
Heartbeat CPU 2 instructions: 1100000000 cycles: 950827116 heartbeat IPC: 0.712451 cumulative IPC: 0.872213 (Simulation time: 3 hr 27 min 45 sec) 
Heartbeat CPU 0 instructions: 1600000000 cycles: 951049491 heartbeat IPC: 1.55106 cumulative IPC: 1.49846 (Simulation time: 3 hr 27 min 47 sec) 
Heartbeat CPU 1 instructions: 1610000002 cycles: 954739279 heartbeat IPC: 1.55569 cumulative IPC: 1.49757 (Simulation time: 3 hr 28 min 27 sec) 
Heartbeat CPU 0 instructions: 1610000000 cycles: 957799751 heartbeat IPC: 1.48142 cumulative IPC: 1.4983 (Simulation time: 3 hr 28 min 59 sec) 
Heartbeat CPU 3 instructions: 330000000 cycles: 960811726 heartbeat IPC: 0.175523 cumulative IPC: 0.173474 (Simulation time: 3 hr 29 min 30 sec) 
Heartbeat CPU 1 instructions: 1620000000 cycles: 961054948 heartbeat IPC: 1.58336 cumulative IPC: 1.49829 (Simulation time: 3 hr 29 min 33 sec) 
Heartbeat CPU 0 instructions: 1620000000 cycles: 965039171 heartbeat IPC: 1.38133 cumulative IPC: 1.49718 (Simulation time: 3 hr 30 min 13 sec) 
Heartbeat CPU 2 instructions: 1110000000 cycles: 965327424 heartbeat IPC: 0.689641 cumulative IPC: 0.868702 (Simulation time: 3 hr 30 min 16 sec) 
Heartbeat CPU 1 instructions: 1630000003 cycles: 967422687 heartbeat IPC: 1.57042 cumulative IPC: 1.4989 (Simulation time: 3 hr 30 min 38 sec) 
Heartbeat CPU 0 instructions: 1630000002 cycles: 971686116 heartbeat IPC: 1.50445 cumulative IPC: 1.49724 (Simulation time: 3 hr 31 min 24 sec) 
Heartbeat CPU 1 instructions: 1640000000 cycles: 973629895 heartbeat IPC: 1.61103 cumulative IPC: 1.49981 (Simulation time: 3 hr 31 min 45 sec) 
Heartbeat CPU 0 instructions: 1640000000 cycles: 978099762 heartbeat IPC: 1.55918 cumulative IPC: 1.49776 (Simulation time: 3 hr 32 min 31 sec) 
Heartbeat CPU 2 instructions: 1120000000 cycles: 980066087 heartbeat IPC: 0.678488 cumulative IPC: 0.865054 (Simulation time: 3 hr 32 min 52 sec) 
Heartbeat CPU 1 instructions: 1650000001 cycles: 980728751 heartbeat IPC: 1.40868 cumulative IPC: 1.49897 (Simulation time: 3 hr 32 min 59 sec) 
Heartbeat CPU 0 instructions: 1650000001 cycles: 984589664 heartbeat IPC: 1.54086 cumulative IPC: 1.49812 (Simulation time: 3 hr 33 min 40 sec) 
Heartbeat CPU 1 instructions: 1660000000 cycles: 987273510 heartbeat IPC: 1.52794 cumulative IPC: 1.49922 (Simulation time: 3 hr 34 min 8 sec) 
Heartbeat CPU 0 instructions: 1660000000 cycles: 991081107 heartbeat IPC: 1.54049 cumulative IPC: 1.49848 (Simulation time: 3 hr 34 min 49 sec) 
Heartbeat CPU 1 instructions: 1670000000 cycles: 993736677 heartbeat IPC: 1.54723 cumulative IPC: 1.49961 (Simulation time: 3 hr 35 min 17 sec) 
Heartbeat CPU 2 instructions: 1130000001 cycles: 994243952 heartbeat IPC: 0.705325 cumulative IPC: 0.862161 (Simulation time: 3 hr 35 min 22 sec) 
Heartbeat CPU 0 instructions: 1670000000 cycles: 997512008 heartbeat IPC: 1.55499 cumulative IPC: 1.49894 (Simulation time: 3 hr 35 min 57 sec) 
Heartbeat CPU 1 instructions: 1680000000 cycles: 1000230046 heartbeat IPC: 1.54003 cumulative IPC: 1.49994 (Simulation time: 3 hr 36 min 29 sec) 
Heartbeat CPU 0 instructions: 1680000000 cycles: 1003960760 heartbeat IPC: 1.55069 cumulative IPC: 1.49936 (Simulation time: 3 hr 37 min 11 sec) 
Heartbeat CPU 1 instructions: 1690000001 cycles: 1006724714 heartbeat IPC: 1.53972 cumulative IPC: 1.50027 (Simulation time: 3 hr 37 min 43 sec) 
Heartbeat CPU 2 instructions: 1140000000 cycles: 1009103994 heartbeat IPC: 0.672946 cumulative IPC: 0.858636 (Simulation time: 3 hr 38 min 10 sec) 
Heartbeat CPU 0 instructions: 1690000003 cycles: 1010410953 heartbeat IPC: 1.55034 cumulative IPC: 1.49977 (Simulation time: 3 hr 38 min 25 sec) 
Heartbeat CPU 1 instructions: 1700000000 cycles: 1013178108 heartbeat IPC: 1.54957 cumulative IPC: 1.50067 (Simulation time: 3 hr 38 min 57 sec) 
Heartbeat CPU 0 instructions: 1700000000 cycles: 1016922931 heartbeat IPC: 1.53563 cumulative IPC: 1.50006 (Simulation time: 3 hr 39 min 39 sec) 
Heartbeat CPU 3 instructions: 340000000 cycles: 1017998417 heartbeat IPC: 0.174866 cumulative IPC: 0.173572 (Simulation time: 3 hr 39 min 51 sec) 
Heartbeat CPU 1 instructions: 1710000001 cycles: 1019605628 heartbeat IPC: 1.55581 cumulative IPC: 1.5011 (Simulation time: 3 hr 40 min 9 sec) 
Heartbeat CPU 2 instructions: 1150000003 cycles: 1023359960 heartbeat IPC: 0.701461 cumulative IPC: 0.855877 (Simulation time: 3 hr 40 min 52 sec) 
Heartbeat CPU 0 instructions: 1710000000 cycles: 1023459005 heartbeat IPC: 1.52997 cumulative IPC: 1.5003 (Simulation time: 3 hr 40 min 53 sec) 
Heartbeat CPU 1 instructions: 1720000000 cycles: 1026083305 heartbeat IPC: 1.54376 cumulative IPC: 1.50144 (Simulation time: 3 hr 41 min 23 sec) 
Heartbeat CPU 0 instructions: 1720000000 cycles: 1029846655 heartbeat IPC: 1.56552 cumulative IPC: 1.50081 (Simulation time: 3 hr 42 min 5 sec) 
Heartbeat CPU 1 instructions: 1730000001 cycles: 1033198681 heartbeat IPC: 1.40541 cumulative IPC: 1.50061 (Simulation time: 3 hr 42 min 43 sec) 
Heartbeat CPU 0 instructions: 1730000001 cycles: 1036209849 heartbeat IPC: 1.57154 cumulative IPC: 1.50136 (Simulation time: 3 hr 43 min 17 sec) 
Heartbeat CPU 2 instructions: 1160000000 cycles: 1038396585 heartbeat IPC: 0.665043 cumulative IPC: 0.852407 (Simulation time: 3 hr 43 min 43 sec) 
Heartbeat CPU 1 instructions: 1740000000 cycles: 1039704032 heartbeat IPC: 1.5372 cumulative IPC: 1.5009 (Simulation time: 3 hr 43 min 57 sec) 
Heartbeat CPU 0 instructions: 1740000000 cycles: 1042694080 heartbeat IPC: 1.5422 cumulative IPC: 1.50167 (Simulation time: 3 hr 44 min 32 sec) 
Heartbeat CPU 1 instructions: 1750000003 cycles: 1045977777 heartbeat IPC: 1.59394 cumulative IPC: 1.5016 (Simulation time: 3 hr 45 min 10 sec) 
Heartbeat CPU 0 instructions: 1750000000 cycles: 1049182589 heartbeat IPC: 1.54119 cumulative IPC: 1.50198 (Simulation time: 3 hr 45 min 47 sec) 
Heartbeat CPU 1 instructions: 1760000000 cycles: 1052372639 heartbeat IPC: 1.56375 cumulative IPC: 1.50207 (Simulation time: 3 hr 46 min 24 sec) 
Heartbeat CPU 2 instructions: 1170000002 cycles: 1053249767 heartbeat IPC: 0.673257 cumulative IPC: 0.849246 (Simulation time: 3 hr 46 min 33 sec) 
Heartbeat CPU 0 instructions: 1760000000 cycles: 1055651082 heartbeat IPC: 1.54596 cumulative IPC: 1.50232 (Simulation time: 3 hr 46 min 59 sec) 
Heartbeat CPU 1 instructions: 1770000001 cycles: 1059982959 heartbeat IPC: 1.31401 cumulative IPC: 1.50039 (Simulation time: 3 hr 47 min 47 sec) 
Heartbeat CPU 0 instructions: 1770000002 cycles: 1062123924 heartbeat IPC: 1.54492 cumulative IPC: 1.50264 (Simulation time: 3 hr 48 min 11 sec) 
Heartbeat CPU 1 instructions: 1780000000 cycles: 1066506309 heartbeat IPC: 1.53295 cumulative IPC: 1.50063 (Simulation time: 3 hr 48 min 58 sec) 
Heartbeat CPU 2 instructions: 1180000000 cycles: 1067389084 heartbeat IPC: 0.707248 cumulative IPC: 0.8469 (Simulation time: 3 hr 49 min 8 sec) 
Heartbeat CPU 0 instructions: 1780000000 cycles: 1068648545 heartbeat IPC: 1.53266 cumulative IPC: 1.50287 (Simulation time: 3 hr 49 min 21 sec) 
Heartbeat CPU 1 instructions: 1790000000 cycles: 1072921964 heartbeat IPC: 1.55869 cumulative IPC: 1.50107 (Simulation time: 3 hr 50 min 5 sec) 
Heartbeat CPU 3 instructions: 350000000 cycles: 1075033604 heartbeat IPC: 0.17533 cumulative IPC: 0.173689 (Simulation time: 3 hr 50 min 26 sec) 
Heartbeat CPU 0 instructions: 1790000000 cycles: 1076838722 heartbeat IPC: 1.22097 cumulative IPC: 1.5002 (Simulation time: 3 hr 50 min 44 sec) 
Heartbeat CPU 1 instructions: 1800000000 cycles: 1079416739 heartbeat IPC: 1.5397 cumulative IPC: 1.50136 (Simulation time: 3 hr 51 min 11 sec) 
Heartbeat CPU 2 instructions: 1190000002 cycles: 1082352234 heartbeat IPC: 0.668309 cumulative IPC: 0.843832 (Simulation time: 3 hr 51 min 43 sec) 
Heartbeat CPU 0 instructions: 1800000000 cycles: 1083528518 heartbeat IPC: 1.49481 cumulative IPC: 1.50016 (Simulation time: 3 hr 51 min 55 sec) 
Heartbeat CPU 1 instructions: 1810000002 cycles: 1085779378 heartbeat IPC: 1.57168 cumulative IPC: 1.50187 (Simulation time: 3 hr 52 min 19 sec) 
Heartbeat CPU 0 instructions: 1810000003 cycles: 1090178608 heartbeat IPC: 1.50374 cumulative IPC: 1.50019 (Simulation time: 3 hr 53 min 5 sec) 
Heartbeat CPU 1 instructions: 1820000000 cycles: 1092247221 heartbeat IPC: 1.54611 cumulative IPC: 1.50219 (Simulation time: 3 hr 53 min 27 sec) 
Heartbeat CPU 2 instructions: 1200000000 cycles: 1096560868 heartbeat IPC: 0.703797 cumulative IPC: 0.841584 (Simulation time: 3 hr 54 min 13 sec) 
Heartbeat CPU 0 instructions: 1820000000 cycles: 1096795112 heartbeat IPC: 1.51137 cumulative IPC: 1.50027 (Simulation time: 3 hr 54 min 16 sec) 
Heartbeat CPU 1 instructions: 1830000002 cycles: 1098597419 heartbeat IPC: 1.57475 cumulative IPC: 1.50271 (Simulation time: 3 hr 54 min 35 sec) 
Heartbeat CPU 0 instructions: 1830000002 cycles: 1103432673 heartbeat IPC: 1.50658 cumulative IPC: 1.50032 (Simulation time: 3 hr 55 min 28 sec) 
Heartbeat CPU 1 instructions: 1840000000 cycles: 1105063102 heartbeat IPC: 1.54663 cumulative IPC: 1.50303 (Simulation time: 3 hr 55 min 46 sec) 
Heartbeat CPU 0 instructions: 1840000000 cycles: 1110066636 heartbeat IPC: 1.50739 cumulative IPC: 1.50037 (Simulation time: 3 hr 56 min 41 sec) 
Heartbeat CPU 2 instructions: 1210000002 cycles: 1111846764 heartbeat IPC: 0.654198 cumulative IPC: 0.838403 (Simulation time: 3 hr 57 min 0 sec) 
Heartbeat CPU 1 instructions: 1850000003 cycles: 1112181558 heartbeat IPC: 1.4048 cumulative IPC: 1.50225 (Simulation time: 3 hr 57 min 4 sec) 
Heartbeat CPU 0 instructions: 1850000002 cycles: 1116786264 heartbeat IPC: 1.48818 cumulative IPC: 1.50028 (Simulation time: 3 hr 57 min 56 sec) 
Heartbeat CPU 1 instructions: 1860000000 cycles: 1118649668 heartbeat IPC: 1.54605 cumulative IPC: 1.50256 (Simulation time: 3 hr 58 min 17 sec) 
Heartbeat CPU 0 instructions: 1860000000 cycles: 1123964166 heartbeat IPC: 1.39316 cumulative IPC: 1.49944 (Simulation time: 3 hr 59 min 16 sec) 
Heartbeat CPU 1 instructions: 1870000002 cycles: 1125099050 heartbeat IPC: 1.55054 cumulative IPC: 1.5029 (Simulation time: 3 hr 59 min 29 sec) 
Heartbeat CPU 2 instructions: 1220000000 cycles: 1125996361 heartbeat IPC: 0.706734 cumulative IPC: 0.836366 (Simulation time: 3 hr 59 min 39 sec) 
Heartbeat CPU 0 instructions: 1870000000 cycles: 1130549228 heartbeat IPC: 1.51859 cumulative IPC: 1.49957 (Simulation time: 4 hr 0 min 30 sec) 
Heartbeat CPU 1 instructions: 1880000000 cycles: 1131485170 heartbeat IPC: 1.5659 cumulative IPC: 1.50334 (Simulation time: 4 hr 0 min 41 sec) 
Heartbeat CPU 3 instructions: 360000000 cycles: 1132210363 heartbeat IPC: 0.174896 cumulative IPC: 0.173764 (Simulation time: 4 hr 0 min 49 sec) 
Heartbeat CPU 0 instructions: 1880000000 cycles: 1137164174 heartbeat IPC: 1.51173 cumulative IPC: 1.49966 (Simulation time: 4 hr 1 min 45 sec) 
Heartbeat CPU 1 instructions: 1890000001 cycles: 1137953134 heartbeat IPC: 1.54608 cumulative IPC: 1.50364 (Simulation time: 4 hr 1 min 54 sec) 
Heartbeat CPU 2 instructions: 1230000002 cycles: 1140962694 heartbeat IPC: 0.668166 cumulative IPC: 0.833658 (Simulation time: 4 hr 2 min 28 sec) 
Heartbeat CPU 0 instructions: 1890000003 cycles: 1143722148 heartbeat IPC: 1.52486 cumulative IPC: 1.49984 (Simulation time: 4 hr 3 min 0 sec) 
Heartbeat CPU 1 instructions: 1900000000 cycles: 1144380135 heartbeat IPC: 1.55594 cumulative IPC: 1.504 (Simulation time: 4 hr 3 min 7 sec) 
Heartbeat CPU 0 instructions: 1900000000 cycles: 1150318888 heartbeat IPC: 1.5159 cumulative IPC: 1.49995 (Simulation time: 4 hr 4 min 13 sec) 
Heartbeat CPU 1 instructions: 1910000002 cycles: 1151347914 heartbeat IPC: 1.43518 cumulative IPC: 1.50349 (Simulation time: 4 hr 4 min 25 sec) 
Heartbeat CPU 2 instructions: 1240000000 cycles: 1155064350 heartbeat IPC: 0.709136 cumulative IPC: 0.831797 (Simulation time: 4 hr 5 min 7 sec) 
Heartbeat CPU 0 instructions: 1910000002 cycles: 1156836406 heartbeat IPC: 1.53433 cumulative IPC: 1.50019 (Simulation time: 4 hr 5 min 27 sec) 
Heartbeat CPU 1 instructions: 1920000000 cycles: 1157793861 heartbeat IPC: 1.55136 cumulative IPC: 1.50382 (Simulation time: 4 hr 5 min 37 sec) 
Heartbeat CPU 0 instructions: 1920000000 cycles: 1163441907 heartbeat IPC: 1.51389 cumulative IPC: 1.50028 (Simulation time: 4 hr 6 min 37 sec) 
[...]
Heartbeat CPU 1 instructions: 4960000000 cycles: 3151710620 heartbeat IPC: 1.32635 cumulative IPC: 1.51794 (Simulation time: 10 hr 9 min 3 sec) 
Heartbeat CPU 0 instructions: 4910000003 cycles: 3153604083 heartbeat IPC: 1.4776 cumulative IPC: 1.50171 (Simulation time: 10 hr 9 min 24 sec) 
Heartbeat CPU 2 instructions: 2820000000 cycles: 3154947431 heartbeat IPC: 1.06872 cumulative IPC: 0.803431 (Simulation time: 10 hr 9 min 39 sec) 
Heartbeat CPU 1 instructions: 4970000002 cycles: 3157963766 heartbeat IPC: 1.5992 cumulative IPC: 1.51811 (Simulation time: 10 hr 10 min 14 sec) 
Heartbeat CPU 0 instructions: 4920000000 cycles: 3160326612 heartbeat IPC: 1.48753 cumulative IPC: 1.50168 (Simulation time: 10 hr 10 min 41 sec) 
Heartbeat CPU 2 instructions: 2830000002 cycles: 3163884420 heartbeat IPC: 1.11895 cumulative IPC: 0.804386 (Simulation time: 10 hr 11 min 24 sec) 
Heartbeat CPU 1 instructions: 4980000000 cycles: 3164296044 heartbeat IPC: 1.57921 cumulative IPC: 1.51824 (Simulation time: 10 hr 11 min 29 sec) 
Heartbeat CPU 0 instructions: 4930000002 cycles: 3167112030 heartbeat IPC: 1.47375 cumulative IPC: 1.50161 (Simulation time: 10 hr 12 min 1 sec) 
Heartbeat CPU 3 instructions: 1170000001 cycles: 3168096283 heartbeat IPC: 0.476624 cumulative IPC: 0.328071 (Simulation time: 10 hr 12 min 13 sec) 
Heartbeat CPU 1 instructions: 4990000002 cycles: 3171161330 heartbeat IPC: 1.4566 cumulative IPC: 1.5181 (Simulation time: 10 hr 12 min 49 sec) 
Heartbeat CPU 2 instructions: 2840000000 cycles: 3172554653 heartbeat IPC: 1.15337 cumulative IPC: 0.805408 (Simulation time: 10 hr 13 min 5 sec) 
Heartbeat CPU 0 instructions: 4940000000 cycles: 3173896172 heartbeat IPC: 1.47403 cumulative IPC: 1.50155 (Simulation time: 10 hr 13 min 21 sec) 
Heartbeat CPU 1 instructions: 5000000000 cycles: 3177466640 heartbeat IPC: 1.58596 cumulative IPC: 1.51824 (Simulation time: 10 hr 14 min 3 sec) 
Heartbeat CPU 0 instructions: 4950000003 cycles: 3180696750 heartbeat IPC: 1.47046 cumulative IPC: 1.50148 (Simulation time: 10 hr 14 min 41 sec) 
Heartbeat CPU 2 instructions: 2850000000 cycles: 3181574119 heartbeat IPC: 1.10871 cumulative IPC: 0.806329 (Simulation time: 10 hr 14 min 51 sec) 
Heartbeat CPU 1 instructions: 5010000000 cycles: 3183842619 heartbeat IPC: 1.56839 cumulative IPC: 1.51835 (Simulation time: 10 hr 15 min 18 sec) 
Heartbeat CPU 0 instructions: 4960000000 cycles: 3187554281 heartbeat IPC: 1.45825 cumulative IPC: 1.50138 (Simulation time: 10 hr 15 min 57 sec) 
Heartbeat CPU 3 instructions: 1180000000 cycles: 3188876046 heartbeat IPC: 0.481237 cumulative IPC: 0.32914 (Simulation time: 10 hr 16 min 11 sec) 
Heartbeat CPU 1 instructions: 5020000000 cycles: 3190720896 heartbeat IPC: 1.45385 cumulative IPC: 1.5182 (Simulation time: 10 hr 16 min 30 sec) 
Heartbeat CPU 2 instructions: 2860000000 cycles: 3191571312 heartbeat IPC: 1.00028 cumulative IPC: 0.806979 (Simulation time: 10 hr 16 min 39 sec) 
Heartbeat CPU 0 instructions: 4970000000 cycles: 3194371047 heartbeat IPC: 1.46697 cumulative IPC: 1.5013 (Simulation time: 10 hr 17 min 11 sec) 
Heartbeat CPU 1 instructions: 5030000000 cycles: 3196942397 heartbeat IPC: 1.60733 cumulative IPC: 1.51838 (Simulation time: 10 hr 17 min 41 sec) 
Heartbeat CPU 2 instructions: 2870000001 cycles: 3200718096 heartbeat IPC: 1.09328 cumulative IPC: 0.807855 (Simulation time: 10 hr 18 min 26 sec) 
Heartbeat CPU 0 instructions: 4980000000 cycles: 3201120610 heartbeat IPC: 1.48158 cumulative IPC: 1.50125 (Simulation time: 10 hr 18 min 31 sec) 
Heartbeat CPU 1 instructions: 5040000000 cycles: 3203359295 heartbeat IPC: 1.55839 cumulative IPC: 1.51847 (Simulation time: 10 hr 18 min 57 sec) 
Heartbeat CPU 0 instructions: 4990000001 cycles: 3207908138 heartbeat IPC: 1.47329 cumulative IPC: 1.50119 (Simulation time: 10 hr 19 min 49 sec) 
Heartbeat CPU 2 instructions: 2880000000 cycles: 3209365575 heartbeat IPC: 1.15641 cumulative IPC: 0.808861 (Simulation time: 10 hr 20 min 5 sec) 
Heartbeat CPU 3 instructions: 1190000003 cycles: 3209744626 heartbeat IPC: 0.479189 cumulative IPC: 0.330184 (Simulation time: 10 hr 20 min 10 sec) 
Heartbeat CPU 1 instructions: 5050000001 cycles: 3211123723 heartbeat IPC: 1.28793 cumulative IPC: 1.51787 (Simulation time: 10 hr 20 min 26 sec) 
Heartbeat CPU 0 instructions: 5000000000 cycles: 3214709612 heartbeat IPC: 1.47027 cumulative IPC: 1.50112 (Simulation time: 10 hr 21 min 8 sec) 
Heartbeat CPU 1 instructions: 5060000000 cycles: 3217559985 heartbeat IPC: 1.5537 cumulative IPC: 1.51795 (Simulation time: 10 hr 21 min 42 sec) 
Heartbeat CPU 2 instructions: 2890000002 cycles: 3218388233 heartbeat IPC: 1.10832 cumulative IPC: 0.809759 (Simulation time: 10 hr 21 min 51 sec) 
Heartbeat CPU 0 instructions: 5010000003 cycles: 3222156398 heartbeat IPC: 1.34286 cumulative IPC: 1.50073 (Simulation time: 10 hr 22 min 34 sec) 
Heartbeat CPU 1 instructions: 5070000002 cycles: 3223986407 heartbeat IPC: 1.55608 cumulative IPC: 1.51803 (Simulation time: 10 hr 22 min 53 sec) 
Heartbeat CPU 2 instructions: 2900000000 cycles: 3228444964 heartbeat IPC: 0.994359 cumulative IPC: 0.810375 (Simulation time: 10 hr 23 min 39 sec) 
Heartbeat CPU 0 instructions: 5020000000 cycles: 3229126211 heartbeat IPC: 1.43476 cumulative IPC: 1.50058 (Simulation time: 10 hr 23 min 46 sec) 
Heartbeat CPU 1 instructions: 5080000000 cycles: 3230267877 heartbeat IPC: 1.59198 cumulative IPC: 1.51819 (Simulation time: 10 hr 23 min 59 sec) 
Heartbeat CPU 3 instructions: 1200000000 cycles: 3230557293 heartbeat IPC: 0.480476 cumulative IPC: 0.33122 (Simulation time: 10 hr 24 min 3 sec) 
Finished CPU 3 instructions: 1000000000 cycles: 3019138409 cumulative IPC: 0.33122 (Simulation time: 10 hr 24 min 3 sec) 

CPU 0 Branch Prediction Accuracy: 96.7909% MPKI: 4.29577

CPU 1 Branch Prediction Accuracy: 96.7695% MPKI: 4.20941

CPU 2 Branch Prediction Accuracy: 98.5526% MPKI: 0.977221

CPU 3 Branch Prediction Accuracy: 96.2127% MPKI: 6.05657

ChampSim completed all CPUs

Total Simulation Statistics (not including warmup)

CPU 0 cumulative IPC: 1.50055 instructions: 4530376727 cycles: 3019138409
L1D TOTAL     ACCESS: 1254968417  HIT: 1254968396  MISS:         21
L1D LOAD      ACCESS:  548992013  HIT:  548992000  MISS:         13
L1D RFO       ACCESS:  705976404  HIT:  705976396  MISS:          8
L1D PREFETCH  ACCESS:          0  HIT:          0  MISS:          0
L1D WRITEBACK ACCESS:          0  HIT:          0  MISS:          0
L1I TOTAL     ACCESS:  987026666  HIT:  986926669  MISS:      99997
L1I LOAD      ACCESS:  987026666  HIT:  986926669  MISS:      99997
L1I RFO       ACCESS:          0  HIT:          0  MISS:          0
L1I PREFETCH  ACCESS:          0  HIT:          0  MISS:          0
L1I WRITEBACK ACCESS:          0  HIT:          0  MISS:          0
L2C TOTAL     ACCESS:     100031  HIT:      99998  MISS:         33
L2C LOAD      ACCESS:     100010  HIT:      99998  MISS:         12
L2C RFO       ACCESS:          8  HIT:          0  MISS:          8
L2C PREFETCH  ACCESS:         13  HIT:          0  MISS:         13
L2C WRITEBACK ACCESS:          0  HIT:          0  MISS:          0

L2C DA-AMPM prefetcher final stats
LLC TOTAL     ACCESS:         33  HIT:          0  MISS:         33
LLC LOAD      ACCESS:         12  HIT:          0  MISS:         12
LLC RFO       ACCESS:          8  HIT:          0  MISS:          8
LLC PREFETCH  ACCESS:         13  HIT:          0  MISS:         13
LLC WRITEBACK ACCESS:          0  HIT:          0  MISS:          0

CPU 1 cumulative IPC: 1.51819 instructions: 4583639069 cycles: 3019138409
L1D TOTAL     ACCESS: 1282319052  HIT: 1282319026  MISS:         26
L1D LOAD      ACCESS:  558141652  HIT:  558141627  MISS:         25
L1D RFO       ACCESS:  724177400  HIT:  724177399  MISS:          1
L1D PREFETCH  ACCESS:          0  HIT:          0  MISS:          0
L1D WRITEBACK ACCESS:          0  HIT:          0  MISS:          0
L1I TOTAL     ACCESS: 1004028944  HIT: 1003848229  MISS:     180715
L1I LOAD      ACCESS: 1004028944  HIT: 1003848229  MISS:     180715
L1I RFO       ACCESS:          0  HIT:          0  MISS:          0
L1I PREFETCH  ACCESS:          0  HIT:          0  MISS:          0
L1I WRITEBACK ACCESS:          0  HIT:          0  MISS:          0
L2C TOTAL     ACCESS:     180776  HIT:     180714  MISS:         62
L2C LOAD      ACCESS:     180740  HIT:     180714  MISS:         26
L2C RFO       ACCESS:          1  HIT:          0  MISS:          1
L2C PREFETCH  ACCESS:         35  HIT:          0  MISS:         35
L2C WRITEBACK ACCESS:          0  HIT:          0  MISS:          0

L2C DA-AMPM prefetcher final stats
LLC TOTAL     ACCESS:         62  HIT:          0  MISS:         62
LLC LOAD      ACCESS:         26  HIT:          0  MISS:         26
LLC RFO       ACCESS:          1  HIT:          0  MISS:          1
LLC PREFETCH  ACCESS:         35  HIT:          0  MISS:         35
LLC WRITEBACK ACCESS:          0  HIT:          0  MISS:          0

CPU 2 cumulative IPC: 0.810534 instructions: 2447115897 cycles: 3019138409
L1D TOTAL     ACCESS:  581749938  HIT:  552306226  MISS:   29443712
L1D LOAD      ACCESS:  472692586  HIT:  448966370  MISS:   23726216
L1D RFO       ACCESS:  109057352  HIT:  103339856  MISS:    5717496
L1D PREFETCH  ACCESS:          0  HIT:          0  MISS:          0
L1D WRITEBACK ACCESS:          0  HIT:          0  MISS:          0
L1I TOTAL     ACCESS:  748792113  HIT:  748700714  MISS:      91399
L1I LOAD      ACCESS:  748792113  HIT:  748700714  MISS:      91399
L1I RFO       ACCESS:          0  HIT:          0  MISS:          0
L1I PREFETCH  ACCESS:          0  HIT:          0  MISS:          0
L1I WRITEBACK ACCESS:          0  HIT:          0  MISS:          0
L2C TOTAL     ACCESS:   54647541  HIT:   33067595  MISS:   21579946
L2C LOAD      ACCESS:   23816784  HIT:   20667490  MISS:    3149294
L2C RFO       ACCESS:    5681243  HIT:    1521344  MISS:    4159899
L2C PREFETCH  ACCESS:   14346478  HIT:      89086  MISS:   14257392
L2C WRITEBACK ACCESS:   10803036  HIT:   10789675  MISS:      13361

L2C DA-AMPM prefetcher final stats
LLC TOTAL     ACCESS:   30102938  HIT:   17113945  MISS:   12988993
LLC LOAD      ACCESS:    2515769  HIT:    1416936  MISS:    1098833
LLC RFO       ACCESS:    4140462  HIT:    1149338  MISS:    2991124
LLC PREFETCH  ACCESS:   14910245  HIT:    6054470  MISS:    8855775
LLC WRITEBACK ACCESS:    8536462  HIT:    8493201  MISS:      43261

CPU 3 cumulative IPC: 0.33122 instructions: 1000000000 cycles: 3019138409
L1D TOTAL     ACCESS:  436376225  HIT:  389321754  MISS:   47054471
L1D LOAD      ACCESS:  313461982  HIT:  280312782  MISS:   33149200
L1D RFO       ACCESS:  122914243  HIT:  109008972  MISS:   13905271
L1D PREFETCH  ACCESS:          0  HIT:          0  MISS:          0
L1D WRITEBACK ACCESS:          0  HIT:          0  MISS:          0
L1I TOTAL     ACCESS:  288657836  HIT:  288657610  MISS:        226
L1I LOAD      ACCESS:  288657836  HIT:  288657610  MISS:        226
L1I RFO       ACCESS:          0  HIT:          0  MISS:          0
L1I PREFETCH  ACCESS:          0  HIT:          0  MISS:          0
L1I WRITEBACK ACCESS:          0  HIT:          0  MISS:          0
L2C TOTAL     ACCESS:   86445205  HIT:   49477478  MISS:   36967727
L2C LOAD      ACCESS:   33149182  HIT:   22027086  MISS:   11122096
L2C RFO       ACCESS:   13905146  HIT:    1044847  MISS:   12860299
L2C PREFETCH  ACCESS:   13350648  HIT:     374677  MISS:   12975971
L2C WRITEBACK ACCESS:   26040229  HIT:   26030868  MISS:       9361

L2C DA-AMPM prefetcher final stats
LLC TOTAL     ACCESS:   60884234  HIT:   39792500  MISS:   21091734
LLC LOAD      ACCESS:   10748869  HIT:    9222721  MISS:    1526148
LLC RFO       ACCESS:   12860138  HIT:    1990949  MISS:   10869189
LLC PREFETCH  ACCESS:   13349010  HIT:    4661696  MISS:    8687314
LLC WRITEBACK ACCESS:   23926217  HIT:   23917134  MISS:       9083

Region of Interest Statistics

CPU 0 cumulative IPC: 1.49505 instructions: 1000000000 cycles: 668874036
L1D TOTAL     ACCESS:  271495183  HIT:  271495166  MISS:         17
L1D LOAD      ACCESS:  119339499  HIT:  119339490  MISS:          9
L1D RFO       ACCESS:  152155684  HIT:  152155676  MISS:          8
L1D PREFETCH  ACCESS:          0  HIT:          0  MISS:          0
L1D WRITEBACK ACCESS:          0  HIT:          0  MISS:          0
L1D PREFETCH  REQUESTED:          0  ISSUED:          0  USEFUL:          0  USELESS:          0
L1I TOTAL     ACCESS:  217789498  HIT:  217764973  MISS:      24525
L1I LOAD      ACCESS:  217789498  HIT:  217764973  MISS:      24525
L1I RFO       ACCESS:          0  HIT:          0  MISS:          0
L1I PREFETCH  ACCESS:          0  HIT:          0  MISS:          0
L1I WRITEBACK ACCESS:          0  HIT:          0  MISS:          0
L1I PREFETCH  REQUESTED:          0  ISSUED:          0  USEFUL:          0  USELESS:          0
L2C TOTAL     ACCESS:      24553  HIT:      24526  MISS:         27
L2C LOAD      ACCESS:      24534  HIT:      24526  MISS:          8
L2C RFO       ACCESS:          8  HIT:          0  MISS:          8
L2C PREFETCH  ACCESS:         11  HIT:          0  MISS:         11
L2C WRITEBACK ACCESS:          0  HIT:          0  MISS:          0
L2C PREFETCH  REQUESTED:       1409  ISSUED:       1409  USEFUL:       1050  USELESS:          0
LLC TOTAL     ACCESS:         27  HIT:          0  MISS:         27
LLC LOAD      ACCESS:          8  HIT:          0  MISS:          8
LLC RFO       ACCESS:          8  HIT:          0  MISS:          8
LLC PREFETCH  ACCESS:         11  HIT:          0  MISS:         11
LLC WRITEBACK ACCESS:          0  HIT:          0  MISS:          0
LLC PREFETCH  REQUESTED:          0  ISSUED:          0  USEFUL:    1453678  USELESS:   24390470
Major fault: 0 Minor fault: 49

CPU 1 cumulative IPC: 1.492 instructions: 1000000000 cycles: 670242195
L1D TOTAL     ACCESS:  279020338  HIT:  279020317  MISS:         21
L1D LOAD      ACCESS:  122216384  HIT:  122216364  MISS:         20
L1D RFO       ACCESS:  156803954  HIT:  156803953  MISS:          1
L1D PREFETCH  ACCESS:          0  HIT:          0  MISS:          0
L1D WRITEBACK ACCESS:          0  HIT:          0  MISS:          0
L1D PREFETCH  REQUESTED:          0  ISSUED:          0  USEFUL:          0  USELESS:          0
L1I TOTAL     ACCESS:  220228246  HIT:  220170478  MISS:      57768
L1I LOAD      ACCESS:  220228246  HIT:  220170478  MISS:      57768
L1I RFO       ACCESS:          0  HIT:          0  MISS:          0
L1I PREFETCH  ACCESS:          0  HIT:          0  MISS:          0
L1I WRITEBACK ACCESS:          0  HIT:          0  MISS:          0
L1I PREFETCH  REQUESTED:          0  ISSUED:          0  USEFUL:          0  USELESS:          0
L2C TOTAL     ACCESS:      57822  HIT:      57766  MISS:         56
L2C LOAD      ACCESS:      57788  HIT:      57766  MISS:         22
L2C RFO       ACCESS:          1  HIT:          0  MISS:          1
L2C PREFETCH  ACCESS:         33  HIT:          0  MISS:         33
L2C WRITEBACK ACCESS:          0  HIT:          0  MISS:          0
L2C PREFETCH  REQUESTED:       1405  ISSUED:       1405  USEFUL:       1052  USELESS:          0
LLC TOTAL     ACCESS:         56  HIT:          0  MISS:         56
LLC LOAD      ACCESS:         22  HIT:          0  MISS:         22
LLC RFO       ACCESS:          1  HIT:          0  MISS:          1
LLC PREFETCH  ACCESS:         33  HIT:          0  MISS:         33
LLC WRITEBACK ACCESS:          0  HIT:          0  MISS:          0
LLC PREFETCH  REQUESTED:          0  ISSUED:          0  USEFUL:    1453678  USELESS:   24390470
Major fault: 0 Minor fault: 49

CPU 2 cumulative IPC: 0.796036 instructions: 1000000001 cycles: 1256224016
L1D TOTAL     ACCESS:  247099908  HIT:  234518662  MISS:   12581246
L1D LOAD      ACCESS:  194277696  HIT:  184555837  MISS:    9721859
L1D RFO       ACCESS:   52822212  HIT:   49962825  MISS:    2859387
L1D PREFETCH  ACCESS:          0  HIT:          0  MISS:          0
L1D WRITEBACK ACCESS:          0  HIT:          0  MISS:          0
L1D PREFETCH  REQUESTED:          0  ISSUED:          0  USEFUL:          0  USELESS:          0
L1I TOTAL     ACCESS:  304537013  HIT:  304477550  MISS:      59463
L1I LOAD      ACCESS:  304537013  HIT:  304477550  MISS:      59463
L1I RFO       ACCESS:          0  HIT:          0  MISS:          0
L1I PREFETCH  ACCESS:          0  HIT:          0  MISS:          0
L1I WRITEBACK ACCESS:          0  HIT:          0  MISS:          0
L1I PREFETCH  REQUESTED:          0  ISSUED:          0  USEFUL:          0  USELESS:          0
L2C TOTAL     ACCESS:   22629027  HIT:   14024670  MISS:    8604357
L2C LOAD      ACCESS:    9781017  HIT:    8347025  MISS:    1433992
L2C RFO       ACCESS:    2824464  HIT:     899274  MISS:    1925190
L2C PREFETCH  ACCESS:    5273223  HIT:      31913  MISS:    5241310
L2C WRITEBACK ACCESS:    4750323  HIT:    4746458  MISS:       3865
L2C PREFETCH  REQUESTED:   20038406  ISSUED:   19722836  USEFUL:   17479461  USELESS:    1077818
LLC TOTAL     ACCESS:   12088298  HIT:    6184207  MISS:    5904091
LLC LOAD      ACCESS:    1134016  HIT:     599272  MISS:     534744
LLC RFO       ACCESS:    1916567  HIT:     539778  MISS:    1376789
LLC PREFETCH  ACCESS:    5549861  HIT:    1588139  MISS:    3961722
LLC WRITEBACK ACCESS:    3487854  HIT:    3457018  MISS:      30836
LLC PREFETCH  REQUESTED:          0  ISSUED:          0  USEFUL:    1453678  USELESS:   24390470
Major fault: 0 Minor fault: 17750

CPU 3 cumulative IPC: 0.33122 instructions: 1000000000 cycles: 3019138409
L1D TOTAL     ACCESS:  436376225  HIT:  389321754  MISS:   47054471
L1D LOAD      ACCESS:  313461982  HIT:  280312782  MISS:   33149200
L1D RFO       ACCESS:  122914243  HIT:  109008972  MISS:   13905271
L1D PREFETCH  ACCESS:          0  HIT:          0  MISS:          0
L1D WRITEBACK ACCESS:          0  HIT:          0  MISS:          0
L1D PREFETCH  REQUESTED:          0  ISSUED:          0  USEFUL:          0  USELESS:          0
L1I TOTAL     ACCESS:  288657836  HIT:  288657610  MISS:        226
L1I LOAD      ACCESS:  288657836  HIT:  288657610  MISS:        226
L1I RFO       ACCESS:          0  HIT:          0  MISS:          0
L1I PREFETCH  ACCESS:          0  HIT:          0  MISS:          0
L1I WRITEBACK ACCESS:          0  HIT:          0  MISS:          0
L1I PREFETCH  REQUESTED:          0  ISSUED:          0  USEFUL:          0  USELESS:          0
L2C TOTAL     ACCESS:   86445205  HIT:   49477478  MISS:   36967727
L2C LOAD      ACCESS:   33149182  HIT:   22027086  MISS:   11122096
L2C RFO       ACCESS:   13905146  HIT:    1044847  MISS:   12860299
L2C PREFETCH  ACCESS:   13350648  HIT:     374677  MISS:   12975971
L2C WRITEBACK ACCESS:   26040229  HIT:   26030868  MISS:       9361
L2C PREFETCH  REQUESTED:   19703806  ISSUED:   19703806  USEFUL:   15717210  USELESS:    2788513
LLC TOTAL     ACCESS:   60884234  HIT:   39792500  MISS:   21091734
LLC LOAD      ACCESS:   10748869  HIT:    9222721  MISS:    1526148
LLC RFO       ACCESS:   12860138  HIT:    1990949  MISS:   10869189
LLC PREFETCH  ACCESS:   13349010  HIT:    4661696  MISS:    8687314
LLC WRITEBACK ACCESS:   23926217  HIT:   23917134  MISS:       9083
LLC PREFETCH  REQUESTED:          0  ISSUED:          0  USEFUL:    1453678  USELESS:   24390470
Major fault: 0 Minor fault: 401622

L2C DA-AMPM prefetcher final stats

L2C DA-AMPM prefetcher final stats

L2C DA-AMPM prefetcher final stats

L2C DA-AMPM prefetcher final stats

DRAM Statistics
 CHANNEL 0
 RQ ROW_BUFFER_HIT:    4574709  ROW_BUFFER_MISS:   12437258
 DBUS_CONGESTED:   32763595
 WQ ROW_BUFFER_HIT:    1232495  ROW_BUFFER_MISS:   10215568  FULL:          0

 CHANNEL 1
 RQ ROW_BUFFER_HIT:    4566981  ROW_BUFFER_MISS:   12445274
 DBUS_CONGESTED:   32763595
 WQ ROW_BUFFER_HIT:    1227698  ROW_BUFFER_MISS:   10217814  FULL:          0

 AVG_CONGESTED_CYCLE: 14
