
*** ChampSim Multicore Out-of-Order Simulator ***

Warmup Instructions: 200000000
Simulation Instructions: 1000000000
Number of CPUs: 4
LLC sets: 8192
LLC ways: 16
Off-chip DRAM Size: 8192 MB Channels: 2 Width: 64-bit Data Rate: 1600 MT/s

CPU 0 runs /scratch/user/djimenez/champsim-traces/speccpu2017/xz/648.exchange2_s/648.exchange2_s-72B.champsimtrace.xz
CPU 1 runs /scratch/user/djimenez/champsim-traces/speccpu2017/xz/648.exchange2_s/648.exchange2_s-1511B.champsimtrace.xz
CPU 2 runs /scratch/user/djimenez/champsim-traces/speccpu2017/xz/605.mcf_s/605.mcf_s-1152B.champsimtrace.xz
CPU 3 runs /scratch/user/djimenez/champsim-traces/speccpu2017/xz/603.bwaves_s/603.bwaves_s-1080B.champsimtrace.xz
L2C DA-AMPM prefetcher
L2C DA-AMPM prefetcher
L2C DA-AMPM prefetcher
L2C DA-AMPM prefetcher
Heartbeat CPU 0 instructions: 10000000 cycles: 4333392 heartbeat IPC: 2.30766 cumulative IPC: 2.30766 (Simulation time: 0 hr 1 min 10 sec) 
Heartbeat CPU 3 instructions: 10000003 cycles: 4334711 heartbeat IPC: 2.30696 cumulative IPC: 2.30696 (Simulation time: 0 hr 1 min 10 sec) 
Heartbeat CPU 1 instructions: 10000001 cycles: 4340244 heartbeat IPC: 2.30402 cumulative IPC: 2.30402 (Simulation time: 0 hr 1 min 10 sec) 
Heartbeat CPU 2 instructions: 10000001 cycles: 6529619 heartbeat IPC: 1.53148 cumulative IPC: 1.53148 (Simulation time: 0 hr 1 min 49 sec) 
Heartbeat CPU 1 instructions: 20000000 cycles: 8622806 heartbeat IPC: 2.33505 cumulative IPC: 2.31943 (Simulation time: 0 hr 2 min 22 sec) 
Heartbeat CPU 0 instructions: 20000000 cycles: 8670578 heartbeat IPC: 2.30564 cumulative IPC: 2.30665 (Simulation time: 0 hr 2 min 23 sec) 
Heartbeat CPU 3 instructions: 20000000 cycles: 8838238 heartbeat IPC: 2.22048 cumulative IPC: 2.26289 (Simulation time: 0 hr 2 min 25 sec) 
Heartbeat CPU 1 instructions: 30000000 cycles: 12762163 heartbeat IPC: 2.41583 cumulative IPC: 2.3507 (Simulation time: 0 hr 3 min 26 sec) 
Heartbeat CPU 3 instructions: 30000000 cycles: 12796079 heartbeat IPC: 2.52663 cumulative IPC: 2.34447 (Simulation time: 0 hr 3 min 26 sec) 
Heartbeat CPU 0 instructions: 30000000 cycles: 13000961 heartbeat IPC: 2.30926 cumulative IPC: 2.30752 (Simulation time: 0 hr 3 min 29 sec) 
Heartbeat CPU 2 instructions: 20000000 cycles: 13059841 heartbeat IPC: 1.53134 cumulative IPC: 1.53141 (Simulation time: 0 hr 3 min 30 sec) 
Heartbeat CPU 3 instructions: 40000000 cycles: 16751437 heartbeat IPC: 2.52822 cumulative IPC: 2.38785 (Simulation time: 0 hr 4 min 27 sec) 
Heartbeat CPU 1 instructions: 40000000 cycles: 16908392 heartbeat IPC: 2.41183 cumulative IPC: 2.36569 (Simulation time: 0 hr 4 min 29 sec) 
Heartbeat CPU 0 instructions: 40000000 cycles: 17294906 heartbeat IPC: 2.32886 cumulative IPC: 2.31282 (Simulation time: 0 hr 4 min 35 sec) 
Heartbeat CPU 2 instructions: 30000001 cycles: 19576583 heartbeat IPC: 1.53451 cumulative IPC: 1.53244 (Simulation time: 0 hr 5 min 11 sec) 
Heartbeat CPU 3 instructions: 50000000 cycles: 20725062 heartbeat IPC: 2.51659 cumulative IPC: 2.41254 (Simulation time: 0 hr 5 min 28 sec) 
Heartbeat CPU 1 instructions: 50000003 cycles: 21128552 heartbeat IPC: 2.36958 cumulative IPC: 2.36647 (Simulation time: 0 hr 5 min 34 sec) 
Heartbeat CPU 0 instructions: 50000001 cycles: 21641678 heartbeat IPC: 2.30056 cumulative IPC: 2.31036 (Simulation time: 0 hr 5 min 42 sec) 
Heartbeat CPU 3 instructions: 60000000 cycles: 24717300 heartbeat IPC: 2.50486 cumulative IPC: 2.42745 (Simulation time: 0 hr 6 min 29 sec) 
Heartbeat CPU 1 instructions: 60000000 cycles: 25365563 heartbeat IPC: 2.36015 cumulative IPC: 2.36541 (Simulation time: 0 hr 6 min 39 sec) 
Heartbeat CPU 0 instructions: 60000000 cycles: 25993748 heartbeat IPC: 2.29776 cumulative IPC: 2.30825 (Simulation time: 0 hr 6 min 49 sec) 
Heartbeat CPU 2 instructions: 40000000 cycles: 26101289 heartbeat IPC: 1.53264 cumulative IPC: 1.53249 (Simulation time: 0 hr 6 min 50 sec) 
Heartbeat CPU 3 instructions: 70000000 cycles: 28703916 heartbeat IPC: 2.50839 cumulative IPC: 2.43869 (Simulation time: 0 hr 7 min 30 sec) 
Heartbeat CPU 1 instructions: 70000003 cycles: 29715529 heartbeat IPC: 2.29887 cumulative IPC: 2.35567 (Simulation time: 0 hr 7 min 46 sec) 
Heartbeat CPU 0 instructions: 70000003 cycles: 30285296 heartbeat IPC: 2.33016 cumulative IPC: 2.31135 (Simulation time: 0 hr 7 min 54 sec) 
Heartbeat CPU 2 instructions: 50000000 cycles: 32620432 heartbeat IPC: 1.53394 cumulative IPC: 1.53278 (Simulation time: 0 hr 8 min 30 sec) 
Heartbeat CPU 3 instructions: 80000000 cycles: 32692557 heartbeat IPC: 2.50712 cumulative IPC: 2.44704 (Simulation time: 0 hr 8 min 31 sec) 
Heartbeat CPU 1 instructions: 80000000 cycles: 33974653 heartbeat IPC: 2.3479 cumulative IPC: 2.3547 (Simulation time: 0 hr 8 min 50 sec) 
Heartbeat CPU 0 instructions: 80000000 cycles: 34633589 heartbeat IPC: 2.29975 cumulative IPC: 2.3099 (Simulation time: 0 hr 9 min 0 sec) 
Heartbeat CPU 3 instructions: 90000000 cycles: 36686879 heartbeat IPC: 2.50355 cumulative IPC: 2.45319 (Simulation time: 0 hr 9 min 32 sec) 
Heartbeat CPU 1 instructions: 90000000 cycles: 38244877 heartbeat IPC: 2.3418 cumulative IPC: 2.35326 (Simulation time: 0 hr 9 min 56 sec) 
Heartbeat CPU 0 instructions: 90000001 cycles: 38934202 heartbeat IPC: 2.32525 cumulative IPC: 2.31159 (Simulation time: 0 hr 10 min 6 sec) 
Heartbeat CPU 2 instructions: 60000000 cycles: 39132616 heartbeat IPC: 1.53558 cumulative IPC: 1.53325 (Simulation time: 0 hr 10 min 9 sec) 
Heartbeat CPU 3 instructions: 100000000 cycles: 40673766 heartbeat IPC: 2.50822 cumulative IPC: 2.45859 (Simulation time: 0 hr 10 min 33 sec) 
Heartbeat CPU 1 instructions: 100000000 cycles: 42475194 heartbeat IPC: 2.36389 cumulative IPC: 2.35432 (Simulation time: 0 hr 11 min 0 sec) 
Heartbeat CPU 0 instructions: 100000000 cycles: 43206531 heartbeat IPC: 2.34064 cumulative IPC: 2.31446 (Simulation time: 0 hr 11 min 12 sec) 
Heartbeat CPU 3 instructions: 110000001 cycles: 44645133 heartbeat IPC: 2.51802 cumulative IPC: 2.46387 (Simulation time: 0 hr 11 min 33 sec) 
Heartbeat CPU 2 instructions: 70000000 cycles: 45660847 heartbeat IPC: 1.53181 cumulative IPC: 1.53304 (Simulation time: 0 hr 11 min 49 sec) 
Heartbeat CPU 1 instructions: 110000001 cycles: 46687032 heartbeat IPC: 2.37426 cumulative IPC: 2.35611 (Simulation time: 0 hr 12 min 4 sec) 
Heartbeat CPU 0 instructions: 110000001 cycles: 47468030 heartbeat IPC: 2.34659 cumulative IPC: 2.31735 (Simulation time: 0 hr 12 min 16 sec) 
Heartbeat CPU 3 instructions: 120000000 cycles: 48603825 heartbeat IPC: 2.52609 cumulative IPC: 2.46894 (Simulation time: 0 hr 12 min 34 sec) 
Heartbeat CPU 1 instructions: 120000000 cycles: 50908660 heartbeat IPC: 2.36875 cumulative IPC: 2.35716 (Simulation time: 0 hr 13 min 9 sec) 
Heartbeat CPU 0 instructions: 120000000 cycles: 51676844 heartbeat IPC: 2.37597 cumulative IPC: 2.32212 (Simulation time: 0 hr 13 min 21 sec) 
Heartbeat CPU 2 instructions: 80000000 cycles: 52162908 heartbeat IPC: 1.53797 cumulative IPC: 1.53366 (Simulation time: 0 hr 13 min 28 sec) 
Heartbeat CPU 3 instructions: 130000002 cycles: 52556632 heartbeat IPC: 2.52985 cumulative IPC: 2.47352 (Simulation time: 0 hr 13 min 34 sec) 
Heartbeat CPU 1 instructions: 130000000 cycles: 55083752 heartbeat IPC: 2.39516 cumulative IPC: 2.36004 (Simulation time: 0 hr 14 min 14 sec) 
Heartbeat CPU 0 instructions: 130000003 cycles: 55870187 heartbeat IPC: 2.38473 cumulative IPC: 2.32682 (Simulation time: 0 hr 14 min 26 sec) 
Heartbeat CPU 3 instructions: 140000000 cycles: 56513111 heartbeat IPC: 2.5275 cumulative IPC: 2.4773 (Simulation time: 0 hr 14 min 36 sec) 
Heartbeat CPU 2 instructions: 90000002 cycles: 58660198 heartbeat IPC: 1.5391 cumulative IPC: 1.53426 (Simulation time: 0 hr 15 min 9 sec) 
Heartbeat CPU 1 instructions: 140000000 cycles: 59309433 heartbeat IPC: 2.36648 cumulative IPC: 2.3605 (Simulation time: 0 hr 15 min 20 sec) 
Heartbeat CPU 0 instructions: 140000000 cycles: 60102261 heartbeat IPC: 2.36291 cumulative IPC: 2.32936 (Simulation time: 0 hr 15 min 32 sec) 
Heartbeat CPU 3 instructions: 150000002 cycles: 60491887 heartbeat IPC: 2.51334 cumulative IPC: 2.47967 (Simulation time: 0 hr 15 min 38 sec) 
Heartbeat CPU 1 instructions: 150000000 cycles: 63623686 heartbeat IPC: 2.3179 cumulative IPC: 2.35761 (Simulation time: 0 hr 16 min 27 sec) 
Heartbeat CPU 0 instructions: 150000001 cycles: 64264370 heartbeat IPC: 2.40263 cumulative IPC: 2.33411 (Simulation time: 0 hr 16 min 37 sec) 
Heartbeat CPU 3 instructions: 160000000 cycles: 64470780 heartbeat IPC: 2.51326 cumulative IPC: 2.48174 (Simulation time: 0 hr 16 min 40 sec) 
Heartbeat CPU 2 instructions: 100000000 cycles: 65146083 heartbeat IPC: 1.54181 cumulative IPC: 1.53501 (Simulation time: 0 hr 16 min 50 sec) 
Heartbeat CPU 1 instructions: 160000000 cycles: 67804953 heartbeat IPC: 2.39162 cumulative IPC: 2.35971 (Simulation time: 0 hr 17 min 31 sec) 
Heartbeat CPU 3 instructions: 170000003 cycles: 68467421 heartbeat IPC: 2.5021 cumulative IPC: 2.48293 (Simulation time: 0 hr 17 min 42 sec) 
Heartbeat CPU 0 instructions: 160000000 cycles: 68531936 heartbeat IPC: 2.34326 cumulative IPC: 2.33468 (Simulation time: 0 hr 17 min 43 sec) 
Heartbeat CPU 2 instructions: 110000000 cycles: 71625967 heartbeat IPC: 1.54324 cumulative IPC: 1.53576 (Simulation time: 0 hr 18 min 31 sec) 
Heartbeat CPU 1 instructions: 170000001 cycles: 72032181 heartbeat IPC: 2.36562 cumulative IPC: 2.36006 (Simulation time: 0 hr 18 min 37 sec) 
Heartbeat CPU 3 instructions: 180000000 cycles: 72444051 heartbeat IPC: 2.51469 cumulative IPC: 2.48468 (Simulation time: 0 hr 18 min 44 sec) 
Heartbeat CPU 0 instructions: 170000003 cycles: 72753422 heartbeat IPC: 2.36883 cumulative IPC: 2.33666 (Simulation time: 0 hr 18 min 49 sec) 
Heartbeat CPU 1 instructions: 180000000 cycles: 76248081 heartbeat IPC: 2.37197 cumulative IPC: 2.36072 (Simulation time: 0 hr 19 min 43 sec) 
Heartbeat CPU 3 instructions: 190000002 cycles: 76437794 heartbeat IPC: 2.50392 cumulative IPC: 2.48568 (Simulation time: 0 hr 19 min 46 sec) 
Heartbeat CPU 0 instructions: 180000000 cycles: 76961016 heartbeat IPC: 2.37665 cumulative IPC: 2.33885 (Simulation time: 0 hr 19 min 55 sec) 
Heartbeat CPU 2 instructions: 120000000 cycles: 78102122 heartbeat IPC: 1.54413 cumulative IPC: 1.53645 (Simulation time: 0 hr 20 min 12 sec) 
Heartbeat CPU 3 instructions: 200000000 cycles: 80433619 heartbeat IPC: 2.50261 cumulative IPC: 2.48652 (Simulation time: 0 hr 20 min 49 sec) 
Heartbeat CPU 1 instructions: 190000000 cycles: 80462752 heartbeat IPC: 2.37266 cumulative IPC: 2.36134 (Simulation time: 0 hr 20 min 50 sec) 
Heartbeat CPU 0 instructions: 190000003 cycles: 81167855 heartbeat IPC: 2.37708 cumulative IPC: 2.34083 (Simulation time: 0 hr 21 min 1 sec) 
Heartbeat CPU 3 instructions: 210000003 cycles: 84412621 heartbeat IPC: 2.51319 cumulative IPC: 0.118466 (Simulation time: 0 hr 21 min 51 sec) 
Heartbeat CPU 2 instructions: 130000001 cycles: 84547116 heartbeat IPC: 1.55159 cumulative IPC: 1.5376 (Simulation time: 0 hr 21 min 53 sec) 
Heartbeat CPU 1 instructions: 200000000 cycles: 84677786 heartbeat IPC: 2.37246 cumulative IPC: 2.36189 (Simulation time: 0 hr 21 min 56 sec) 
Heartbeat CPU 0 instructions: 200000000 cycles: 85466896 heartbeat IPC: 2.3261 cumulative IPC: 2.34009 (Simulation time: 0 hr 22 min 8 sec) 
Heartbeat CPU 3 instructions: 220000000 cycles: 88408317 heartbeat IPC: 2.50269 cumulative IPC: 0.226223 (Simulation time: 0 hr 22 min 54 sec) 
Heartbeat CPU 1 instructions: 210000003 cycles: 88895987 heartbeat IPC: 2.37068 cumulative IPC: 0.112491 (Simulation time: 0 hr 23 min 2 sec) 
Heartbeat CPU 0 instructions: 210000000 cycles: 89755283 heartbeat IPC: 2.33188 cumulative IPC: 0.111414 (Simulation time: 0 hr 23 min 17 sec) 
Heartbeat CPU 2 instructions: 140000000 cycles: 90974713 heartbeat IPC: 1.55579 cumulative IPC: 1.53889 (Simulation time: 0 hr 23 min 38 sec) 
Heartbeat CPU 3 instructions: 230000000 cycles: 92392144 heartbeat IPC: 2.51015 cumulative IPC: 0.324703 (Simulation time: 0 hr 24 min 2 sec) 
Heartbeat CPU 1 instructions: 220000000 cycles: 93147432 heartbeat IPC: 2.35214 cumulative IPC: 0.214713 (Simulation time: 0 hr 24 min 15 sec) 
Heartbeat CPU 0 instructions: 220000000 cycles: 94074121 heartbeat IPC: 2.31544 cumulative IPC: 0.212598 (Simulation time: 0 hr 24 min 31 sec) 
Heartbeat CPU 3 instructions: 240000000 cycles: 96384098 heartbeat IPC: 2.50504 cumulative IPC: 0.415006 (Simulation time: 0 hr 25 min 11 sec) 
Heartbeat CPU 1 instructions: 230000001 cycles: 97298321 heartbeat IPC: 2.40912 cumulative IPC: 0.30833 (Simulation time: 0 hr 25 min 27 sec) 
Heartbeat CPU 2 instructions: 150000000 cycles: 97319465 heartbeat IPC: 1.57611 cumulative IPC: 1.54132 (Simulation time: 0 hr 25 min 27 sec) 
Heartbeat CPU 0 instructions: 230000003 cycles: 98394928 heartbeat IPC: 2.31438 cumulative IPC: 0.304894 (Simulation time: 0 hr 25 min 46 sec) 
Heartbeat CPU 3 instructions: 250000003 cycles: 100374717 heartbeat IPC: 2.50588 cumulative IPC: 0.498133 (Simulation time: 0 hr 26 min 21 sec) 
Heartbeat CPU 1 instructions: 240000000 cycles: 101522793 heartbeat IPC: 2.36716 cumulative IPC: 0.394 (Simulation time: 0 hr 26 min 41 sec) 
Heartbeat CPU 0 instructions: 240000000 cycles: 102658894 heartbeat IPC: 2.34523 cumulative IPC: 0.38964 (Simulation time: 0 hr 27 min 0 sec) 
Heartbeat CPU 2 instructions: 160000000 cycles: 103596234 heartbeat IPC: 1.59318 cumulative IPC: 1.54446 (Simulation time: 0 hr 27 min 17 sec) 
Heartbeat CPU 3 instructions: 260000000 cycles: 104361281 heartbeat IPC: 2.50842 cumulative IPC: 0.574926 (Simulation time: 0 hr 27 min 30 sec) 
Heartbeat CPU 1 instructions: 250000002 cycles: 105786559 heartbeat IPC: 2.34535 cumulative IPC: 0.47265 (Simulation time: 0 hr 27 min 55 sec) 
Heartbeat CPU 0 instructions: 250000001 cycles: 106911033 heartbeat IPC: 2.35176 cumulative IPC: 0.467679 (Simulation time: 0 hr 28 min 15 sec) 
Heartbeat CPU 3 instructions: 270000002 cycles: 108354604 heartbeat IPC: 2.50418 cumulative IPC: 0.646027 (Simulation time: 0 hr 28 min 40 sec) 
Heartbeat CPU 2 instructions: 170000000 cycles: 109853698 heartbeat IPC: 1.59809 cumulative IPC: 1.54751 (Simulation time: 0 hr 29 min 7 sec) 
Heartbeat CPU 1 instructions: 260000000 cycles: 110006181 heartbeat IPC: 2.36988 cumulative IPC: 0.545424 (Simulation time: 0 hr 29 min 10 sec) 
Heartbeat CPU 0 instructions: 260000000 cycles: 111203971 heartbeat IPC: 2.32941 cumulative IPC: 0.539549 (Simulation time: 0 hr 29 min 31 sec) 
Heartbeat CPU 3 instructions: 280000000 cycles: 112343920 heartbeat IPC: 2.50669 cumulative IPC: 0.712099 (Simulation time: 0 hr 29 min 50 sec) 
Heartbeat CPU 1 instructions: 270000002 cycles: 114188179 heartbeat IPC: 2.3912 cumulative IPC: 0.613023 (Simulation time: 0 hr 30 min 23 sec) 
Heartbeat CPU 0 instructions: 270000000 cycles: 115507457 heartbeat IPC: 2.3237 cumulative IPC: 0.606021 (Simulation time: 0 hr 30 min 47 sec) 
Heartbeat CPU 2 instructions: 180000000 cycles: 116010207 heartbeat IPC: 1.6243 cumulative IPC: 1.55159 (Simulation time: 0 hr 30 min 56 sec) 
Heartbeat CPU 3 instructions: 290000001 cycles: 116327584 heartbeat IPC: 2.51025 cumulative IPC: 0.773677 (Simulation time: 0 hr 31 min 1 sec) 
Heartbeat CPU 1 instructions: 280000000 cycles: 118341725 heartbeat IPC: 2.40758 cumulative IPC: 0.676008 (Simulation time: 0 hr 31 min 37 sec) 
Heartbeat CPU 0 instructions: 280000000 cycles: 119827752 heartbeat IPC: 2.31466 cumulative IPC: 0.667625 (Simulation time: 0 hr 32 min 3 sec) 
Heartbeat CPU 3 instructions: 300000000 cycles: 120320563 heartbeat IPC: 2.5044 cumulative IPC: 0.831113 (Simulation time: 0 hr 32 min 11 sec) 
Heartbeat CPU 2 instructions: 190000001 cycles: 122208094 heartbeat IPC: 1.61345 cumulative IPC: 1.55473 (Simulation time: 0 hr 32 min 45 sec) 
Heartbeat CPU 1 instructions: 290000003 cycles: 122627965 heartbeat IPC: 2.33305 cumulative IPC: 0.733927 (Simulation time: 0 hr 32 min 52 sec) 
Heartbeat CPU 0 instructions: 290000003 cycles: 124153465 heartbeat IPC: 2.31176 cumulative IPC: 0.724909 (Simulation time: 0 hr 33 min 19 sec) 
Heartbeat CPU 3 instructions: 310000001 cycles: 124305373 heartbeat IPC: 2.50953 cumulative IPC: 0.884917 (Simulation time: 0 hr 33 min 21 sec) 
Heartbeat CPU 1 instructions: 300000000 cycles: 126805456 heartbeat IPC: 2.39378 cumulative IPC: 0.78861 (Simulation time: 0 hr 34 min 5 sec) 
Heartbeat CPU 3 instructions: 320000000 cycles: 128297680 heartbeat IPC: 2.50482 cumulative IPC: 0.935325 (Simulation time: 0 hr 34 min 31 sec) 
Heartbeat CPU 2 instructions: 200000000 cycles: 128424083 heartbeat IPC: 1.60875 cumulative IPC: 1.55734 (Simulation time: 0 hr 34 min 34 sec) 

Warmup complete CPU 0 instructions: 299886229 cycles: 128424084 (Simulation time: 0 hr 34 min 34 sec) 
Warmup complete CPU 1 instructions: 303860123 cycles: 128424084 (Simulation time: 0 hr 34 min 34 sec) 
Warmup complete CPU 2 instructions: 200000001 cycles: 128424084 (Simulation time: 0 hr 34 min 34 sec) 
Warmup complete CPU 3 instructions: 320320438 cycles: 128424083 (Simulation time: 0 hr 34 min 34 sec) 

Heartbeat CPU 0 instructions: 300000000 cycles: 128495965 heartbeat IPC: 2.30282 cumulative IPC: 1.58277 (Simulation time: 0 hr 34 min 34 sec) 
Heartbeat CPU 1 instructions: 310000000 cycles: 132733421 heartbeat IPC: 1.68692 cumulative IPC: 1.42478 (Simulation time: 0 hr 35 min 24 sec) 
Heartbeat CPU 0 instructions: 310000000 cycles: 134893000 heartbeat IPC: 1.56322 cumulative IPC: 1.56344 (Simulation time: 0 hr 35 min 49 sec) 
Heartbeat CPU 3 instructions: 330000003 cycles: 136975556 heartbeat IPC: 1.15236 cumulative IPC: 1.13192 (Simulation time: 0 hr 36 min 14 sec) 
Heartbeat CPU 1 instructions: 320000000 cycles: 139116377 heartbeat IPC: 1.56667 cumulative IPC: 1.50949 (Simulation time: 0 hr 36 min 40 sec) 
Heartbeat CPU 0 instructions: 320000000 cycles: 141250890 heartbeat IPC: 1.57285 cumulative IPC: 1.5681 (Simulation time: 0 hr 37 min 5 sec) 
Heartbeat CPU 3 instructions: 340000000 cycles: 145783202 heartbeat IPC: 1.13538 cumulative IPC: 1.13367 (Simulation time: 0 hr 37 min 58 sec) 
Heartbeat CPU 1 instructions: 330000003 cycles: 146021575 heartbeat IPC: 1.44818 cumulative IPC: 1.48543 (Simulation time: 0 hr 38 min 1 sec) 
Heartbeat CPU 0 instructions: 330000002 cycles: 147527440 heartbeat IPC: 1.59323 cumulative IPC: 1.57636 (Simulation time: 0 hr 38 min 19 sec) 
Heartbeat CPU 1 instructions: 340000000 cycles: 152396369 heartbeat IPC: 1.56868 cumulative IPC: 1.50757 (Simulation time: 0 hr 39 min 17 sec) 
Heartbeat CPU 0 instructions: 340000000 cycles: 153612033 heartbeat IPC: 1.64349 cumulative IPC: 1.59258 (Simulation time: 0 hr 39 min 32 sec) 
Heartbeat CPU 3 instructions: 350000003 cycles: 154549636 heartbeat IPC: 1.14072 cumulative IPC: 1.13604 (Simulation time: 0 hr 39 min 43 sec) 
Heartbeat CPU 2 instructions: 210000002 cycles: 157716609 heartbeat IPC: 0.341384 cumulative IPC: 0.341384 (Simulation time: 0 hr 40 min 22 sec) 
Heartbeat CPU 1 instructions: 350000000 cycles: 158494689 heartbeat IPC: 1.6398 cumulative IPC: 1.53438 (Simulation time: 0 hr 40 min 32 sec) 
Heartbeat CPU 0 instructions: 350000003 cycles: 159617588 heartbeat IPC: 1.66513 cumulative IPC: 1.60655 (Simulation time: 0 hr 40 min 45 sec) 
Heartbeat CPU 3 instructions: 360000000 cycles: 163297138 heartbeat IPC: 1.14318 cumulative IPC: 1.13783 (Simulation time: 0 hr 41 min 28 sec) 
Heartbeat CPU 1 instructions: 360000000 cycles: 165364335 heartbeat IPC: 1.45568 cumulative IPC: 1.51975 (Simulation time: 0 hr 41 min 53 sec) 
Heartbeat CPU 0 instructions: 360000000 cycles: 165619790 heartbeat IPC: 1.66605 cumulative IPC: 1.61615 (Simulation time: 0 hr 41 min 56 sec) 
Heartbeat CPU 1 instructions: 370000001 cycles: 171569763 heartbeat IPC: 1.61149 cumulative IPC: 1.53294 (Simulation time: 0 hr 43 min 7 sec) 
Heartbeat CPU 0 instructions: 370000000 cycles: 171725281 heartbeat IPC: 1.63787 cumulative IPC: 1.61921 (Simulation time: 0 hr 43 min 9 sec) 
Heartbeat CPU 3 instructions: 370000001 cycles: 172060030 heartbeat IPC: 1.14118 cumulative IPC: 1.1385 (Simulation time: 0 hr 43 min 13 sec) 
Heartbeat CPU 1 instructions: 380000000 cycles: 177671199 heartbeat IPC: 1.63896 cumulative IPC: 1.54608 (Simulation time: 0 hr 44 min 21 sec) 
Heartbeat CPU 0 instructions: 380000000 cycles: 177815009 heartbeat IPC: 1.64211 cumulative IPC: 1.62203 (Simulation time: 0 hr 44 min 23 sec) 
Heartbeat CPU 3 instructions: 380000000 cycles: 180864074 heartbeat IPC: 1.13584 cumulative IPC: 1.13805 (Simulation time: 0 hr 45 min 0 sec) 
Heartbeat CPU 1 instructions: 390000002 cycles: 183769428 heartbeat IPC: 1.63982 cumulative IPC: 1.55641 (Simulation time: 0 hr 45 min 35 sec) 
Heartbeat CPU 0 instructions: 390000002 cycles: 183778828 heartbeat IPC: 1.67678 cumulative IPC: 1.62793 (Simulation time: 0 hr 45 min 35 sec) 
Heartbeat CPU 2 instructions: 220000000 cycles: 186656437 heartbeat IPC: 0.345544 cumulative IPC: 0.343452 (Simulation time: 0 hr 46 min 10 sec) 
Heartbeat CPU 3 instructions: 390000000 cycles: 189721302 heartbeat IPC: 1.12902 cumulative IPC: 1.13675 (Simulation time: 0 hr 46 min 46 sec) 
Heartbeat CPU 0 instructions: 400000000 cycles: 190012249 heartbeat IPC: 1.60426 cumulative IPC: 1.62554 (Simulation time: 0 hr 46 min 49 sec) 
Heartbeat CPU 1 instructions: 400000000 cycles: 190167732 heartbeat IPC: 1.56291 cumulative IPC: 1.55708 (Simulation time: 0 hr 46 min 51 sec) 
Heartbeat CPU 0 instructions: 410000002 cycles: 196246727 heartbeat IPC: 1.60398 cumulative IPC: 1.62355 (Simulation time: 0 hr 48 min 1 sec) 
Heartbeat CPU 1 instructions: 410000002 cycles: 196895192 heartbeat IPC: 1.48645 cumulative IPC: 1.55014 (Simulation time: 0 hr 48 min 9 sec) 
Heartbeat CPU 3 instructions: 400000000 cycles: 198531164 heartbeat IPC: 1.13509 cumulative IPC: 1.13654 (Simulation time: 0 hr 48 min 28 sec) 
Heartbeat CPU 0 instructions: 420000000 cycles: 202529183 heartbeat IPC: 1.59173 cumulative IPC: 1.62086 (Simulation time: 0 hr 49 min 15 sec) 
Heartbeat CPU 1 instructions: 420000000 cycles: 203085350 heartbeat IPC: 1.61547 cumulative IPC: 1.55556 (Simulation time: 0 hr 49 min 22 sec) 
Heartbeat CPU 3 instructions: 410000000 cycles: 207358807 heartbeat IPC: 1.13281 cumulative IPC: 1.13612 (Simulation time: 0 hr 50 min 13 sec) 
Heartbeat CPU 0 instructions: 430000000 cycles: 208552565 heartbeat IPC: 1.6602 cumulative IPC: 1.62381 (Simulation time: 0 hr 50 min 27 sec) 
Heartbeat CPU 1 instructions: 430000000 cycles: 209318956 heartbeat IPC: 1.60421 cumulative IPC: 1.55931 (Simulation time: 0 hr 50 min 36 sec) 
Heartbeat CPU 0 instructions: 440000000 cycles: 214768977 heartbeat IPC: 1.60864 cumulative IPC: 1.62272 (Simulation time: 0 hr 51 min 40 sec) 
Heartbeat CPU 1 instructions: 440000000 cycles: 215623641 heartbeat IPC: 1.58612 cumulative IPC: 1.56125 (Simulation time: 0 hr 51 min 51 sec) 
Heartbeat CPU 2 instructions: 230000001 cycles: 215758803 heartbeat IPC: 0.343615 cumulative IPC: 0.343506 (Simulation time: 0 hr 51 min 52 sec) 
Heartbeat CPU 3 instructions: 420000000 cycles: 216174978 heartbeat IPC: 1.13428 cumulative IPC: 1.13594 (Simulation time: 0 hr 51 min 57 sec) 
Heartbeat CPU 0 instructions: 450000000 cycles: 220918641 heartbeat IPC: 1.62611 cumulative IPC: 1.62295 (Simulation time: 0 hr 52 min 53 sec) 
Heartbeat CPU 1 instructions: 450000001 cycles: 221863155 heartbeat IPC: 1.60269 cumulative IPC: 1.56401 (Simulation time: 0 hr 53 min 5 sec) 
Heartbeat CPU 3 instructions: 430000002 cycles: 224999614 heartbeat IPC: 1.13319 cumulative IPC: 1.13569 (Simulation time: 0 hr 53 min 42 sec) 
Heartbeat CPU 0 instructions: 460000000 cycles: 227112532 heartbeat IPC: 1.61449 cumulative IPC: 1.62242 (Simulation time: 0 hr 54 min 7 sec) 
Heartbeat CPU 1 instructions: 460000000 cycles: 228130392 heartbeat IPC: 1.5956 cumulative IPC: 1.566 (Simulation time: 0 hr 54 min 19 sec) 
Heartbeat CPU 0 instructions: 470000003 cycles: 233336889 heartbeat IPC: 1.60659 cumulative IPC: 1.62148 (Simulation time: 0 hr 55 min 22 sec) 
Heartbeat CPU 3 instructions: 440000000 cycles: 233556340 heartbeat IPC: 1.16867 cumulative IPC: 1.13837 (Simulation time: 0 hr 55 min 24 sec) 
Heartbeat CPU 1 instructions: 470000003 cycles: 234276062 heartbeat IPC: 1.62716 cumulative IPC: 1.56955 (Simulation time: 0 hr 55 min 33 sec) 
Heartbeat CPU 0 instructions: 480000000 cycles: 239503920 heartbeat IPC: 1.62153 cumulative IPC: 1.62148 (Simulation time: 0 hr 56 min 33 sec) 
Heartbeat CPU 1 instructions: 480000000 cycles: 240472899 heartbeat IPC: 1.61373 cumulative IPC: 1.57199 (Simulation time: 0 hr 56 min 44 sec) 
Heartbeat CPU 3 instructions: 450000001 cycles: 242087277 heartbeat IPC: 1.1722 cumulative IPC: 1.14091 (Simulation time: 0 hr 57 min 3 sec) 
Heartbeat CPU 1 instructions: 490000001 cycles: 246653402 heartbeat IPC: 1.61799 cumulative IPC: 1.5744 (Simulation time: 0 hr 57 min 55 sec) 
Heartbeat CPU 0 instructions: 490000000 cycles: 246694177 heartbeat IPC: 1.39077 cumulative IPC: 1.60745 (Simulation time: 0 hr 57 min 55 sec) 
Heartbeat CPU 2 instructions: 240000000 cycles: 247415696 heartbeat IPC: 0.315887 cumulative IPC: 0.336158 (Simulation time: 0 hr 58 min 4 sec) 
Heartbeat CPU 3 instructions: 460000000 cycles: 250626241 heartbeat IPC: 1.1711 cumulative IPC: 1.14302 (Simulation time: 0 hr 58 min 42 sec) 
Heartbeat CPU 1 instructions: 500000000 cycles: 252842423 heartbeat IPC: 1.61576 cumulative IPC: 1.57645 (Simulation time: 0 hr 59 min 8 sec) 
Heartbeat CPU 0 instructions: 500000000 cycles: 253254031 heartbeat IPC: 1.52442 cumulative IPC: 1.60309 (Simulation time: 0 hr 59 min 12 sec) 
Heartbeat CPU 1 instructions: 510000000 cycles: 259029318 heartbeat IPC: 1.61632 cumulative IPC: 1.57834 (Simulation time: 1 hr 0 min 24 sec) 
Heartbeat CPU 0 instructions: 510000002 cycles: 259764070 heartbeat IPC: 1.53609 cumulative IPC: 1.59977 (Simulation time: 1 hr 0 min 33 sec) 
Heartbeat CPU 3 instructions: 470000000 cycles: 260931604 heartbeat IPC: 0.970369 cumulative IPC: 1.12959 (Simulation time: 1 hr 0 min 48 sec) 
Heartbeat CPU 1 instructions: 520000000 cycles: 265215258 heartbeat IPC: 1.61657 cumulative IPC: 1.58007 (Simulation time: 1 hr 1 min 40 sec) 
Heartbeat CPU 0 instructions: 520000000 cycles: 266218835 heartbeat IPC: 1.54924 cumulative IPC: 1.5974 (Simulation time: 1 hr 1 min 51 sec) 
Heartbeat CPU 3 instructions: 480000000 cycles: 270193430 heartbeat IPC: 1.0797 cumulative IPC: 1.12633 (Simulation time: 1 hr 2 min 35 sec) 
Heartbeat CPU 1 instructions: 530000000 cycles: 271380356 heartbeat IPC: 1.62203 cumulative IPC: 1.58188 (Simulation time: 1 hr 2 min 49 sec) 
Heartbeat CPU 0 instructions: 530000001 cycles: 272784296 heartbeat IPC: 1.52312 cumulative IPC: 1.59402 (Simulation time: 1 hr 3 min 6 sec) 
Heartbeat CPU 1 instructions: 540000000 cycles: 277586982 heartbeat IPC: 1.61118 cumulative IPC: 1.5831 (Simulation time: 1 hr 4 min 1 sec) 
Heartbeat CPU 3 instructions: 490000000 cycles: 279026371 heartbeat IPC: 1.13213 cumulative IPC: 1.12667 (Simulation time: 1 hr 4 min 18 sec) 
Heartbeat CPU 2 instructions: 250000000 cycles: 279059245 heartbeat IPC: 0.31602 cumulative IPC: 0.331928 (Simulation time: 1 hr 4 min 18 sec) 
Heartbeat CPU 0 instructions: 540000000 cycles: 279278351 heartbeat IPC: 1.53987 cumulative IPC: 1.59169 (Simulation time: 1 hr 4 min 21 sec) 
Heartbeat CPU 1 instructions: 550000001 cycles: 283812546 heartbeat IPC: 1.60628 cumulative IPC: 1.58403 (Simulation time: 1 hr 5 min 14 sec) 
Heartbeat CPU 0 instructions: 550000002 cycles: 285739600 heartbeat IPC: 1.54769 cumulative IPC: 1.58989 (Simulation time: 1 hr 5 min 36 sec) 
Heartbeat CPU 3 instructions: 500000000 cycles: 287902327 heartbeat IPC: 1.12664 cumulative IPC: 1.12667 (Simulation time: 1 hr 6 min 0 sec) 
Heartbeat CPU 1 instructions: 560000000 cycles: 290184830 heartbeat IPC: 1.5693 cumulative IPC: 1.58345 (Simulation time: 1 hr 6 min 26 sec) 
Heartbeat CPU 0 instructions: 560000000 cycles: 292754754 heartbeat IPC: 1.42549 cumulative IPC: 1.58287 (Simulation time: 1 hr 6 min 56 sec) 
Heartbeat CPU 1 instructions: 570000003 cycles: 296514299 heartbeat IPC: 1.57991 cumulative IPC: 1.58332 (Simulation time: 1 hr 7 min 40 sec) 
Heartbeat CPU 3 instructions: 510000003 cycles: 296858225 heartbeat IPC: 1.11658 cumulative IPC: 1.12613 (Simulation time: 1 hr 7 min 44 sec) 
Heartbeat CPU 0 instructions: 570000000 cycles: 299080408 heartbeat IPC: 1.58086 cumulative IPC: 1.58279 (Simulation time: 1 hr 8 min 10 sec) 
Heartbeat CPU 1 instructions: 580000000 cycles: 303371168 heartbeat IPC: 1.45839 cumulative IPC: 1.57842 (Simulation time: 1 hr 8 min 59 sec) 
Heartbeat CPU 0 instructions: 580000000 cycles: 305486239 heartbeat IPC: 1.56108 cumulative IPC: 1.58201 (Simulation time: 1 hr 9 min 23 sec) 
Heartbeat CPU 3 instructions: 520000000 cycles: 305811259 heartbeat IPC: 1.11694 cumulative IPC: 1.12567 (Simulation time: 1 hr 9 min 26 sec) 
Heartbeat CPU 2 instructions: 260000000 cycles: 307743792 heartbeat IPC: 0.34862 cumulative IPC: 0.334598 (Simulation time: 1 hr 9 min 47 sec) 
Heartbeat CPU 1 instructions: 590000000 cycles: 309580493 heartbeat IPC: 1.61048 cumulative IPC: 1.57952 (Simulation time: 1 hr 10 min 8 sec) 
Heartbeat CPU 0 instructions: 590000003 cycles: 312963338 heartbeat IPC: 1.33742 cumulative IPC: 1.5721 (Simulation time: 1 hr 10 min 48 sec) 
Heartbeat CPU 3 instructions: 530000001 cycles: 315345951 heartbeat IPC: 1.0488 cumulative IPC: 1.12175 (Simulation time: 1 hr 11 min 16 sec) 
Heartbeat CPU 1 instructions: 600000000 cycles: 315697218 heartbeat IPC: 1.63486 cumulative IPC: 1.58133 (Simulation time: 1 hr 11 min 21 sec) 
Heartbeat CPU 0 instructions: 600000000 cycles: 319090859 heartbeat IPC: 1.63198 cumulative IPC: 1.57402 (Simulation time: 1 hr 12 min 2 sec) 
Heartbeat CPU 1 instructions: 610000002 cycles: 321730433 heartbeat IPC: 1.65749 cumulative IPC: 1.5837 (Simulation time: 1 hr 12 min 34 sec) 
Heartbeat CPU 3 instructions: 540000000 cycles: 324972880 heartbeat IPC: 1.03875 cumulative IPC: 1.11768 (Simulation time: 1 hr 13 min 13 sec) 
Heartbeat CPU 0 instructions: 610000002 cycles: 325331988 heartbeat IPC: 1.60227 cumulative IPC: 1.57492 (Simulation time: 1 hr 13 min 17 sec) 
Heartbeat CPU 1 instructions: 620000000 cycles: 327714257 heartbeat IPC: 1.67117 cumulative IPC: 1.58633 (Simulation time: 1 hr 13 min 46 sec) 
Heartbeat CPU 0 instructions: 620000000 cycles: 331436725 heartbeat IPC: 1.63807 cumulative IPC: 1.57682 (Simulation time: 1 hr 14 min 31 sec) 
Heartbeat CPU 1 instructions: 630000001 cycles: 334110059 heartbeat IPC: 1.56353 cumulative IPC: 1.58562 (Simulation time: 1 hr 15 min 0 sec) 
Heartbeat CPU 3 instructions: 550000000 cycles: 334587054 heartbeat IPC: 1.04013 cumulative IPC: 1.11407 (Simulation time: 1 hr 15 min 7 sec) 
Heartbeat CPU 2 instructions: 270000000 cycles: 336865171 heartbeat IPC: 0.34339 cumulative IPC: 0.335826 (Simulation time: 1 hr 15 min 34 sec) 
Heartbeat CPU 0 instructions: 630000003 cycles: 338331532 heartbeat IPC: 1.45037 cumulative IPC: 1.57266 (Simulation time: 1 hr 15 min 51 sec) 
Heartbeat CPU 1 instructions: 640000000 cycles: 340376961 heartbeat IPC: 1.59568 cumulative IPC: 1.58592 (Simulation time: 1 hr 16 min 13 sec) 
Heartbeat CPU 3 instructions: 560000000 cycles: 344180834 heartbeat IPC: 1.04234 cumulative IPC: 1.11088 (Simulation time: 1 hr 16 min 56 sec) 
Heartbeat CPU 0 instructions: 640000000 cycles: 345310189 heartbeat IPC: 1.43294 cumulative IPC: 1.56817 (Simulation time: 1 hr 17 min 9 sec) 
Heartbeat CPU 1 instructions: 650000000 cycles: 347268433 heartbeat IPC: 1.45107 cumulative IPC: 1.58167 (Simulation time: 1 hr 17 min 33 sec) 
Heartbeat CPU 0 instructions: 650000000 cycles: 351539625 heartbeat IPC: 1.60528 cumulative IPC: 1.5692 (Simulation time: 1 hr 18 min 24 sec) 
Heartbeat CPU 1 instructions: 660000000 cycles: 353521446 heartbeat IPC: 1.59923 cumulative IPC: 1.58216 (Simulation time: 1 hr 18 min 48 sec) 
Heartbeat CPU 3 instructions: 570000002 cycles: 353803048 heartbeat IPC: 1.03926 cumulative IPC: 1.10782 (Simulation time: 1 hr 18 min 51 sec) 
Heartbeat CPU 0 instructions: 660000000 cycles: 358514594 heartbeat IPC: 1.4337 cumulative IPC: 1.5651 (Simulation time: 1 hr 19 min 45 sec) 
Heartbeat CPU 1 instructions: 670000001 cycles: 359763350 heartbeat IPC: 1.60208 cumulative IPC: 1.5827 (Simulation time: 1 hr 20 min 0 sec) 
Heartbeat CPU 3 instructions: 580000000 cycles: 363399941 heartbeat IPC: 1.042 cumulative IPC: 1.10513 (Simulation time: 1 hr 20 min 42 sec) 
Heartbeat CPU 0 instructions: 670000001 cycles: 365011025 heartbeat IPC: 1.53931 cumulative IPC: 1.56439 (Simulation time: 1 hr 21 min 1 sec) 
Heartbeat CPU 2 instructions: 280000000 cycles: 365776272 heartbeat IPC: 0.345888 cumulative IPC: 0.337052 (Simulation time: 1 hr 21 min 11 sec) 
Heartbeat CPU 1 instructions: 680000000 cycles: 365975360 heartbeat IPC: 1.60978 cumulative IPC: 1.58341 (Simulation time: 1 hr 21 min 13 sec) 
Heartbeat CPU 0 instructions: 680000000 cycles: 371520983 heartbeat IPC: 1.53611 cumulative IPC: 1.56363 (Simulation time: 1 hr 22 min 15 sec) 
Heartbeat CPU 1 instructions: 690000002 cycles: 372925577 heartbeat IPC: 1.4388 cumulative IPC: 1.57929 (Simulation time: 1 hr 22 min 32 sec) 
Heartbeat CPU 3 instructions: 590000000 cycles: 373069547 heartbeat IPC: 1.03417 cumulative IPC: 1.10233 (Simulation time: 1 hr 22 min 34 sec) 
Heartbeat CPU 0 instructions: 690000003 cycles: 378027249 heartbeat IPC: 1.53698 cumulative IPC: 1.56294 (Simulation time: 1 hr 23 min 32 sec) 
Heartbeat CPU 1 instructions: 700000000 cycles: 379149724 heartbeat IPC: 1.60665 cumulative IPC: 1.57997 (Simulation time: 1 hr 23 min 46 sec) 
Heartbeat CPU 3 instructions: 600000000 cycles: 382738720 heartbeat IPC: 1.03421 cumulative IPC: 1.09974 (Simulation time: 1 hr 24 min 28 sec) 
Heartbeat CPU 0 instructions: 700000000 cycles: 384501116 heartbeat IPC: 1.54467 cumulative IPC: 1.56247 (Simulation time: 1 hr 24 min 49 sec) 
Heartbeat CPU 1 instructions: 710000001 cycles: 385382608 heartbeat IPC: 1.60439 cumulative IPC: 1.58057 (Simulation time: 1 hr 24 min 59 sec) 
Heartbeat CPU 1 instructions: 720000000 cycles: 391486263 heartbeat IPC: 1.63836 cumulative IPC: 1.58191 (Simulation time: 1 hr 26 min 10 sec) 
Heartbeat CPU 0 instructions: 710000000 cycles: 391527704 heartbeat IPC: 1.42317 cumulative IPC: 1.55875 (Simulation time: 1 hr 26 min 11 sec) 
Heartbeat CPU 3 instructions: 610000003 cycles: 392409112 heartbeat IPC: 1.03408 cumulative IPC: 1.09733 (Simulation time: 1 hr 26 min 21 sec) 
Heartbeat CPU 2 instructions: 290000000 cycles: 394881771 heartbeat IPC: 0.343578 cumulative IPC: 0.337765 (Simulation time: 1 hr 26 min 49 sec) 
Heartbeat CPU 1 instructions: 730000000 cycles: 397553549 heartbeat IPC: 1.64818 cumulative IPC: 1.5834 (Simulation time: 1 hr 27 min 21 sec) 
Heartbeat CPU 0 instructions: 720000000 cycles: 398594023 heartbeat IPC: 1.41516 cumulative IPC: 1.555 (Simulation time: 1 hr 27 min 33 sec) 
Heartbeat CPU 3 instructions: 620000000 cycles: 402082635 heartbeat IPC: 1.03375 cumulative IPC: 1.09509 (Simulation time: 1 hr 28 min 12 sec) 
Heartbeat CPU 1 instructions: 740000000 cycles: 404413667 heartbeat IPC: 1.4577 cumulative IPC: 1.58028 (Simulation time: 1 hr 28 min 39 sec) 
Heartbeat CPU 0 instructions: 730000002 cycles: 405030057 heartbeat IPC: 1.55375 cumulative IPC: 1.55497 (Simulation time: 1 hr 28 min 46 sec) 
Heartbeat CPU 1 instructions: 750000001 cycles: 411206022 heartbeat IPC: 1.47224 cumulative IPC: 1.57768 (Simulation time: 1 hr 29 min 58 sec) 
Heartbeat CPU 0 instructions: 740000000 cycles: 411479895 heartbeat IPC: 1.55043 cumulative IPC: 1.55487 (Simulation time: 1 hr 30 min 1 sec) 
Heartbeat CPU 3 instructions: 630000002 cycles: 411754861 heartbeat IPC: 1.03389 cumulative IPC: 1.093 (Simulation time: 1 hr 30 min 5 sec) 
Heartbeat CPU 1 instructions: 760000000 cycles: 418081111 heartbeat IPC: 1.45453 cumulative IPC: 1.57476 (Simulation time: 1 hr 31 min 16 sec) 
Heartbeat CPU 0 instructions: 750000001 cycles: 418488230 heartbeat IPC: 1.42687 cumulative IPC: 1.55177 (Simulation time: 1 hr 31 min 20 sec) 
Heartbeat CPU 3 instructions: 640000000 cycles: 421327294 heartbeat IPC: 1.04467 cumulative IPC: 1.09142 (Simulation time: 1 hr 31 min 52 sec) 
Heartbeat CPU 2 instructions: 300000000 cycles: 423830330 heartbeat IPC: 0.34544 cumulative IPC: 0.338517 (Simulation time: 1 hr 32 min 21 sec) 
Heartbeat CPU 1 instructions: 770000003 cycles: 424926593 heartbeat IPC: 1.46082 cumulative IPC: 1.57213 (Simulation time: 1 hr 32 min 34 sec) 
Heartbeat CPU 0 instructions: 760000000 cycles: 424926648 heartbeat IPC: 1.55318 cumulative IPC: 1.5518 (Simulation time: 1 hr 32 min 34 sec) 
Heartbeat CPU 3 instructions: 650000000 cycles: 430266969 heartbeat IPC: 1.11861 cumulative IPC: 1.09222 (Simulation time: 1 hr 33 min 35 sec) 
Heartbeat CPU 0 instructions: 770000000 cycles: 431338054 heartbeat IPC: 1.55972 cumulative IPC: 1.55197 (Simulation time: 1 hr 33 min 47 sec) 
Heartbeat CPU 1 instructions: 780000000 cycles: 431738682 heartbeat IPC: 1.46798 cumulative IPC: 1.56979 (Simulation time: 1 hr 33 min 52 sec) 
Heartbeat CPU 0 instructions: 780000000 cycles: 437745256 heartbeat IPC: 1.56074 cumulative IPC: 1.55215 (Simulation time: 1 hr 35 min 1 sec) 
Heartbeat CPU 1 instructions: 790000000 cycles: 438603286 heartbeat IPC: 1.45675 cumulative IPC: 1.56729 (Simulation time: 1 hr 35 min 10 sec) 
Heartbeat CPU 3 instructions: 660000000 cycles: 439131745 heartbeat IPC: 1.12806 cumulative IPC: 1.09324 (Simulation time: 1 hr 35 min 16 sec) 
Heartbeat CPU 0 instructions: 790000000 cycles: 445443740 heartbeat IPC: 1.29896 cumulative IPC: 1.546 (Simulation time: 1 hr 36 min 23 sec) 
Heartbeat CPU 1 instructions: 800000000 cycles: 446017895 heartbeat IPC: 1.34869 cumulative IPC: 1.56218 (Simulation time: 1 hr 36 min 30 sec) 
Heartbeat CPU 3 instructions: 670000000 cycles: 448335157 heartbeat IPC: 1.08655 cumulative IPC: 1.09305 (Simulation time: 1 hr 36 min 55 sec) 
Heartbeat CPU 1 instructions: 810000003 cycles: 452179633 heartbeat IPC: 1.62292 cumulative IPC: 1.56334 (Simulation time: 1 hr 37 min 41 sec) 
Heartbeat CPU 0 instructions: 800000000 cycles: 452657088 heartbeat IPC: 1.38632 cumulative IPC: 1.54245 (Simulation time: 1 hr 37 min 46 sec) 
Heartbeat CPU 2 instructions: 310000003 cycles: 452903440 heartbeat IPC: 0.343961 cumulative IPC: 0.339005 (Simulation time: 1 hr 37 min 49 sec) 
Heartbeat CPU 3 instructions: 680000000 cycles: 457165295 heartbeat IPC: 1.13249 cumulative IPC: 1.09411 (Simulation time: 1 hr 38 min 37 sec) 
Heartbeat CPU 0 instructions: 810000002 cycles: 459547221 heartbeat IPC: 1.45135 cumulative IPC: 1.54056 (Simulation time: 1 hr 39 min 2 sec) 
Heartbeat CPU 1 instructions: 820000000 cycles: 459717634 heartbeat IPC: 1.32661 cumulative IPC: 1.55795 (Simulation time: 1 hr 39 min 4 sec) 
Heartbeat CPU 0 instructions: 820000000 cycles: 465931165 heartbeat IPC: 1.56643 cumulative IPC: 1.54105 (Simulation time: 1 hr 40 min 14 sec) 
Heartbeat CPU 3 instructions: 690000000 cycles: 465961919 heartbeat IPC: 1.1368 cumulative IPC: 1.09522 (Simulation time: 1 hr 40 min 15 sec) 
Heartbeat CPU 1 instructions: 830000002 cycles: 467287211 heartbeat IPC: 1.32108 cumulative IPC: 1.55266 (Simulation time: 1 hr 40 min 29 sec) 
Heartbeat CPU 0 instructions: 830000003 cycles: 472870290 heartbeat IPC: 1.4411 cumulative IPC: 1.53903 (Simulation time: 1 hr 41 min 29 sec) 
Heartbeat CPU 1 instructions: 840000000 cycles: 474407358 heartbeat IPC: 1.40447 cumulative IPC: 1.54961 (Simulation time: 1 hr 41 min 47 sec) 
Heartbeat CPU 3 instructions: 700000000 cycles: 474753396 heartbeat IPC: 1.13747 cumulative IPC: 1.0963 (Simulation time: 1 hr 41 min 51 sec) 
Heartbeat CPU 0 instructions: 840000000 cycles: 479291414 heartbeat IPC: 1.55736 cumulative IPC: 1.53937 (Simulation time: 1 hr 42 min 42 sec) 
Heartbeat CPU 1 instructions: 850000000 cycles: 481344257 heartbeat IPC: 1.44157 cumulative IPC: 1.54749 (Simulation time: 1 hr 43 min 6 sec) 
Heartbeat CPU 2 instructions: 320000000 cycles: 481816021 heartbeat IPC: 0.34587 cumulative IPC: 0.339566 (Simulation time: 1 hr 43 min 12 sec) 
Heartbeat CPU 3 instructions: 710000002 cycles: 483547580 heartbeat IPC: 1.13712 cumulative IPC: 1.09731 (Simulation time: 1 hr 43 min 31 sec) 
Heartbeat CPU 0 instructions: 850000000 cycles: 486246299 heartbeat IPC: 1.43784 cumulative IPC: 1.53739 (Simulation time: 1 hr 44 min 2 sec) 
Heartbeat CPU 1 instructions: 860000000 cycles: 487543337 heartbeat IPC: 1.61314 cumulative IPC: 1.54862 (Simulation time: 1 hr 44 min 18 sec) 
Heartbeat CPU 3 instructions: 720000000 cycles: 492407458 heartbeat IPC: 1.12868 cumulative IPC: 1.09807 (Simulation time: 1 hr 45 min 15 sec) 
Heartbeat CPU 0 instructions: 860000000 cycles: 493242054 heartbeat IPC: 1.42944 cumulative IPC: 1.53532 (Simulation time: 1 hr 45 min 24 sec) 
Heartbeat CPU 1 instructions: 870000001 cycles: 493670384 heartbeat IPC: 1.63211 cumulative IPC: 1.55002 (Simulation time: 1 hr 45 min 28 sec) 
Heartbeat CPU 1 instructions: 880000000 cycles: 499817412 heartbeat IPC: 1.6268 cumulative IPC: 1.55129 (Simulation time: 1 hr 46 min 40 sec) 
Heartbeat CPU 0 instructions: 870000000 cycles: 502577510 heartbeat IPC: 1.07118 cumulative IPC: 1.52374 (Simulation time: 1 hr 47 min 11 sec) 
Heartbeat CPU 3 instructions: 730000003 cycles: 503009494 heartbeat IPC: 0.943215 cumulative IPC: 1.09369 (Simulation time: 1 hr 47 min 16 sec) 
Heartbeat CPU 1 instructions: 890000000 cycles: 506583236 heartbeat IPC: 1.47802 cumulative IPC: 1.54998 (Simulation time: 1 hr 47 min 57 sec) 
Heartbeat CPU 0 instructions: 880000000 cycles: 510640289 heartbeat IPC: 1.24027 cumulative IPC: 1.51776 (Simulation time: 1 hr 48 min 43 sec) 
Heartbeat CPU 2 instructions: 330000002 cycles: 511333156 heartbeat IPC: 0.338786 cumulative IPC: 0.339506 (Simulation time: 1 hr 48 min 51 sec) 
Heartbeat CPU 3 instructions: 740000000 cycles: 511973014 heartbeat IPC: 1.11563 cumulative IPC: 1.0942 (Simulation time: 1 hr 48 min 58 sec) 
Heartbeat CPU 1 instructions: 900000000 cycles: 512733447 heartbeat IPC: 1.62596 cumulative IPC: 1.5512 (Simulation time: 1 hr 49 min 7 sec) 
Heartbeat CPU 0 instructions: 890000000 cycles: 516902306 heartbeat IPC: 1.59693 cumulative IPC: 1.51904 (Simulation time: 1 hr 49 min 57 sec) 
Heartbeat CPU 1 instructions: 910000001 cycles: 518849998 heartbeat IPC: 1.63491 cumulative IPC: 1.55251 (Simulation time: 1 hr 50 min 21 sec) 
Heartbeat CPU 3 instructions: 750000001 cycles: 520726256 heartbeat IPC: 1.14243 cumulative IPC: 1.09528 (Simulation time: 1 hr 50 min 42 sec) 
Heartbeat CPU 0 instructions: 900000000 cycles: 523168513 heartbeat IPC: 1.59586 cumulative IPC: 1.52026 (Simulation time: 1 hr 51 min 10 sec) 
Heartbeat CPU 1 instructions: 920000000 cycles: 525796288 heartbeat IPC: 1.43962 cumulative IPC: 1.55054 (Simulation time: 1 hr 51 min 41 sec) 
Heartbeat CPU 0 instructions: 910000002 cycles: 529362975 heartbeat IPC: 1.61435 cumulative IPC: 1.52171 (Simulation time: 1 hr 52 min 24 sec) 
Heartbeat CPU 3 instructions: 760000000 cycles: 529494316 heartbeat IPC: 1.1405 cumulative IPC: 1.09627 (Simulation time: 1 hr 52 min 26 sec) 
Heartbeat CPU 1 instructions: 930000003 cycles: 531960565 heartbeat IPC: 1.62225 cumulative IPC: 1.55163 (Simulation time: 1 hr 52 min 55 sec) 
Heartbeat CPU 0 instructions: 920000000 cycles: 535631410 heartbeat IPC: 1.59529 cumulative IPC: 1.52285 (Simulation time: 1 hr 53 min 39 sec) 
Heartbeat CPU 1 instructions: 940000000 cycles: 538165651 heartbeat IPC: 1.61158 cumulative IPC: 1.55254 (Simulation time: 1 hr 54 min 9 sec) 
Heartbeat CPU 3 instructions: 770000003 cycles: 538248028 heartbeat IPC: 1.14237 cumulative IPC: 1.09725 (Simulation time: 1 hr 54 min 10 sec) 
Heartbeat CPU 2 instructions: 340000000 cycles: 540367239 heartbeat IPC: 0.344423 cumulative IPC: 0.339853 (Simulation time: 1 hr 54 min 36 sec) 
Heartbeat CPU 0 instructions: 930000001 cycles: 541884997 heartbeat IPC: 1.59908 cumulative IPC: 1.524 (Simulation time: 1 hr 54 min 54 sec) 
Heartbeat CPU 1 instructions: 950000000 cycles: 545031811 heartbeat IPC: 1.45642 cumulative IPC: 1.55096 (Simulation time: 1 hr 55 min 30 sec) 
Heartbeat CPU 3 instructions: 780000000 cycles: 547058483 heartbeat IPC: 1.13501 cumulative IPC: 1.09805 (Simulation time: 1 hr 55 min 54 sec) 
Heartbeat CPU 0 instructions: 940000000 cycles: 548129921 heartbeat IPC: 1.6013 cumulative IPC: 1.52515 (Simulation time: 1 hr 56 min 7 sec) 
Heartbeat CPU 1 instructions: 960000000 cycles: 551458305 heartbeat IPC: 1.55606 cumulative IPC: 1.55103 (Simulation time: 1 hr 56 min 46 sec) 
Heartbeat CPU 0 instructions: 950000002 cycles: 554414806 heartbeat IPC: 1.59112 cumulative IPC: 1.52612 (Simulation time: 1 hr 57 min 20 sec) 
Heartbeat CPU 3 instructions: 790000001 cycles: 555929127 heartbeat IPC: 1.12731 cumulative IPC: 1.09865 (Simulation time: 1 hr 57 min 38 sec) 
Heartbeat CPU 1 instructions: 970000003 cycles: 557858668 heartbeat IPC: 1.56241 cumulative IPC: 1.5512 (Simulation time: 1 hr 58 min 0 sec) 
Heartbeat CPU 0 instructions: 960000000 cycles: 561955226 heartbeat IPC: 1.32619 cumulative IPC: 1.52264 (Simulation time: 1 hr 58 min 47 sec) 
Heartbeat CPU 1 instructions: 980000000 cycles: 563988945 heartbeat IPC: 1.63125 cumulative IPC: 1.55233 (Simulation time: 1 hr 59 min 11 sec) 
Heartbeat CPU 3 instructions: 800000000 cycles: 564949887 heartbeat IPC: 1.10855 cumulative IPC: 1.09886 (Simulation time: 1 hr 59 min 23 sec) 
Heartbeat CPU 0 instructions: 970000002 cycles: 568208871 heartbeat IPC: 1.59907 cumulative IPC: 1.52373 (Simulation time: 2 hr 0 min 2 sec) 
Heartbeat CPU 2 instructions: 350000001 cycles: 569017421 heartbeat IPC: 0.349038 cumulative IPC: 0.34045 (Simulation time: 2 hr 0 min 11 sec) 
Heartbeat CPU 1 instructions: 990000001 cycles: 570106916 heartbeat IPC: 1.63453 cumulative IPC: 1.55347 (Simulation time: 2 hr 0 min 24 sec) 
Heartbeat CPU 3 instructions: 810000000 cycles: 574202769 heartbeat IPC: 1.08074 cumulative IPC: 1.09848 (Simulation time: 2 hr 1 min 14 sec) 
Heartbeat CPU 0 instructions: 980000000 cycles: 574539377 heartbeat IPC: 1.57965 cumulative IPC: 1.52452 (Simulation time: 2 hr 1 min 18 sec) 
Heartbeat CPU 1 instructions: 1000000000 cycles: 576107924 heartbeat IPC: 1.66639 cumulative IPC: 1.55498 (Simulation time: 2 hr 1 min 37 sec) 
Heartbeat CPU 0 instructions: 990000002 cycles: 581407509 heartbeat IPC: 1.456 cumulative IPC: 1.52349 (Simulation time: 2 hr 2 min 39 sec) 
Heartbeat CPU 1 instructions: 1010000001 cycles: 582224793 heartbeat IPC: 1.63482 cumulative IPC: 1.55606 (Simulation time: 2 hr 2 min 55 sec) 
Heartbeat CPU 3 instructions: 820000000 cycles: 583516236 heartbeat IPC: 1.07371 cumulative IPC: 1.09797 (Simulation time: 2 hr 3 min 28 sec) 
Heartbeat CPU 0 instructions: 1000000000 cycles: 587711263 heartbeat IPC: 1.58636 cumulative IPC: 1.52435 (Simulation time: 2 hr 5 min 10 sec) 
Heartbeat CPU 1 instructions: 1020000000 cycles: 588251224 heartbeat IPC: 1.65936 cumulative IPC: 1.55741 (Simulation time: 2 hr 5 min 16 sec) 
Heartbeat CPU 3 instructions: 830000003 cycles: 592546841 heartbeat IPC: 1.10735 cumulative IPC: 1.09816 (Simulation time: 2 hr 6 min 8 sec) 
Heartbeat CPU 0 instructions: 1010000000 cycles: 594090995 heartbeat IPC: 1.56746 cumulative IPC: 1.52494 (Simulation time: 2 hr 6 min 26 sec) 
Heartbeat CPU 1 instructions: 1030000002 cycles: 594237501 heartbeat IPC: 1.67049 cumulative IPC: 1.55886 (Simulation time: 2 hr 6 min 28 sec) 
Heartbeat CPU 2 instructions: 360000000 cycles: 597749202 heartbeat IPC: 0.348047 cumulative IPC: 0.340915 (Simulation time: 2 hr 7 min 8 sec) 
Heartbeat CPU 1 instructions: 1040000000 cycles: 600221693 heartbeat IPC: 1.67107 cumulative IPC: 1.56029 (Simulation time: 2 hr 7 min 38 sec) 
Heartbeat CPU 0 instructions: 1020000000 cycles: 600969723 heartbeat IPC: 1.45376 cumulative IPC: 1.5239 (Simulation time: 2 hr 7 min 47 sec) 
Heartbeat CPU 3 instructions: 840000000 cycles: 601592913 heartbeat IPC: 1.10545 cumulative IPC: 1.0983 (Simulation time: 2 hr 7 min 55 sec) 
Heartbeat CPU 1 instructions: 1050000003 cycles: 606950721 heartbeat IPC: 1.4861 cumulative IPC: 1.55924 (Simulation time: 2 hr 8 min 58 sec) 
Heartbeat CPU 0 instructions: 1030000000 cycles: 607187457 heartbeat IPC: 1.6083 cumulative IPC: 1.525 (Simulation time: 2 hr 9 min 0 sec) 
Heartbeat CPU 3 instructions: 850000000 cycles: 610623703 heartbeat IPC: 1.10732 cumulative IPC: 1.09847 (Simulation time: 2 hr 9 min 40 sec) 
Heartbeat CPU 1 instructions: 1060000000 cycles: 613139320 heartbeat IPC: 1.61587 cumulative IPC: 1.55997 (Simulation time: 2 hr 10 min 10 sec) 
Heartbeat CPU 0 instructions: 1040000000 cycles: 613603496 heartbeat IPC: 1.55859 cumulative IPC: 1.52544 (Simulation time: 2 hr 10 min 15 sec) 
Heartbeat CPU 1 instructions: 1070000000 cycles: 619202026 heartbeat IPC: 1.64943 cumulative IPC: 1.56107 (Simulation time: 2 hr 11 min 18 sec) 
Heartbeat CPU 3 instructions: 860000000 cycles: 619656897 heartbeat IPC: 1.10703 cumulative IPC: 1.09862 (Simulation time: 2 hr 11 min 23 sec) 
Heartbeat CPU 0 instructions: 1050000001 cycles: 621369164 heartbeat IPC: 1.28772 cumulative IPC: 1.5217 (Simulation time: 2 hr 11 min 44 sec) 
Heartbeat CPU 1 instructions: 1080000000 cycles: 625247719 heartbeat IPC: 1.65407 cumulative IPC: 1.5622 (Simulation time: 2 hr 12 min 30 sec) 
Heartbeat CPU 2 instructions: 370000001 cycles: 626588691 heartbeat IPC: 0.346747 cumulative IPC: 0.341253 (Simulation time: 2 hr 12 min 46 sec) 
Heartbeat CPU 0 instructions: 1060000000 cycles: 627806195 heartbeat IPC: 1.55351 cumulative IPC: 1.52211 (Simulation time: 2 hr 13 min 1 sec) 
Heartbeat CPU 3 instructions: 870000002 cycles: 628687060 heartbeat IPC: 1.1074 cumulative IPC: 1.09878 (Simulation time: 2 hr 13 min 11 sec) 
Heartbeat CPU 1 instructions: 1090000001 cycles: 631387632 heartbeat IPC: 1.62869 cumulative IPC: 1.56302 (Simulation time: 2 hr 13 min 42 sec) 
Heartbeat CPU 0 instructions: 1070000002 cycles: 634233522 heartbeat IPC: 1.55586 cumulative IPC: 1.52254 (Simulation time: 2 hr 14 min 14 sec) 
Heartbeat CPU 1 instructions: 1100000000 cycles: 637696928 heartbeat IPC: 1.58496 cumulative IPC: 1.56329 (Simulation time: 2 hr 14 min 56 sec) 
Heartbeat CPU 3 instructions: 880000000 cycles: 637712227 heartbeat IPC: 1.10801 cumulative IPC: 1.09894 (Simulation time: 2 hr 14 min 56 sec) 
Heartbeat CPU 0 instructions: 1080000000 cycles: 640515607 heartbeat IPC: 1.59183 cumulative IPC: 1.52339 (Simulation time: 2 hr 15 min 29 sec) 
Heartbeat CPU 1 instructions: 1110000001 cycles: 644587994 heartbeat IPC: 1.45115 cumulative IPC: 1.56179 (Simulation time: 2 hr 16 min 15 sec) 
Heartbeat CPU 3 instructions: 890000000 cycles: 646757247 heartbeat IPC: 1.10558 cumulative IPC: 1.09906 (Simulation time: 2 hr 16 min 41 sec) 
Heartbeat CPU 0 instructions: 1090000003 cycles: 647579005 heartbeat IPC: 1.41575 cumulative IPC: 1.52192 (Simulation time: 2 hr 16 min 51 sec) 
Heartbeat CPU 1 instructions: 1120000000 cycles: 650811867 heartbeat IPC: 1.60672 cumulative IPC: 1.56233 (Simulation time: 2 hr 17 min 29 sec) 
Heartbeat CPU 0 instructions: 1100000000 cycles: 654047059 heartbeat IPC: 1.54606 cumulative IPC: 1.52222 (Simulation time: 2 hr 18 min 7 sec) 
Heartbeat CPU 2 instructions: 380000000 cycles: 655773707 heartbeat IPC: 0.342642 cumulative IPC: 0.34133 (Simulation time: 2 hr 18 min 26 sec) 
Heartbeat CPU 3 instructions: 900000000 cycles: 655790820 heartbeat IPC: 1.10698 cumulative IPC: 1.0992 (Simulation time: 2 hr 18 min 27 sec) 
Heartbeat CPU 1 instructions: 1130000001 cycles: 657666272 heartbeat IPC: 1.45892 cumulative IPC: 1.56099 (Simulation time: 2 hr 18 min 47 sec) 
Heartbeat CPU 0 instructions: 1110000002 cycles: 661153025 heartbeat IPC: 1.40727 cumulative IPC: 1.52069 (Simulation time: 2 hr 19 min 30 sec) 
Heartbeat CPU 1 instructions: 1140000000 cycles: 663799766 heartbeat IPC: 1.63039 cumulative IPC: 1.56178 (Simulation time: 2 hr 20 min 6 sec) 
Heartbeat CPU 3 instructions: 910000001 cycles: 664823573 heartbeat IPC: 1.10708 cumulative IPC: 1.09933 (Simulation time: 2 hr 20 min 19 sec) 
Heartbeat CPU 0 instructions: 1120000000 cycles: 667593830 heartbeat IPC: 1.5526 cumulative IPC: 1.52107 (Simulation time: 2 hr 20 min 54 sec) 
Heartbeat CPU 1 instructions: 1150000002 cycles: 670613865 heartbeat IPC: 1.46755 cumulative IPC: 1.5606 (Simulation time: 2 hr 21 min 35 sec) 
Heartbeat CPU 3 instructions: 920000000 cycles: 673854401 heartbeat IPC: 1.10732 cumulative IPC: 1.09946 (Simulation time: 2 hr 22 min 13 sec) 
Heartbeat CPU 0 instructions: 1130000001 cycles: 674576776 heartbeat IPC: 1.43206 cumulative IPC: 1.51993 (Simulation time: 2 hr 22 min 21 sec) 
Heartbeat CPU 1 instructions: 1160000000 cycles: 676897087 heartbeat IPC: 1.59154 cumulative IPC: 1.56095 (Simulation time: 2 hr 22 min 48 sec) 
Heartbeat CPU 0 instructions: 1140000000 cycles: 680991893 heartbeat IPC: 1.55882 cumulative IPC: 1.52038 (Simulation time: 2 hr 23 min 36 sec) 
Heartbeat CPU 1 instructions: 1170000003 cycles: 683200340 heartbeat IPC: 1.58648 cumulative IPC: 1.56124 (Simulation time: 2 hr 24 min 3 sec) 
Heartbeat CPU 3 instructions: 930000003 cycles: 683323045 heartbeat IPC: 1.05612 cumulative IPC: 1.09872 (Simulation time: 2 hr 24 min 5 sec) 
Heartbeat CPU 2 instructions: 390000001 cycles: 685143772 heartbeat IPC: 0.340483 cumulative IPC: 0.341285 (Simulation time: 2 hr 24 min 24 sec) 
Heartbeat CPU 0 instructions: 1150000000 cycles: 687936958 heartbeat IPC: 1.43987 cumulative IPC: 1.51938 (Simulation time: 2 hr 24 min 56 sec) 
Heartbeat CPU 1 instructions: 1180000000 cycles: 689910789 heartbeat IPC: 1.49021 cumulative IPC: 1.56039 (Simulation time: 2 hr 25 min 20 sec) 
Heartbeat CPU 3 instructions: 940000000 cycles: 692340089 heartbeat IPC: 1.10901 cumulative IPC: 1.09889 (Simulation time: 2 hr 25 min 49 sec) 
Heartbeat CPU 0 instructions: 1160000000 cycles: 694680477 heartbeat IPC: 1.48291 cumulative IPC: 1.51895 (Simulation time: 2 hr 26 min 15 sec) 
Heartbeat CPU 1 instructions: 1190000000 cycles: 696067864 heartbeat IPC: 1.62415 cumulative IPC: 1.56108 (Simulation time: 2 hr 26 min 31 sec) 
Heartbeat CPU 3 instructions: 950000002 cycles: 701437532 heartbeat IPC: 1.09921 cumulative IPC: 1.09889 (Simulation time: 2 hr 28 min 4 sec) 
Heartbeat CPU 0 instructions: 1170000002 cycles: 701443959 heartbeat IPC: 1.47853 cumulative IPC: 1.51847 (Simulation time: 2 hr 28 min 4 sec) 
Heartbeat CPU 1 instructions: 1200000000 cycles: 702825530 heartbeat IPC: 1.4798 cumulative IPC: 1.56013 (Simulation time: 2 hr 28 min 36 sec) 
Heartbeat CPU 0 instructions: 1180000000 cycles: 708296014 heartbeat IPC: 1.45942 cumulative IPC: 1.51777 (Simulation time: 2 hr 30 min 45 sec) 
Heartbeat CPU 1 instructions: 1210000000 cycles: 709710118 heartbeat IPC: 1.45252 cumulative IPC: 1.55885 (Simulation time: 2 hr 31 min 1 sec) 
Heartbeat CPU 3 instructions: 960000000 cycles: 710488241 heartbeat IPC: 1.10489 cumulative IPC: 1.09898 (Simulation time: 2 hr 31 min 10 sec) 
Heartbeat CPU 2 instructions: 400000000 cycles: 714974949 heartbeat IPC: 0.33522 cumulative IPC: 0.340976 (Simulation time: 2 hr 32 min 10 sec) 
Heartbeat CPU 0 instructions: 1190000000 cycles: 715404032 heartbeat IPC: 1.40686 cumulative IPC: 1.51643 (Simulation time: 2 hr 32 min 16 sec) 
Heartbeat CPU 1 instructions: 1220000000 cycles: 715923690 heartbeat IPC: 1.60938 cumulative IPC: 1.55939 (Simulation time: 2 hr 32 min 25 sec) 
Heartbeat CPU 3 instructions: 970000001 cycles: 719283999 heartbeat IPC: 1.13691 cumulative IPC: 1.09955 (Simulation time: 2 hr 33 min 21 sec) 
Heartbeat CPU 1 instructions: 1230000000 cycles: 722103301 heartbeat IPC: 1.61822 cumulative IPC: 1.56 (Simulation time: 2 hr 34 min 29 sec) 
Heartbeat CPU 0 instructions: 1200000000 cycles: 722851984 heartbeat IPC: 1.34265 cumulative IPC: 1.51425 (Simulation time: 2 hr 34 min 47 sec) 
Heartbeat CPU 3 instructions: 980000000 cycles: 728057507 heartbeat IPC: 1.13979 cumulative IPC: 1.10014 (Simulation time: 2 hr 36 min 53 sec) 
Heartbeat CPU 1 instructions: 1240000000 cycles: 728342196 heartbeat IPC: 1.60285 cumulative IPC: 1.56045 (Simulation time: 2 hr 37 min 0 sec) 
Heartbeat CPU 0 instructions: 1210000000 cycles: 729202425 heartbeat IPC: 1.57469 cumulative IPC: 1.51489 (Simulation time: 2 hr 37 min 20 sec) 
Heartbeat CPU 1 instructions: 1250000000 cycles: 735143987 heartbeat IPC: 1.4702 cumulative IPC: 1.55943 (Simulation time: 2 hr 39 min 33 sec) 
Heartbeat CPU 0 instructions: 1220000000 cycles: 736211373 heartbeat IPC: 1.42675 cumulative IPC: 1.51387 (Simulation time: 2 hr 39 min 47 sec) 
Heartbeat CPU 3 instructions: 990000003 cycles: 736820915 heartbeat IPC: 1.14111 cumulative IPC: 1.10073 (Simulation time: 2 hr 39 min 55 sec) 
Heartbeat CPU 1 instructions: 1260000000 cycles: 741340962 heartbeat IPC: 1.61369 cumulative IPC: 1.55998 (Simulation time: 2 hr 40 min 47 sec) 
Heartbeat CPU 0 instructions: 1230000001 cycles: 743771516 heartbeat IPC: 1.32273 cumulative IPC: 1.51153 (Simulation time: 2 hr 41 min 14 sec) 
Heartbeat CPU 3 instructions: 1000000000 cycles: 745583743 heartbeat IPC: 1.14118 cumulative IPC: 1.1013 (Simulation time: 2 hr 41 min 36 sec) 
Heartbeat CPU 1 instructions: 1270000000 cycles: 747461131 heartbeat IPC: 1.63394 cumulative IPC: 1.56071 (Simulation time: 2 hr 41 min 59 sec) 
Heartbeat CPU 2 instructions: 410000003 cycles: 747885026 heartbeat IPC: 0.303858 cumulative IPC: 0.339004 (Simulation time: 2 hr 42 min 4 sec) 
Heartbeat CPU 0 instructions: 1240000000 cycles: 750013425 heartbeat IPC: 1.60207 cumulative IPC: 1.51244 (Simulation time: 2 hr 42 min 29 sec) 
Heartbeat CPU 1 instructions: 1280000000 cycles: 753677498 heartbeat IPC: 1.60866 cumulative IPC: 1.56119 (Simulation time: 2 hr 43 min 15 sec) 
Heartbeat CPU 3 instructions: 1010000001 cycles: 754905965 heartbeat IPC: 1.07271 cumulative IPC: 1.10088 (Simulation time: 2 hr 43 min 30 sec) 
Heartbeat CPU 0 instructions: 1250000000 cycles: 756348091 heartbeat IPC: 1.57862 cumulative IPC: 1.5131 (Simulation time: 2 hr 43 min 49 sec) 
Heartbeat CPU 1 instructions: 1290000000 cycles: 760429496 heartbeat IPC: 1.48104 cumulative IPC: 1.56033 (Simulation time: 2 hr 44 min 39 sec) 
Heartbeat CPU 0 instructions: 1260000000 cycles: 762686358 heartbeat IPC: 1.57772 cumulative IPC: 1.51375 (Simulation time: 2 hr 45 min 7 sec) 
Heartbeat CPU 3 instructions: 1020000000 cycles: 765019059 heartbeat IPC: 0.988817 cumulative IPC: 1.0991 (Simulation time: 2 hr 45 min 35 sec) 
Heartbeat CPU 1 instructions: 1300000000 cycles: 766697010 heartbeat IPC: 1.59553 cumulative IPC: 1.56068 (Simulation time: 2 hr 45 min 55 sec) 
Heartbeat CPU 0 instructions: 1270000001 cycles: 769033818 heartbeat IPC: 1.57543 cumulative IPC: 1.51436 (Simulation time: 2 hr 46 min 23 sec) 
Finished CPU 1 instructions: 1000000002 cycles: 640661210 cumulative IPC: 1.56089 (Simulation time: 2 hr 46 min 24 sec) 
Heartbeat CPU 1 instructions: 1310000003 cycles: 772885430 heartbeat IPC: 1.61592 cumulative IPC: 1.56121 (Simulation time: 2 hr 47 min 7 sec) 
Heartbeat CPU 3 instructions: 1030000001 cycles: 773565243 heartbeat IPC: 1.17011 cumulative IPC: 1.10004 (Simulation time: 2 hr 47 min 15 sec) 
Heartbeat CPU 0 instructions: 1280000000 cycles: 777306412 heartbeat IPC: 1.20881 cumulative IPC: 1.51046 (Simulation time: 2 hr 47 min 57 sec) 
Heartbeat CPU 2 instructions: 420000000 cycles: 778051922 heartbeat IPC: 0.331489 cumulative IPC: 0.338655 (Simulation time: 2 hr 48 min 5 sec) 
Heartbeat CPU 1 instructions: 1320000000 cycles: 778929291 heartbeat IPC: 1.65457 cumulative IPC: 1.56208 (Simulation time: 2 hr 48 min 15 sec) 
Heartbeat CPU 3 instructions: 1040000000 cycles: 782093085 heartbeat IPC: 1.17263 cumulative IPC: 1.10098 (Simulation time: 2 hr 48 min 53 sec) 
Heartbeat CPU 0 instructions: 1290000002 cycles: 784098055 heartbeat IPC: 1.4724 cumulative IPC: 1.51007 (Simulation time: 2 hr 49 min 18 sec) 
Heartbeat CPU 1 instructions: 1330000002 cycles: 785090021 heartbeat IPC: 1.62318 cumulative IPC: 1.56265 (Simulation time: 2 hr 49 min 30 sec) 
Finished CPU 0 instructions: 1000000001 cycles: 661860248 cumulative IPC: 1.51089 (Simulation time: 2 hr 50 min 33 sec) 
Heartbeat CPU 0 instructions: 1300000000 cycles: 790391544 heartbeat IPC: 1.58894 cumulative IPC: 1.51082 (Simulation time: 2 hr 50 min 34 sec) 
Heartbeat CPU 3 instructions: 1050000000 cycles: 790632783 heartbeat IPC: 1.171 cumulative IPC: 1.10189 (Simulation time: 2 hr 50 min 37 sec) 
Heartbeat CPU 1 instructions: 1340000000 cycles: 791284059 heartbeat IPC: 1.61446 cumulative IPC: 1.56314 (Simulation time: 2 hr 50 min 44 sec) 
Heartbeat CPU 0 instructions: 1310000000 cycles: 797359132 heartbeat IPC: 1.43522 cumulative IPC: 1.51003 (Simulation time: 2 hr 51 min 55 sec) 
Heartbeat CPU 1 instructions: 1350000000 cycles: 798091404 heartbeat IPC: 1.469 cumulative IPC: 1.56218 (Simulation time: 2 hr 52 min 3 sec) 
Heartbeat CPU 3 instructions: 1060000000 cycles: 799453434 heartbeat IPC: 1.1337 cumulative IPC: 1.10231 (Simulation time: 2 hr 52 min 19 sec) 
Heartbeat CPU 0 instructions: 1320000000 cycles: 803808262 heartbeat IPC: 1.5506 cumulative IPC: 1.51042 (Simulation time: 2 hr 53 min 11 sec) 
Heartbeat CPU 1 instructions: 1360000000 cycles: 804293049 heartbeat IPC: 1.61248 cumulative IPC: 1.56264 (Simulation time: 2 hr 53 min 17 sec) 
Heartbeat CPU 2 instructions: 430000001 cycles: 807296422 heartbeat IPC: 0.341945 cumulative IPC: 0.338797 (Simulation time: 2 hr 53 min 52 sec) 
Heartbeat CPU 3 instructions: 1070000002 cycles: 808493382 heartbeat IPC: 1.1062 cumulative IPC: 1.10236 (Simulation time: 2 hr 54 min 7 sec) 
Heartbeat CPU 0 instructions: 1330000002 cycles: 810273182 heartbeat IPC: 1.54681 cumulative IPC: 1.51077 (Simulation time: 2 hr 54 min 28 sec) 
Heartbeat CPU 1 instructions: 1370000001 cycles: 810523692 heartbeat IPC: 1.60497 cumulative IPC: 1.56303 (Simulation time: 2 hr 54 min 31 sec) 
Heartbeat CPU 0 instructions: 1340000000 cycles: 816701941 heartbeat IPC: 1.55551 cumulative IPC: 1.51118 (Simulation time: 2 hr 55 min 44 sec) 
Heartbeat CPU 1 instructions: 1380000000 cycles: 816854743 heartbeat IPC: 1.57952 cumulative IPC: 1.56318 (Simulation time: 2 hr 55 min 46 sec) 
Heartbeat CPU 3 instructions: 1080000000 cycles: 817800007 heartbeat IPC: 1.0745 cumulative IPC: 1.10198 (Simulation time: 2 hr 55 min 57 sec) 
Heartbeat CPU 1 instructions: 1390000001 cycles: 823162461 heartbeat IPC: 1.58536 cumulative IPC: 1.56338 (Simulation time: 2 hr 57 min 42 sec) 
Heartbeat CPU 0 instructions: 1350000000 cycles: 823170402 heartbeat IPC: 1.54596 cumulative IPC: 1.51151 (Simulation time: 2 hr 57 min 43 sec) 
Heartbeat CPU 3 instructions: 1090000001 cycles: 827259568 heartbeat IPC: 1.05713 cumulative IPC: 1.10137 (Simulation time: 2 hr 58 min 31 sec) 
Heartbeat CPU 1 instructions: 1400000000 cycles: 829396141 heartbeat IPC: 1.60419 cumulative IPC: 1.56374 (Simulation time: 2 hr 58 min 57 sec) 
Heartbeat CPU 0 instructions: 1360000000 cycles: 829657208 heartbeat IPC: 1.54159 cumulative IPC: 1.51179 (Simulation time: 2 hr 59 min 0 sec) 
Heartbeat CPU 0 instructions: 1370000003 cycles: 836166093 heartbeat IPC: 1.53636 cumulative IPC: 1.51201 (Simulation time: 3 hr 0 min 15 sec) 
Heartbeat CPU 1 instructions: 1410000003 cycles: 836259622 heartbeat IPC: 1.45699 cumulative IPC: 1.56271 (Simulation time: 3 hr 0 min 16 sec) 
Heartbeat CPU 3 instructions: 1100000000 cycles: 836461500 heartbeat IPC: 1.08673 cumulative IPC: 1.10118 (Simulation time: 3 hr 0 min 19 sec) 
Heartbeat CPU 2 instructions: 440000000 cycles: 836493916 heartbeat IPC: 0.342495 cumulative IPC: 0.33895 (Simulation time: 3 hr 0 min 19 sec) 
Heartbeat CPU 1 instructions: 1420000000 cycles: 842458422 heartbeat IPC: 1.61321 cumulative IPC: 1.56315 (Simulation time: 3 hr 1 min 30 sec) 
Heartbeat CPU 0 instructions: 1380000000 cycles: 842679321 heartbeat IPC: 1.53534 cumulative IPC: 1.51222 (Simulation time: 3 hr 1 min 32 sec) 
Heartbeat CPU 3 instructions: 1110000000 cycles: 845492499 heartbeat IPC: 1.1073 cumulative IPC: 1.10126 (Simulation time: 3 hr 2 min 6 sec) 
Heartbeat CPU 1 instructions: 1430000002 cycles: 848638961 heartbeat IPC: 1.61798 cumulative IPC: 1.56362 (Simulation time: 3 hr 2 min 43 sec) 
Heartbeat CPU 0 instructions: 1390000003 cycles: 849284415 heartbeat IPC: 1.51398 cumulative IPC: 1.51224 (Simulation time: 3 hr 2 min 51 sec) 
Heartbeat CPU 3 instructions: 1120000000 cycles: 854431069 heartbeat IPC: 1.11875 cumulative IPC: 1.10148 (Simulation time: 3 hr 3 min 52 sec) 
Heartbeat CPU 1 instructions: 1440000000 cycles: 854818005 heartbeat IPC: 1.61837 cumulative IPC: 1.56408 (Simulation time: 3 hr 3 min 56 sec) 
Heartbeat CPU 0 instructions: 1400000000 cycles: 855773412 heartbeat IPC: 1.54107 cumulative IPC: 1.5125 (Simulation time: 3 hr 4 min 7 sec) 
Heartbeat CPU 0 instructions: 1410000003 cycles: 862306512 heartbeat IPC: 1.53067 cumulative IPC: 1.51266 (Simulation time: 3 hr 5 min 22 sec) 
Heartbeat CPU 1 instructions: 1450000002 cycles: 862339048 heartbeat IPC: 1.3296 cumulative IPC: 1.56168 (Simulation time: 3 hr 5 min 22 sec) 
Heartbeat CPU 3 instructions: 1130000002 cycles: 863766946 heartbeat IPC: 1.07114 cumulative IPC: 1.10109 (Simulation time: 3 hr 5 min 39 sec) 
Heartbeat CPU 2 instructions: 450000001 cycles: 865594032 heartbeat IPC: 0.343641 cumulative IPC: 0.339135 (Simulation time: 3 hr 6 min 1 sec) 
Heartbeat CPU 1 instructions: 1460000000 cycles: 868587944 heartbeat IPC: 1.60028 cumulative IPC: 1.56201 (Simulation time: 3 hr 6 min 36 sec) 
Heartbeat CPU 0 instructions: 1420000000 cycles: 868839105 heartbeat IPC: 1.53079 cumulative IPC: 1.51282 (Simulation time: 3 hr 6 min 39 sec) 
Heartbeat CPU 3 instructions: 1140000000 cycles: 872761172 heartbeat IPC: 1.11182 cumulative IPC: 1.10122 (Simulation time: 3 hr 7 min 25 sec) 
Heartbeat CPU 1 instructions: 1470000003 cycles: 875499873 heartbeat IPC: 1.44677 cumulative IPC: 1.56094 (Simulation time: 3 hr 7 min 55 sec) 
Heartbeat CPU 0 instructions: 1430000002 cycles: 875928127 heartbeat IPC: 1.41063 cumulative IPC: 1.51185 (Simulation time: 3 hr 8 min 0 sec) 
Heartbeat CPU 3 instructions: 1150000000 cycles: 881741782 heartbeat IPC: 1.11351 cumulative IPC: 1.10137 (Simulation time: 3 hr 9 min 5 sec) 
Heartbeat CPU 0 instructions: 1440000000 cycles: 882276670 heartbeat IPC: 1.57516 cumulative IPC: 1.51238 (Simulation time: 3 hr 9 min 11 sec) 
Heartbeat CPU 1 instructions: 1480000000 cycles: 882966140 heartbeat IPC: 1.33936 cumulative IPC: 1.55875 (Simulation time: 3 hr 9 min 20 sec) 
Heartbeat CPU 0 instructions: 1450000001 cycles: 889487432 heartbeat IPC: 1.38682 cumulative IPC: 1.51119 (Simulation time: 3 hr 10 min 32 sec) 
Heartbeat CPU 1 instructions: 1490000001 cycles: 889891376 heartbeat IPC: 1.44399 cumulative IPC: 1.5577 (Simulation time: 3 hr 10 min 37 sec) 
Heartbeat CPU 3 instructions: 1160000000 cycles: 890868079 heartbeat IPC: 1.09573 cumulative IPC: 1.1013 (Simulation time: 3 hr 10 min 46 sec) 
Heartbeat CPU 2 instructions: 460000000 cycles: 894648478 heartbeat IPC: 0.344181 cumulative IPC: 0.339326 (Simulation time: 3 hr 11 min 28 sec) 
Heartbeat CPU 1 instructions: 1500000000 cycles: 896734624 heartbeat IPC: 1.46129 cumulative IPC: 1.55684 (Simulation time: 3 hr 11 min 52 sec) 
Heartbeat CPU 0 instructions: 1460000000 cycles: 897533019 heartbeat IPC: 1.24292 cumulative IPC: 1.50839 (Simulation time: 3 hr 12 min 1 sec) 
Heartbeat CPU 3 instructions: 1170000001 cycles: 899857646 heartbeat IPC: 1.1124 cumulative IPC: 1.10143 (Simulation time: 3 hr 12 min 28 sec) 
Heartbeat CPU 1 instructions: 1510000002 cycles: 903613529 heartbeat IPC: 1.45372 cumulative IPC: 1.55593 (Simulation time: 3 hr 13 min 11 sec) 
Heartbeat CPU 0 instructions: 1470000002 cycles: 904071976 heartbeat IPC: 1.5293 cumulative IPC: 1.50856 (Simulation time: 3 hr 13 min 16 sec) 
Heartbeat CPU 3 instructions: 1180000000 cycles: 908979652 heartbeat IPC: 1.09625 cumulative IPC: 1.10137 (Simulation time: 3 hr 14 min 15 sec) 
Heartbeat CPU 1 instructions: 1520000000 cycles: 909836812 heartbeat IPC: 1.60687 cumulative IPC: 1.55633 (Simulation time: 3 hr 14 min 25 sec) 
Heartbeat CPU 0 instructions: 1480000000 cycles: 910576116 heartbeat IPC: 1.53748 cumulative IPC: 1.5088 (Simulation time: 3 hr 14 min 34 sec) 
Heartbeat CPU 1 instructions: 1530000000 cycles: 916166010 heartbeat IPC: 1.57998 cumulative IPC: 1.55652 (Simulation time: 3 hr 15 min 40 sec) 
Heartbeat CPU 0 instructions: 1490000000 cycles: 917074730 heartbeat IPC: 1.53879 cumulative IPC: 1.50905 (Simulation time: 3 hr 15 min 51 sec) 
Heartbeat CPU 3 instructions: 1190000002 cycles: 917974552 heartbeat IPC: 1.11174 cumulative IPC: 1.10149 (Simulation time: 3 hr 16 min 3 sec) 
Heartbeat CPU 1 instructions: 1540000000 cycles: 922221341 heartbeat IPC: 1.65144 cumulative IPC: 1.55725 (Simulation time: 3 hr 16 min 58 sec) 
Heartbeat CPU 0 instructions: 1500000000 cycles: 923467626 heartbeat IPC: 1.56424 cumulative IPC: 1.50949 (Simulation time: 3 hr 17 min 13 sec) 
Heartbeat CPU 2 instructions: 470000000 cycles: 923685423 heartbeat IPC: 0.344389 cumulative IPC: 0.339511 (Simulation time: 3 hr 17 min 16 sec) 
Heartbeat CPU 3 instructions: 1200000000 cycles: 927091792 heartbeat IPC: 1.09682 cumulative IPC: 1.10143 (Simulation time: 3 hr 17 min 54 sec) 
Heartbeat CPU 1 instructions: 1550000003 cycles: 929601380 heartbeat IPC: 1.35501 cumulative IPC: 1.55539 (Simulation time: 3 hr 18 min 22 sec) 
Heartbeat CPU 0 instructions: 1510000002 cycles: 929977696 heartbeat IPC: 1.53608 cumulative IPC: 1.50971 (Simulation time: 3 hr 18 min 27 sec) 
Heartbeat CPU 3 instructions: 1210000000 cycles: 936047333 heartbeat IPC: 1.11663 cumulative IPC: 1.1016 (Simulation time: 3 hr 19 min 37 sec) 
Heartbeat CPU 1 instructions: 1560000000 cycles: 936341491 heartbeat IPC: 1.48365 cumulative IPC: 1.55479 (Simulation time: 3 hr 19 min 41 sec) 
Heartbeat CPU 0 instructions: 1520000000 cycles: 936430066 heartbeat IPC: 1.54982 cumulative IPC: 1.51003 (Simulation time: 3 hr 19 min 42 sec) 
Heartbeat CPU 1 instructions: 1570000002 cycles: 942516943 heartbeat IPC: 1.61932 cumulative IPC: 1.55528 (Simulation time: 3 hr 21 min 0 sec) 
Heartbeat CPU 0 instructions: 1530000002 cycles: 942837995 heartbeat IPC: 1.56057 cumulative IPC: 1.51043 (Simulation time: 3 hr 21 min 4 sec) 
Heartbeat CPU 3 instructions: 1220000000 cycles: 945031905 heartbeat IPC: 1.11302 cumulative IPC: 1.10173 (Simulation time: 3 hr 21 min 30 sec) 
Heartbeat CPU 1 instructions: 1580000000 cycles: 948643053 heartbeat IPC: 1.63236 cumulative IPC: 1.55585 (Simulation time: 3 hr 22 min 14 sec) 
Heartbeat CPU 0 instructions: 1540000000 cycles: 949270666 heartbeat IPC: 1.55456 cumulative IPC: 1.51077 (Simulation time: 3 hr 22 min 22 sec) 
Heartbeat CPU 2 instructions: 480000000 cycles: 952800900 heartbeat IPC: 0.34346 cumulative IPC: 0.339651 (Simulation time: 3 hr 23 min 4 sec) 
Heartbeat CPU 3 instructions: 1230000001 cycles: 954161040 heartbeat IPC: 1.09539 cumulative IPC: 1.10166 (Simulation time: 3 hr 23 min 20 sec) 
Heartbeat CPU 1 instructions: 1590000003 cycles: 954762496 heartbeat IPC: 1.63414 cumulative IPC: 1.55643 (Simulation time: 3 hr 23 min 27 sec) 
Heartbeat CPU 0 instructions: 1550000002 cycles: 955710553 heartbeat IPC: 1.55282 cumulative IPC: 1.5111 (Simulation time: 3 hr 23 min 38 sec) 
Heartbeat CPU 1 instructions: 1600000000 cycles: 960900466 heartbeat IPC: 1.6292 cumulative IPC: 1.55697 (Simulation time: 3 hr 24 min 39 sec) 
Heartbeat CPU 0 instructions: 1560000000 cycles: 962173939 heartbeat IPC: 1.54718 cumulative IPC: 1.51138 (Simulation time: 3 hr 24 min 54 sec) 
Heartbeat CPU 3 instructions: 1240000000 cycles: 963145847 heartbeat IPC: 1.11299 cumulative IPC: 1.10178 (Simulation time: 3 hr 25 min 5 sec) 
Heartbeat CPU 1 instructions: 1610000000 cycles: 967021569 heartbeat IPC: 1.63369 cumulative IPC: 1.55753 (Simulation time: 3 hr 25 min 51 sec) 
Heartbeat CPU 0 instructions: 1570000002 cycles: 968698695 heartbeat IPC: 1.53262 cumulative IPC: 1.51155 (Simulation time: 3 hr 26 min 11 sec) 
Heartbeat CPU 3 instructions: 1250000000 cycles: 972473850 heartbeat IPC: 1.07204 cumulative IPC: 1.10145 (Simulation time: 3 hr 26 min 54 sec) 
Heartbeat CPU 1 instructions: 1620000000 cycles: 973116792 heartbeat IPC: 1.64063 cumulative IPC: 1.55813 (Simulation time: 3 hr 27 min 2 sec) 
Heartbeat CPU 0 instructions: 1580000000 cycles: 975574510 heartbeat IPC: 1.45437 cumulative IPC: 1.51108 (Simulation time: 3 hr 27 min 30 sec) 
Heartbeat CPU 1 instructions: 1630000000 cycles: 980951355 heartbeat IPC: 1.2764 cumulative IPC: 1.55554 (Simulation time: 3 hr 28 min 30 sec) 
Heartbeat CPU 3 instructions: 1260000000 cycles: 981426450 heartbeat IPC: 1.11699 cumulative IPC: 1.10161 (Simulation time: 3 hr 28 min 35 sec) 
Heartbeat CPU 0 instructions: 1590000003 cycles: 981803732 heartbeat IPC: 1.60534 cumulative IPC: 1.51177 (Simulation time: 3 hr 28 min 40 sec) 
Heartbeat CPU 2 instructions: 490000001 cycles: 982485639 heartbeat IPC: 0.336873 cumulative IPC: 0.339554 (Simulation time: 3 hr 28 min 48 sec) 
Heartbeat CPU 1 instructions: 1640000000 cycles: 987191072 heartbeat IPC: 1.60264 cumulative IPC: 1.55588 (Simulation time: 3 hr 29 min 44 sec) 
Heartbeat CPU 0 instructions: 1600000000 cycles: 988079615 heartbeat IPC: 1.5934 cumulative IPC: 1.51237 (Simulation time: 3 hr 29 min 54 sec) 
Heartbeat CPU 3 instructions: 1270000002 cycles: 990382296 heartbeat IPC: 1.11659 cumulative IPC: 1.10177 (Simulation time: 3 hr 30 min 21 sec) 
Heartbeat CPU 1 instructions: 1650000003 cycles: 993402950 heartbeat IPC: 1.60982 cumulative IPC: 1.55627 (Simulation time: 3 hr 30 min 57 sec) 
Heartbeat CPU 0 instructions: 1610000002 cycles: 994507644 heartbeat IPC: 1.55569 cumulative IPC: 1.51269 (Simulation time: 3 hr 31 min 10 sec) 
Heartbeat CPU 1 instructions: 1660000000 cycles: 999572247 heartbeat IPC: 1.62093 cumulative IPC: 1.55673 (Simulation time: 3 hr 32 min 10 sec) 
Heartbeat CPU 3 instructions: 1280000000 cycles: 999686994 heartbeat IPC: 1.07473 cumulative IPC: 1.10148 (Simulation time: 3 hr 32 min 12 sec) 
Heartbeat CPU 0 instructions: 1620000000 cycles: 1000823313 heartbeat IPC: 1.58336 cumulative IPC: 1.5132 (Simulation time: 3 hr 32 min 25 sec) 
Heartbeat CPU 1 instructions: 1670000003 cycles: 1005739491 heartbeat IPC: 1.62147 cumulative IPC: 1.55718 (Simulation time: 3 hr 33 min 23 sec) 
Heartbeat CPU 0 instructions: 1630000003 cycles: 1007191052 heartbeat IPC: 1.57042 cumulative IPC: 1.51361 (Simulation time: 3 hr 33 min 41 sec) 
Heartbeat CPU 3 instructions: 1290000002 cycles: 1008832752 heartbeat IPC: 1.0934 cumulative IPC: 1.1014 (Simulation time: 3 hr 34 min 0 sec) 
Heartbeat CPU 2 instructions: 500000000 cycles: 1011603583 heartbeat IPC: 0.343431 cumulative IPC: 0.339682 (Simulation time: 3 hr 34 min 33 sec) 
Heartbeat CPU 1 instructions: 1680000000 cycles: 1011889026 heartbeat IPC: 1.62614 cumulative IPC: 1.55766 (Simulation time: 3 hr 34 min 37 sec) 
Heartbeat CPU 0 instructions: 1640000000 cycles: 1013398260 heartbeat IPC: 1.61103 cumulative IPC: 1.5143 (Simulation time: 3 hr 34 min 55 sec) 
Heartbeat CPU 3 instructions: 1300000000 cycles: 1018106485 heartbeat IPC: 1.07831 cumulative IPC: 1.10116 (Simulation time: 3 hr 35 min 48 sec) 
Heartbeat CPU 1 instructions: 1690000001 cycles: 1018545177 heartbeat IPC: 1.50237 cumulative IPC: 1.55725 (Simulation time: 3 hr 35 min 52 sec) 
Heartbeat CPU 0 instructions: 1650000001 cycles: 1020497116 heartbeat IPC: 1.40868 cumulative IPC: 1.51346 (Simulation time: 3 hr 36 min 15 sec) 
Heartbeat CPU 1 instructions: 1700000000 cycles: 1024720540 heartbeat IPC: 1.61934 cumulative IPC: 1.55768 (Simulation time: 3 hr 37 min 5 sec) 
Heartbeat CPU 3 instructions: 1310000002 cycles: 1026978206 heartbeat IPC: 1.12718 cumulative IPC: 1.10141 (Simulation time: 3 hr 37 min 32 sec) 
Heartbeat CPU 0 instructions: 1660000000 cycles: 1027041875 heartbeat IPC: 1.52794 cumulative IPC: 1.51356 (Simulation time: 3 hr 37 min 33 sec) 
Heartbeat CPU 1 instructions: 1710000003 cycles: 1030599789 heartbeat IPC: 1.7009 cumulative IPC: 1.55861 (Simulation time: 3 hr 38 min 15 sec) 
Heartbeat CPU 0 instructions: 1670000000 cycles: 1033505042 heartbeat IPC: 1.54723 cumulative IPC: 1.5138 (Simulation time: 3 hr 38 min 49 sec) 
Heartbeat CPU 3 instructions: 1320000000 cycles: 1035838184 heartbeat IPC: 1.12867 cumulative IPC: 1.10168 (Simulation time: 3 hr 39 min 17 sec) 
Finished CPU 3 instructions: 1000000001 cycles: 907698335 cumulative IPC: 1.10169 (Simulation time: 3 hr 39 min 21 sec) 
Heartbeat CPU 1 instructions: 1720000000 cycles: 1036479365 heartbeat IPC: 1.7008 cumulative IPC: 1.55953 (Simulation time: 3 hr 39 min 25 sec) 
Heartbeat CPU 0 instructions: 1680000000 cycles: 1039998411 heartbeat IPC: 1.54003 cumulative IPC: 1.51399 (Simulation time: 3 hr 40 min 7 sec) 
Heartbeat CPU 2 instructions: 510000000 cycles: 1041291735 heartbeat IPC: 0.336835 cumulative IPC: 0.339589 (Simulation time: 3 hr 40 min 23 sec) 
Heartbeat CPU 1 instructions: 1730000003 cycles: 1042337998 heartbeat IPC: 1.70688 cumulative IPC: 1.56048 (Simulation time: 3 hr 40 min 36 sec) 
Heartbeat CPU 3 instructions: 1330000000 cycles: 1044388592 heartbeat IPC: 1.16953 cumulative IPC: 1.10231 (Simulation time: 3 hr 41 min 2 sec) 
Heartbeat CPU 0 instructions: 1690000001 cycles: 1046493079 heartbeat IPC: 1.53972 cumulative IPC: 1.51417 (Simulation time: 3 hr 41 min 27 sec) 
Heartbeat CPU 1 instructions: 1740000000 cycles: 1048180277 heartbeat IPC: 1.71166 cumulative IPC: 1.56144 (Simulation time: 3 hr 41 min 47 sec) 
Heartbeat CPU 3 instructions: 1340000000 cycles: 1052911662 heartbeat IPC: 1.17329 cumulative IPC: 1.10297 (Simulation time: 3 hr 42 min 44 sec) 
Heartbeat CPU 0 instructions: 1700000000 cycles: 1052946473 heartbeat IPC: 1.54957 cumulative IPC: 1.51442 (Simulation time: 3 hr 42 min 45 sec) 
Heartbeat CPU 1 instructions: 1750000003 cycles: 1053957234 heartbeat IPC: 1.73102 cumulative IPC: 1.56249 (Simulation time: 3 hr 42 min 57 sec) 
Heartbeat CPU 0 instructions: 1710000001 cycles: 1059373993 heartbeat IPC: 1.55581 cumulative IPC: 1.5147 (Simulation time: 3 hr 44 min 7 sec) 
Heartbeat CPU 1 instructions: 1760000000 cycles: 1059769624 heartbeat IPC: 1.72046 cumulative IPC: 1.56348 (Simulation time: 3 hr 44 min 12 sec) 
Heartbeat CPU 3 instructions: 1350000000 cycles: 1061453266 heartbeat IPC: 1.17074 cumulative IPC: 1.10359 (Simulation time: 3 hr 44 min 33 sec) 
Heartbeat CPU 1 instructions: 1770000000 cycles: 1065526924 heartbeat IPC: 1.73693 cumulative IPC: 1.56455 (Simulation time: 3 hr 45 min 27 sec) 
Heartbeat CPU 0 instructions: 1720000000 cycles: 1065851670 heartbeat IPC: 1.54376 cumulative IPC: 1.51491 (Simulation time: 3 hr 45 min 33 sec) 
Heartbeat CPU 2 instructions: 520000000 cycles: 1070198868 heartbeat IPC: 0.345935 cumulative IPC: 0.339784 (Simulation time: 3 hr 46 min 32 sec) 
Heartbeat CPU 3 instructions: 1360000000 cycles: 1070925562 heartbeat IPC: 1.05571 cumulative IPC: 1.10311 (Simulation time: 3 hr 46 min 41 sec) 
Heartbeat CPU 1 instructions: 1780000000 cycles: 1071306753 heartbeat IPC: 1.73015 cumulative IPC: 1.56556 (Simulation time: 3 hr 46 min 47 sec) 
Heartbeat CPU 0 instructions: 1730000001 cycles: 1072967038 heartbeat IPC: 1.40541 cumulative IPC: 1.51408 (Simulation time: 3 hr 47 min 12 sec) 
Heartbeat CPU 1 instructions: 1790000001 cycles: 1077211681 heartbeat IPC: 1.6935 cumulative IPC: 1.56636 (Simulation time: 3 hr 48 min 10 sec) 
Heartbeat CPU 0 instructions: 1740000000 cycles: 1079472389 heartbeat IPC: 1.5372 cumulative IPC: 1.51424 (Simulation time: 3 hr 48 min 38 sec) 
Heartbeat CPU 3 instructions: 1370000003 cycles: 1080837813 heartbeat IPC: 1.00885 cumulative IPC: 1.10213 (Simulation time: 3 hr 48 min 55 sec) 
Heartbeat CPU 1 instructions: 1800000000 cycles: 1083049020 heartbeat IPC: 1.71311 cumulative IPC: 1.56725 (Simulation time: 3 hr 49 min 21 sec) 
Heartbeat CPU 0 instructions: 1750000003 cycles: 1085746134 heartbeat IPC: 1.59394 cumulative IPC: 1.51476 (Simulation time: 3 hr 49 min 54 sec) 
Heartbeat CPU 1 instructions: 1810000003 cycles: 1088910868 heartbeat IPC: 1.70595 cumulative IPC: 1.5681 (Simulation time: 3 hr 50 min 32 sec) 
[...]
Heartbeat CPU 1 instructions: 4750000001 cycles: 2960588424 heartbeat IPC: 1.47329 cumulative IPC: 1.56987 (Simulation time: 9 hr 26 min 8 sec) 
Heartbeat CPU 0 instructions: 4620000000 cycles: 2961009590 heartbeat IPC: 1.63787 cumulative IPC: 1.52515 (Simulation time: 9 hr 26 min 12 sec) 
Heartbeat CPU 3 instructions: 3450000002 cycles: 2964031279 heartbeat IPC: 1.0865 cumulative IPC: 1.10371 (Simulation time: 9 hr 26 min 42 sec) 
Heartbeat CPU 1 instructions: 4760000000 cycles: 2967464709 heartbeat IPC: 1.45427 cumulative IPC: 1.56959 (Simulation time: 9 hr 27 min 16 sec) 
Heartbeat CPU 0 instructions: 4630000003 cycles: 2967900670 heartbeat IPC: 1.45115 cumulative IPC: 1.52497 (Simulation time: 9 hr 27 min 20 sec) 
Heartbeat CPU 3 instructions: 3460000000 cycles: 2973207807 heartbeat IPC: 1.08974 cumulative IPC: 1.10366 (Simulation time: 9 hr 28 min 11 sec) 
Heartbeat CPU 1 instructions: 4770000003 cycles: 2974309729 heartbeat IPC: 1.46092 cumulative IPC: 1.56933 (Simulation time: 9 hr 28 min 23 sec) 
Heartbeat CPU 0 instructions: 4640000000 cycles: 2974875736 heartbeat IPC: 1.43368 cumulative IPC: 1.52475 (Simulation time: 9 hr 28 min 28 sec) 
Heartbeat CPU 0 instructions: 4650000000 cycles: 2981107084 heartbeat IPC: 1.60479 cumulative IPC: 1.52492 (Simulation time: 9 hr 29 min 31 sec) 
Heartbeat CPU 1 instructions: 4780000000 cycles: 2981119418 heartbeat IPC: 1.4685 cumulative IPC: 1.56909 (Simulation time: 9 hr 29 min 31 sec) 
Heartbeat CPU 3 instructions: 3470000000 cycles: 2982368339 heartbeat IPC: 1.09164 cumulative IPC: 1.10362 (Simulation time: 9 hr 29 min 44 sec) 
Heartbeat CPU 2 instructions: 1180000000 cycles: 2986233276 heartbeat IPC: 0.344809 cumulative IPC: 0.34292 (Simulation time: 9 hr 30 min 23 sec) 
Heartbeat CPU 1 instructions: 4790000000 cycles: 2987986795 heartbeat IPC: 1.45616 cumulative IPC: 1.56882 (Simulation time: 9 hr 30 min 39 sec) 
Heartbeat CPU 0 instructions: 4660000000 cycles: 2988076116 heartbeat IPC: 1.43492 cumulative IPC: 1.5247 (Simulation time: 9 hr 30 min 40 sec) 
Heartbeat CPU 3 instructions: 3480000000 cycles: 2991941894 heartbeat IPC: 1.04454 cumulative IPC: 1.10343 (Simulation time: 9 hr 31 min 18 sec) 
Heartbeat CPU 0 instructions: 4670000001 cycles: 2994569649 heartbeat IPC: 1.53999 cumulative IPC: 1.52474 (Simulation time: 9 hr 31 min 43 sec) 
Heartbeat CPU 1 instructions: 4800000000 cycles: 2995398320 heartbeat IPC: 1.34925 cumulative IPC: 1.56825 (Simulation time: 9 hr 31 min 51 sec) 
Heartbeat CPU 3 instructions: 3490000000 cycles: 3000897851 heartbeat IPC: 1.11658 cumulative IPC: 1.10347 (Simulation time: 9 hr 32 min 47 sec) 
Heartbeat CPU 0 instructions: 4680000000 cycles: 3001081953 heartbeat IPC: 1.53555 cumulative IPC: 1.52476 (Simulation time: 9 hr 32 min 49 sec) 
Heartbeat CPU 1 instructions: 4810000003 cycles: 3001559401 heartbeat IPC: 1.62309 cumulative IPC: 1.56837 (Simulation time: 9 hr 32 min 54 sec) 
Heartbeat CPU 0 instructions: 4690000003 cycles: 3007589953 heartbeat IPC: 1.53657 cumulative IPC: 1.52479 (Simulation time: 9 hr 33 min 52 sec) 
Heartbeat CPU 1 instructions: 4820000000 cycles: 3009096069 heartbeat IPC: 1.32685 cumulative IPC: 1.56774 (Simulation time: 9 hr 34 min 7 sec) 
Heartbeat CPU 3 instructions: 3500000000 cycles: 3010063428 heartbeat IPC: 1.09104 cumulative IPC: 1.10343 (Simulation time: 9 hr 34 min 17 sec) 
Heartbeat CPU 0 instructions: 4700000000 cycles: 3014061917 heartbeat IPC: 1.54513 cumulative IPC: 1.52483 (Simulation time: 9 hr 34 min 56 sec) 
Heartbeat CPU 2 instructions: 1190000003 cycles: 3015402534 heartbeat IPC: 0.342827 cumulative IPC: 0.342919 (Simulation time: 9 hr 35 min 9 sec) 
Heartbeat CPU 1 instructions: 4830000002 cycles: 3016664447 heartbeat IPC: 1.32129 cumulative IPC: 1.56709 (Simulation time: 9 hr 35 min 20 sec) 
Heartbeat CPU 3 instructions: 3510000000 cycles: 3019089359 heartbeat IPC: 1.10792 cumulative IPC: 1.10344 (Simulation time: 9 hr 35 min 43 sec) 
Heartbeat CPU 0 instructions: 4710000000 cycles: 3021083434 heartbeat IPC: 1.42419 cumulative IPC: 1.52459 (Simulation time: 9 hr 36 min 2 sec) 
Heartbeat CPU 1 instructions: 4840000000 cycles: 3023783656 heartbeat IPC: 1.40465 cumulative IPC: 1.56669 (Simulation time: 9 hr 36 min 29 sec) 
Heartbeat CPU 0 instructions: 4720000000 cycles: 3028146656 heartbeat IPC: 1.41578 cumulative IPC: 1.52432 (Simulation time: 9 hr 37 min 11 sec) 
Heartbeat CPU 3 instructions: 3520000000 cycles: 3028152054 heartbeat IPC: 1.10342 cumulative IPC: 1.10344 (Simulation time: 9 hr 37 min 11 sec) 
Heartbeat CPU 1 instructions: 4850000000 cycles: 3030719690 heartbeat IPC: 1.44175 cumulative IPC: 1.56639 (Simulation time: 9 hr 37 min 37 sec) 
Heartbeat CPU 0 instructions: 4730000002 cycles: 3034580767 heartbeat IPC: 1.55422 cumulative IPC: 1.52439 (Simulation time: 9 hr 38 min 16 sec) 
Heartbeat CPU 1 instructions: 4860000000 cycles: 3036920191 heartbeat IPC: 1.61277 cumulative IPC: 1.56649 (Simulation time: 9 hr 38 min 40 sec) 
Heartbeat CPU 3 instructions: 3530000000 cycles: 3037117898 heartbeat IPC: 1.11534 cumulative IPC: 1.10348 (Simulation time: 9 hr 38 min 42 sec) 
Heartbeat CPU 0 instructions: 4740000000 cycles: 3041026677 heartbeat IPC: 1.55137 cumulative IPC: 1.52445 (Simulation time: 9 hr 39 min 22 sec) 
Heartbeat CPU 1 instructions: 4870000001 cycles: 3043048581 heartbeat IPC: 1.63175 cumulative IPC: 1.56663 (Simulation time: 9 hr 39 min 43 sec) 
Heartbeat CPU 2 instructions: 1200000000 cycles: 3044441852 heartbeat IPC: 0.344361 cumulative IPC: 0.342933 (Simulation time: 9 hr 39 min 57 sec) 
Finished CPU 2 instructions: 1000000001 cycles: 2916017793 cumulative IPC: 0.342933 (Simulation time: 9 hr 39 min 57 sec) 

CPU 0 Branch Prediction Accuracy: 96.7721% MPKI: 4.37467

CPU 1 Branch Prediction Accuracy: 96.9634% MPKI: 4.09949

CPU 2 Branch Prediction Accuracy: 92.789% MPKI: 15.8169

CPU 3 Branch Prediction Accuracy: 92.3899% MPKI: 10.3957

ChampSim completed all CPUs

Total Simulation Statistics (not including warmup)

CPU 0 cumulative IPC: 1.52449 instructions: 4445426196 cycles: 2916017793
L1D TOTAL     ACCESS: 1242983040  HIT: 1242982997  MISS:         43
L1D LOAD      ACCESS:  540144631  HIT:  540144606  MISS:         25
L1D RFO       ACCESS:  702838409  HIT:  702838391  MISS:         18
L1D PREFETCH  ACCESS:          0  HIT:          0  MISS:          0
L1D WRITEBACK ACCESS:          0  HIT:          0  MISS:          0
L1I TOTAL     ACCESS:  972631517  HIT:  972474674  MISS:     156843
L1I LOAD      ACCESS:  972631517  HIT:  972474674  MISS:     156843
L1I RFO       ACCESS:          0  HIT:          0  MISS:          0
L1I PREFETCH  ACCESS:          0  HIT:          0  MISS:          0
L1I WRITEBACK ACCESS:          0  HIT:          0  MISS:          0
L2C TOTAL     ACCESS:     156954  HIT:     156842  MISS:        112
L2C LOAD      ACCESS:     156868  HIT:     156842  MISS:         26
L2C RFO       ACCESS:         18  HIT:          0  MISS:         18
L2C PREFETCH  ACCESS:         68  HIT:          0  MISS:         68
L2C WRITEBACK ACCESS:          0  HIT:          0  MISS:          0

L2C DA-AMPM prefetcher final stats
LLC TOTAL     ACCESS:        112  HIT:          0  MISS:        112
LLC LOAD      ACCESS:         26  HIT:          0  MISS:         26
LLC RFO       ACCESS:         18  HIT:          0  MISS:         18
LLC PREFETCH  ACCESS:         68  HIT:          0  MISS:         68
LLC WRITEBACK ACCESS:          0  HIT:          0  MISS:          0

CPU 1 cumulative IPC: 1.56666 instructions: 4568420401 cycles: 2916017793
L1D TOTAL     ACCESS: 1226787821  HIT: 1226787811  MISS:         10
L1D LOAD      ACCESS:  529871370  HIT:  529871366  MISS:          4
L1D RFO       ACCESS:  696916451  HIT:  696916445  MISS:          6
L1D PREFETCH  ACCESS:          0  HIT:          0  MISS:          0
L1D WRITEBACK ACCESS:          0  HIT:          0  MISS:          0
L1I TOTAL     ACCESS: 1005653725  HIT: 1005485992  MISS:     167733
L1I LOAD      ACCESS: 1005653725  HIT: 1005485992  MISS:     167733
L1I RFO       ACCESS:          0  HIT:          0  MISS:          0
L1I PREFETCH  ACCESS:          0  HIT:          0  MISS:          0
L1I WRITEBACK ACCESS:          0  HIT:          0  MISS:          0
L2C TOTAL     ACCESS:     167752  HIT:     167749  MISS:          3
L2C LOAD      ACCESS:     167737  HIT:     167737  MISS:          0
L2C RFO       ACCESS:          6  HIT:          6  MISS:          0
L2C PREFETCH  ACCESS:          3  HIT:          0  MISS:          3
L2C WRITEBACK ACCESS:          6  HIT:          6  MISS:          0

L2C DA-AMPM prefetcher final stats
LLC TOTAL     ACCESS:          3  HIT:          0  MISS:          3
LLC LOAD      ACCESS:          0  HIT:          0  MISS:          0
LLC RFO       ACCESS:          0  HIT:          0  MISS:          0
LLC PREFETCH  ACCESS:          3  HIT:          0  MISS:          3
LLC WRITEBACK ACCESS:          0  HIT:          0  MISS:          0

CPU 2 cumulative IPC: 0.342933 instructions: 1000000001 cycles: 2916017793
L1D TOTAL     ACCESS:  343048248  HIT:  270756744  MISS:   72291504
L1D LOAD      ACCESS:  260308672  HIT:  191162895  MISS:   69145777
L1D RFO       ACCESS:   82739576  HIT:   79593849  MISS:    3145727
L1D PREFETCH  ACCESS:          0  HIT:          0  MISS:          0
L1D WRITEBACK ACCESS:          0  HIT:          0  MISS:          0
L1I TOTAL     ACCESS:  233944234  HIT:  233944232  MISS:          2
L1I LOAD      ACCESS:  233944234  HIT:  233944232  MISS:          2
L1I RFO       ACCESS:          0  HIT:          0  MISS:          0
L1I PREFETCH  ACCESS:          0  HIT:          0  MISS:          0
L1I WRITEBACK ACCESS:          0  HIT:          0  MISS:          0
L2C TOTAL     ACCESS:   98314752  HIT:   32773699  MISS:   65541053
L2C LOAD      ACCESS:   69145477  HIT:   26635213  MISS:   42510264
L2C RFO       ACCESS:    3145670  HIT:     516199  MISS:    2629471
L2C PREFETCH  ACCESS:   20906238  HIT:     511136  MISS:   20395102
L2C WRITEBACK ACCESS:    5117367  HIT:    5111151  MISS:       6216

L2C DA-AMPM prefetcher final stats
LLC TOTAL     ACCESS:   69866621  HIT:   47115279  MISS:   22751342
LLC LOAD      ACCESS:   41594822  HIT:   37279592  MISS:    4315230
LLC RFO       ACCESS:    2629374  HIT:    2619257  MISS:      10117
LLC PREFETCH  ACCESS:   21310554  HIT:    2884716  MISS:   18425838
LLC WRITEBACK ACCESS:    4331871  HIT:    4331714  MISS:        157

CPU 3 cumulative IPC: 1.10351 instructions: 3217841226 cycles: 2916017794
L1D TOTAL     ACCESS:  574910157  HIT:  573819579  MISS:    1090578
L1D LOAD      ACCESS:  445431401  HIT:  445313053  MISS:     118348
L1D RFO       ACCESS:  129478756  HIT:  128506526  MISS:     972230
L1D PREFETCH  ACCESS:          0  HIT:          0  MISS:          0
L1D WRITEBACK ACCESS:          0  HIT:          0  MISS:          0
L1I TOTAL     ACCESS:  795886720  HIT:  795886720  MISS:          0
L1I LOAD      ACCESS:  795886720  HIT:  795886720  MISS:          0
L1I RFO       ACCESS:          0  HIT:          0  MISS:          0
L1I PREFETCH  ACCESS:          0  HIT:          0  MISS:          0
L1I WRITEBACK ACCESS:          0  HIT:          0  MISS:          0
L2C TOTAL     ACCESS:    2151002  HIT:    1116896  MISS:    1034106
L2C LOAD      ACCESS:     118348  HIT:     110488  MISS:       7860
L2C RFO       ACCESS:     972230  HIT:      32453  MISS:     939777
L2C PREFETCH  ACCESS:      87917  HIT:       1463  MISS:      86454
L2C WRITEBACK ACCESS:     972507  HIT:     972492  MISS:         15

L2C DA-AMPM prefetcher final stats
LLC TOTAL     ACCESS:    1973999  HIT:     666664  MISS:    1307335
LLC LOAD      ACCESS:       7858  HIT:          2  MISS:       7856
LLC RFO       ACCESS:     939777  HIT:        234  MISS:     939543
LLC PREFETCH  ACCESS:      86456  HIT:          0  MISS:      86456
LLC WRITEBACK ACCESS:     939908  HIT:     666428  MISS:     273480

Region of Interest Statistics

CPU 0 cumulative IPC: 1.51089 instructions: 1000000001 cycles: 661860248
L1D TOTAL     ACCESS:  277482087  HIT:  277482050  MISS:         37
L1D LOAD      ACCESS:  121445326  HIT:  121445307  MISS:         19
L1D RFO       ACCESS:  156036761  HIT:  156036743  MISS:         18
L1D PREFETCH  ACCESS:          0  HIT:          0  MISS:          0
L1D WRITEBACK ACCESS:          0  HIT:          0  MISS:          0
L1D PREFETCH  REQUESTED:          0  ISSUED:          0  USEFUL:          0  USELESS:          0
L1I TOTAL     ACCESS:  219541748  HIT:  219489093  MISS:      52655
L1I LOAD      ACCESS:  219541748  HIT:  219489093  MISS:      52655
L1I RFO       ACCESS:          0  HIT:          0  MISS:          0
L1I PREFETCH  ACCESS:          0  HIT:          0  MISS:          0
L1I WRITEBACK ACCESS:          0  HIT:          0  MISS:          0
L1I PREFETCH  REQUESTED:          0  ISSUED:          0  USEFUL:          0  USELESS:          0
L2C TOTAL     ACCESS:      52756  HIT:      52653  MISS:        103
L2C LOAD      ACCESS:      52674  HIT:      52653  MISS:         21
L2C RFO       ACCESS:         18  HIT:          0  MISS:         18
L2C PREFETCH  ACCESS:         64  HIT:          0  MISS:         64
L2C WRITEBACK ACCESS:          0  HIT:          0  MISS:          0
L2C PREFETCH  REQUESTED:       1405  ISSUED:       1405  USEFUL:       1057  USELESS:          0
LLC TOTAL     ACCESS:        103  HIT:          0  MISS:        103
LLC LOAD      ACCESS:         21  HIT:          0  MISS:         21
LLC RFO       ACCESS:         18  HIT:          0  MISS:         18
LLC PREFETCH  ACCESS:         64  HIT:          0  MISS:         64
LLC WRITEBACK ACCESS:          0  HIT:          0  MISS:          0
LLC PREFETCH  REQUESTED:          0  ISSUED:          0  USEFUL:    1212866  USELESS:   20651381
Major fault: 0 Minor fault: 49

CPU 1 cumulative IPC: 1.56089 instructions: 1000000002 cycles: 640661210
L1D TOTAL     ACCESS:  268340837  HIT:  268340837  MISS:          0
L1D LOAD      ACCESS:  115793692  HIT:  115793692  MISS:          0
L1D RFO       ACCESS:  152547145  HIT:  152547145  MISS:          0
L1D PREFETCH  ACCESS:          0  HIT:          0  MISS:          0
L1D WRITEBACK ACCESS:          0  HIT:          0  MISS:          0
L1D PREFETCH  REQUESTED:          0  ISSUED:          0  USEFUL:          0  USELESS:          0
L1I TOTAL     ACCESS:  220518465  HIT:  220480795  MISS:      37670
L1I LOAD      ACCESS:  220518465  HIT:  220480795  MISS:      37670
L1I RFO       ACCESS:          0  HIT:          0  MISS:          0
L1I PREFETCH  ACCESS:          0  HIT:          0  MISS:          0
L1I WRITEBACK ACCESS:          0  HIT:          0  MISS:          0
L1I PREFETCH  REQUESTED:          0  ISSUED:          0  USEFUL:          0  USELESS:          0
L2C TOTAL     ACCESS:      37673  HIT:      37670  MISS:          3
L2C LOAD      ACCESS:      37670  HIT:      37670  MISS:          0
L2C RFO       ACCESS:          0  HIT:          0  MISS:          0
L2C PREFETCH  ACCESS:          3  HIT:          0  MISS:          3
L2C WRITEBACK ACCESS:          0  HIT:          0  MISS:          0
L2C PREFETCH  REQUESTED:       1450  ISSUED:       1450  USEFUL:       1075  USELESS:          0
LLC TOTAL     ACCESS:          3  HIT:          0  MISS:          3
LLC LOAD      ACCESS:          0  HIT:          0  MISS:          0
LLC RFO       ACCESS:          0  HIT:          0  MISS:          0
LLC PREFETCH  ACCESS:          3  HIT:          0  MISS:          3
LLC WRITEBACK ACCESS:          0  HIT:          0  MISS:          0
LLC PREFETCH  REQUESTED:          0  ISSUED:          0  USEFUL:    1212866  USELESS:   20651381
Major fault: 0 Minor fault: 50

CPU 2 cumulative IPC: 0.342933 instructions: 1000000001 cycles: 2916017793
L1D TOTAL     ACCESS:  343048248  HIT:  270756744  MISS:   72291504
L1D LOAD      ACCESS:  260308672  HIT:  191162895  MISS:   69145777
L1D RFO       ACCESS:   82739576  HIT:   79593849  MISS:    3145727
L1D PREFETCH  ACCESS:          0  HIT:          0  MISS:          0
L1D WRITEBACK ACCESS:          0  HIT:          0  MISS:          0
L1D PREFETCH  REQUESTED:          0  ISSUED:          0  USEFUL:          0  USELESS:          0
L1I TOTAL     ACCESS:  233944234  HIT:  233944232  MISS:          2
L1I LOAD      ACCESS:  233944234  HIT:  233944232  MISS:          2
L1I RFO       ACCESS:          0  HIT:          0  MISS:          0
L1I PREFETCH  ACCESS:          0  HIT:          0  MISS:          0
L1I WRITEBACK ACCESS:          0  HIT:          0  MISS:          0
L1I PREFETCH  REQUESTED:          0  ISSUED:          0  USEFUL:          0  USELESS:          0
L2C TOTAL     ACCESS:   98314752  HIT:   32773699  MISS:   65541053
L2C LOAD      ACCESS:   69145477  HIT:   26635213  MISS:   42510264
L2C RFO       ACCESS:    3145670  HIT:     516199  MISS:    2629471
L2C PREFETCH  ACCESS:   20906238  HIT:     511136  MISS:   20395102
L2C WRITEBACK ACCESS:    5117367  HIT:    5111151  MISS:       6216
L2C PREFETCH  REQUESTED:   27719529  ISSUED:   27719529  USEFUL:   21456365  USELESS:    2996231
LLC TOTAL     ACCESS:   69866621  HIT:   47115279  MISS:   22751342
LLC LOAD      ACCESS:   41594822  HIT:   37279592  MISS:    4315230
LLC RFO       ACCESS:    2629374  HIT:    2619257  MISS:      10117
LLC PREFETCH  ACCESS:   21310554  HIT:    2884716  MISS:   18425838
LLC WRITEBACK ACCESS:    4331871  HIT:    4331714  MISS:        157
LLC PREFETCH  REQUESTED:          0  ISSUED:          0  USEFUL:    1212866  USELESS:   20651381
Major fault: 0 Minor fault: 392625

CPU 3 cumulative IPC: 1.10169 instructions: 1000000001 cycles: 907698335
L1D TOTAL     ACCESS:  179127964  HIT:  178810491  MISS:     317473
L1D LOAD      ACCESS:  138610818  HIT:  138576053  MISS:      34765
L1D RFO       ACCESS:   40517146  HIT:   40234438  MISS:     282708
L1D PREFETCH  ACCESS:          0  HIT:          0  MISS:          0
L1D WRITEBACK ACCESS:          0  HIT:          0  MISS:          0
L1D PREFETCH  REQUESTED:          0  ISSUED:          0  USEFUL:          0  USELESS:          0
L1I TOTAL     ACCESS:  246913991  HIT:  246913991  MISS:          0
L1I LOAD      ACCESS:  246913991  HIT:  246913991  MISS:          0
L1I RFO       ACCESS:          0  HIT:          0  MISS:          0
L1I PREFETCH  ACCESS:          0  HIT:          0  MISS:          0
L1I WRITEBACK ACCESS:          0  HIT:          0  MISS:          0
L1I PREFETCH  REQUESTED:          0  ISSUED:          0  USEFUL:          0  USELESS:          0
L2C TOTAL     ACCESS:     625755  HIT:     326309  MISS:     299446
L2C LOAD      ACCESS:      34765  HIT:      32535  MISS:       2230
L2C RFO       ACCESS:     282708  HIT:      10555  MISS:     272153
L2C PREFETCH  ACCESS:      25487  HIT:        424  MISS:      25063
L2C WRITEBACK ACCESS:     282795  HIT:     282795  MISS:          0
L2C PREFETCH  REQUESTED:      98008  ISSUED:      98008  USEFUL:      94623  USELESS:        138
LLC TOTAL     ACCESS:     571711  HIT:     178311  MISS:     393400
LLC LOAD      ACCESS:       2230  HIT:          0  MISS:       2230
LLC RFO       ACCESS:     272153  HIT:         16  MISS:     272137
LLC PREFETCH  ACCESS:      25063  HIT:          0  MISS:      25063
LLC WRITEBACK ACCESS:     272265  HIT:     178295  MISS:      93970
LLC PREFETCH  REQUESTED:          0  ISSUED:          0  USEFUL:    1212866  USELESS:   20651381
Major fault: 0 Minor fault: 10313

L2C DA-AMPM prefetcher final stats

L2C DA-AMPM prefetcher final stats

L2C DA-AMPM prefetcher final stats

L2C DA-AMPM prefetcher final stats

DRAM Statistics
 CHANNEL 0
 RQ ROW_BUFFER_HIT:   10524012  ROW_BUFFER_MISS:    1365809
 DBUS_CONGESTED:   11404344
 WQ ROW_BUFFER_HIT:     146008  ROW_BUFFER_MISS:     424218  FULL:          0

 CHANNEL 1
 RQ ROW_BUFFER_HIT:   10521779  ROW_BUFFER_MISS:    1370774
 DBUS_CONGESTED:   11404344
 WQ ROW_BUFFER_HIT:     146214  ROW_BUFFER_MISS:     423455  FULL:          0

 AVG_CONGESTED_CYCLE: 13
