
*** ChampSim Multicore Out-of-Order Simulator ***

Warmup Instructions: 200000000
Simulation Instructions: 1000000000
Number of CPUs: 1
LLC sets: 512
LLC ways: 16
Off-chip DRAM Size: 4096 MB Channels: 1 Width: 64-bit Data Rate: 1600 MT/s

CPU 0 runs /scratch/user/djimenez/champsim-traces/speccpu2017/xz/607.cactuBSSN_s/607.cactuBSSN_s-2421B.champsimtrace.xz
L2C DA-AMPM prefetcher
Heartbeat CPU 0 instructions: 10000000 cycles: 5801955 heartbeat IPC: 1.72356 cumulative IPC: 1.72356 (Simulation time: 0 hr 0 min 25 sec) 
Heartbeat CPU 0 instructions: 20000000 cycles: 11602870 heartbeat IPC: 1.72387 cumulative IPC: 1.72371 (Simulation time: 0 hr 0 min 50 sec) 
Heartbeat CPU 0 instructions: 30000001 cycles: 17405511 heartbeat IPC: 1.72335 cumulative IPC: 1.72359 (Simulation time: 0 hr 1 min 15 sec) 
Heartbeat CPU 0 instructions: 40000000 cycles: 23208358 heartbeat IPC: 1.72329 cumulative IPC: 1.72352 (Simulation time: 0 hr 1 min 41 sec) 
Heartbeat CPU 0 instructions: 50000003 cycles: 29010548 heartbeat IPC: 1.72349 cumulative IPC: 1.72351 (Simulation time: 0 hr 2 min 6 sec) 
Heartbeat CPU 0 instructions: 60000000 cycles: 33715781 heartbeat IPC: 2.12529 cumulative IPC: 1.77958 (Simulation time: 0 hr 2 min 29 sec) 
Heartbeat CPU 0 instructions: 70000000 cycles: 38146344 heartbeat IPC: 2.25705 cumulative IPC: 1.83504 (Simulation time: 0 hr 2 min 52 sec) 
Heartbeat CPU 0 instructions: 80000000 cycles: 42576024 heartbeat IPC: 2.2575 cumulative IPC: 1.87899 (Simulation time: 0 hr 3 min 14 sec) 
Heartbeat CPU 0 instructions: 90000002 cycles: 47006018 heartbeat IPC: 2.25734 cumulative IPC: 1.91465 (Simulation time: 0 hr 3 min 37 sec) 
Heartbeat CPU 0 instructions: 100000000 cycles: 51436215 heartbeat IPC: 2.25724 cumulative IPC: 1.94416 (Simulation time: 0 hr 3 min 59 sec) 
Heartbeat CPU 0 instructions: 110000003 cycles: 55866700 heartbeat IPC: 2.25709 cumulative IPC: 1.96897 (Simulation time: 0 hr 4 min 22 sec) 
Heartbeat CPU 0 instructions: 120000000 cycles: 60296981 heartbeat IPC: 2.25719 cumulative IPC: 1.99015 (Simulation time: 0 hr 4 min 44 sec) 
Heartbeat CPU 0 instructions: 130000000 cycles: 64727065 heartbeat IPC: 2.25729 cumulative IPC: 2.00843 (Simulation time: 0 hr 5 min 7 sec) 
Heartbeat CPU 0 instructions: 140000000 cycles: 69157357 heartbeat IPC: 2.25719 cumulative IPC: 2.02437 (Simulation time: 0 hr 5 min 29 sec) 
Heartbeat CPU 0 instructions: 150000000 cycles: 73588382 heartbeat IPC: 2.25681 cumulative IPC: 2.03837 (Simulation time: 0 hr 5 min 52 sec) 
Heartbeat CPU 0 instructions: 160000000 cycles: 78019152 heartbeat IPC: 2.25694 cumulative IPC: 2.05078 (Simulation time: 0 hr 6 min 14 sec) 
Heartbeat CPU 0 instructions: 170000000 cycles: 82449645 heartbeat IPC: 2.25709 cumulative IPC: 2.06186 (Simulation time: 0 hr 6 min 37 sec) 
Heartbeat CPU 0 instructions: 180000000 cycles: 86880003 heartbeat IPC: 2.25715 cumulative IPC: 2.07182 (Simulation time: 0 hr 6 min 59 sec) 
Heartbeat CPU 0 instructions: 190000002 cycles: 91310152 heartbeat IPC: 2.25726 cumulative IPC: 2.08082 (Simulation time: 0 hr 7 min 22 sec) 
Heartbeat CPU 0 instructions: 200000000 cycles: 95740202 heartbeat IPC: 2.25731 cumulative IPC: 2.08899 (Simulation time: 0 hr 7 min 44 sec) 

Warmup complete CPU 0 instructions: 200000003 cycles: 95740203 (Simulation time: 0 hr 7 min 44 sec) 

Heartbeat CPU 0 instructions: 210000000 cycles: 106308407 heartbeat IPC: 0.946234 cumulative IPC: 0.946234 (Simulation time: 0 hr 8 min 13 sec) 
Heartbeat CPU 0 instructions: 220000000 cycles: 116906940 heartbeat IPC: 0.943527 cumulative IPC: 0.944879 (Simulation time: 0 hr 8 min 42 sec) 
Heartbeat CPU 0 instructions: 230000000 cycles: 127513508 heartbeat IPC: 0.942812 cumulative IPC: 0.944189 (Simulation time: 0 hr 9 min 10 sec) 
Heartbeat CPU 0 instructions: 240000000 cycles: 138134305 heartbeat IPC: 0.941549 cumulative IPC: 0.943527 (Simulation time: 0 hr 9 min 39 sec) 
Heartbeat CPU 0 instructions: 250000003 cycles: 148702677 heartbeat IPC: 0.94622 cumulative IPC: 0.944065 (Simulation time: 0 hr 10 min 8 sec) 
Heartbeat CPU 0 instructions: 260000000 cycles: 159310687 heartbeat IPC: 0.942684 cumulative IPC: 0.943834 (Simulation time: 0 hr 10 min 37 sec) 
Heartbeat CPU 0 instructions: 270000000 cycles: 169901787 heartbeat IPC: 0.944189 cumulative IPC: 0.943885 (Simulation time: 0 hr 11 min 5 sec) 
Heartbeat CPU 0 instructions: 280000000 cycles: 180446842 heartbeat IPC: 0.948312 cumulative IPC: 0.944436 (Simulation time: 0 hr 11 min 34 sec) 
Heartbeat CPU 0 instructions: 290000000 cycles: 191034067 heartbeat IPC: 0.944535 cumulative IPC: 0.944447 (Simulation time: 0 hr 12 min 3 sec) 
Heartbeat CPU 0 instructions: 300000000 cycles: 201588111 heartbeat IPC: 0.947504 cumulative IPC: 0.944752 (Simulation time: 0 hr 12 min 32 sec) 
Heartbeat CPU 0 instructions: 310000001 cycles: 212124855 heartbeat IPC: 0.94906 cumulative IPC: 0.945142 (Simulation time: 0 hr 13 min 0 sec) 
Heartbeat CPU 0 instructions: 320000000 cycles: 222666288 heartbeat IPC: 0.948638 cumulative IPC: 0.945432 (Simulation time: 0 hr 13 min 29 sec) 
Heartbeat CPU 0 instructions: 330000001 cycles: 233227695 heartbeat IPC: 0.946844 cumulative IPC: 0.945541 (Simulation time: 0 hr 13 min 58 sec) 
Heartbeat CPU 0 instructions: 340000000 cycles: 243874307 heartbeat IPC: 0.939266 cumulative IPC: 0.94509 (Simulation time: 0 hr 14 min 27 sec) 
Heartbeat CPU 0 instructions: 350000002 cycles: 254427559 heartbeat IPC: 0.947575 cumulative IPC: 0.945255 (Simulation time: 0 hr 14 min 55 sec) 
Heartbeat CPU 0 instructions: 360000000 cycles: 264978541 heartbeat IPC: 0.947779 cumulative IPC: 0.945412 (Simulation time: 0 hr 15 min 24 sec) 
Heartbeat CPU 0 instructions: 370000002 cycles: 275562784 heartbeat IPC: 0.944801 cumulative IPC: 0.945376 (Simulation time: 0 hr 15 min 53 sec) 
Heartbeat CPU 0 instructions: 380000000 cycles: 286108304 heartbeat IPC: 0.94827 cumulative IPC: 0.945537 (Simulation time: 0 hr 16 min 22 sec) 
Heartbeat CPU 0 instructions: 390000002 cycles: 296677409 heartbeat IPC: 0.946154 cumulative IPC: 0.945569 (Simulation time: 0 hr 16 min 51 sec) 
Heartbeat CPU 0 instructions: 400000000 cycles: 307189473 heartbeat IPC: 0.951288 cumulative IPC: 0.945853 (Simulation time: 0 hr 17 min 19 sec) 
Heartbeat CPU 0 instructions: 410000002 cycles: 317725003 heartbeat IPC: 0.949169 cumulative IPC: 0.946011 (Simulation time: 0 hr 17 min 48 sec) 
Heartbeat CPU 0 instructions: 420000000 cycles: 328325513 heartbeat IPC: 0.943351 cumulative IPC: 0.945889 (Simulation time: 0 hr 18 min 17 sec) 
Heartbeat CPU 0 instructions: 430000001 cycles: 338886831 heartbeat IPC: 0.946852 cumulative IPC: 0.945931 (Simulation time: 0 hr 18 min 46 sec) 
Heartbeat CPU 0 instructions: 440000000 cycles: 349442939 heartbeat IPC: 0.947319 cumulative IPC: 0.945989 (Simulation time: 0 hr 19 min 15 sec) 
Heartbeat CPU 0 instructions: 450000000 cycles: 359968196 heartbeat IPC: 0.950096 cumulative IPC: 0.946153 (Simulation time: 0 hr 19 min 44 sec) 
Heartbeat CPU 0 instructions: 460000000 cycles: 370487583 heartbeat IPC: 0.950626 cumulative IPC: 0.946324 (Simulation time: 0 hr 20 min 12 sec) 
Heartbeat CPU 0 instructions: 470000001 cycles: 381093557 heartbeat IPC: 0.942865 cumulative IPC: 0.946195 (Simulation time: 0 hr 20 min 41 sec) 
Heartbeat CPU 0 instructions: 480000000 cycles: 391633151 heartbeat IPC: 0.948803 cumulative IPC: 0.946288 (Simulation time: 0 hr 21 min 10 sec) 
Heartbeat CPU 0 instructions: 490000002 cycles: 402193527 heartbeat IPC: 0.946936 cumulative IPC: 0.946311 (Simulation time: 0 hr 21 min 39 sec) 
Heartbeat CPU 0 instructions: 500000000 cycles: 412812468 heartbeat IPC: 0.941713 cumulative IPC: 0.946157 (Simulation time: 0 hr 22 min 8 sec) 
Heartbeat CPU 0 instructions: 510000001 cycles: 423397848 heartbeat IPC: 0.944699 cumulative IPC: 0.946109 (Simulation time: 0 hr 22 min 37 sec) 
Heartbeat CPU 0 instructions: 520000000 cycles: 434006013 heartbeat IPC: 0.94267 cumulative IPC: 0.946002 (Simulation time: 0 hr 23 min 5 sec) 
Heartbeat CPU 0 instructions: 530000000 cycles: 444584286 heartbeat IPC: 0.945334 cumulative IPC: 0.945981 (Simulation time: 0 hr 23 min 34 sec) 
Heartbeat CPU 0 instructions: 540000000 cycles: 455168454 heartbeat IPC: 0.944807 cumulative IPC: 0.945947 (Simulation time: 0 hr 24 min 3 sec) 
Heartbeat CPU 0 instructions: 550000001 cycles: 465764609 heartbeat IPC: 0.943739 cumulative IPC: 0.945884 (Simulation time: 0 hr 24 min 32 sec) 
Heartbeat CPU 0 instructions: 560000000 cycles: 476316476 heartbeat IPC: 0.947699 cumulative IPC: 0.945934 (Simulation time: 0 hr 25 min 1 sec) 
Heartbeat CPU 0 instructions: 570000001 cycles: 486878795 heartbeat IPC: 0.946762 cumulative IPC: 0.945956 (Simulation time: 0 hr 25 min 30 sec) 
Heartbeat CPU 0 instructions: 580000000 cycles: 497506536 heartbeat IPC: 0.940934 cumulative IPC: 0.945823 (Simulation time: 0 hr 25 min 59 sec) 
Heartbeat CPU 0 instructions: 590000001 cycles: 508091414 heartbeat IPC: 0.944744 cumulative IPC: 0.945796 (Simulation time: 0 hr 26 min 27 sec) 
Heartbeat CPU 0 instructions: 600000000 cycles: 518608356 heartbeat IPC: 0.950847 cumulative IPC: 0.945921 (Simulation time: 0 hr 26 min 56 sec) 
Heartbeat CPU 0 instructions: 610000002 cycles: 529115456 heartbeat IPC: 0.951738 cumulative IPC: 0.946062 (Simulation time: 0 hr 27 min 25 sec) 
Heartbeat CPU 0 instructions: 620000000 cycles: 539757429 heartbeat IPC: 0.939675 cumulative IPC: 0.945909 (Simulation time: 0 hr 27 min 54 sec) 
Heartbeat CPU 0 instructions: 630000000 cycles: 550311631 heartbeat IPC: 0.94749 cumulative IPC: 0.945946 (Simulation time: 0 hr 28 min 23 sec) 
Heartbeat CPU 0 instructions: 640000000 cycles: 560936808 heartbeat IPC: 0.941161 cumulative IPC: 0.945837 (Simulation time: 0 hr 28 min 52 sec) 
Heartbeat CPU 0 instructions: 650000002 cycles: 571601146 heartbeat IPC: 0.937705 cumulative IPC: 0.945654 (Simulation time: 0 hr 29 min 20 sec) 
Heartbeat CPU 0 instructions: 660000000 cycles: 582180118 heartbeat IPC: 0.945271 cumulative IPC: 0.945646 (Simulation time: 0 hr 29 min 49 sec) 
Heartbeat CPU 0 instructions: 670000002 cycles: 592750573 heartbeat IPC: 0.946033 cumulative IPC: 0.945654 (Simulation time: 0 hr 30 min 18 sec) 
Heartbeat CPU 0 instructions: 680000000 cycles: 603240700 heartbeat IPC: 0.953277 cumulative IPC: 0.945812 (Simulation time: 0 hr 30 min 47 sec) 
Heartbeat CPU 0 instructions: 690000001 cycles: 613878203 heartbeat IPC: 0.94007 cumulative IPC: 0.945694 (Simulation time: 0 hr 31 min 16 sec) 
Heartbeat CPU 0 instructions: 700000000 cycles: 624430485 heartbeat IPC: 0.947662 cumulative IPC: 0.945733 (Simulation time: 0 hr 31 min 44 sec) 
Heartbeat CPU 0 instructions: 710000000 cycles: 634953819 heartbeat IPC: 0.950269 cumulative IPC: 0.945822 (Simulation time: 0 hr 32 min 13 sec) 
Heartbeat CPU 0 instructions: 720000000 cycles: 645454428 heartbeat IPC: 0.952326 cumulative IPC: 0.945946 (Simulation time: 0 hr 32 min 42 sec) 
Heartbeat CPU 0 instructions: 730000003 cycles: 656029970 heartbeat IPC: 0.945578 cumulative IPC: 0.945939 (Simulation time: 0 hr 33 min 11 sec) 
Heartbeat CPU 0 instructions: 740000000 cycles: 666636777 heartbeat IPC: 0.942791 cumulative IPC: 0.945881 (Simulation time: 0 hr 33 min 39 sec) 
Heartbeat CPU 0 instructions: 750000001 cycles: 677213734 heartbeat IPC: 0.945452 cumulative IPC: 0.945873 (Simulation time: 0 hr 34 min 8 sec) 
Heartbeat CPU 0 instructions: 760000000 cycles: 687801868 heartbeat IPC: 0.944453 cumulative IPC: 0.945847 (Simulation time: 0 hr 34 min 37 sec) 
Heartbeat CPU 0 instructions: 770000002 cycles: 698419521 heartbeat IPC: 0.941828 cumulative IPC: 0.945777 (Simulation time: 0 hr 35 min 6 sec) 
Heartbeat CPU 0 instructions: 780000000 cycles: 709045947 heartbeat IPC: 0.94105 cumulative IPC: 0.945695 (Simulation time: 0 hr 35 min 35 sec) 
Heartbeat CPU 0 instructions: 790000001 cycles: 719627133 heartbeat IPC: 0.945074 cumulative IPC: 0.945684 (Simulation time: 0 hr 36 min 3 sec) 
Heartbeat CPU 0 instructions: 800000000 cycles: 730111908 heartbeat IPC: 0.953764 cumulative IPC: 0.945818 (Simulation time: 0 hr 36 min 32 sec) 
Heartbeat CPU 0 instructions: 810000000 cycles: 740737560 heartbeat IPC: 0.941119 cumulative IPC: 0.94574 (Simulation time: 0 hr 37 min 1 sec) 
Heartbeat CPU 0 instructions: 820000000 cycles: 751245988 heartbeat IPC: 0.951617 cumulative IPC: 0.945835 (Simulation time: 0 hr 37 min 30 sec) 
Heartbeat CPU 0 instructions: 830000002 cycles: 761937435 heartbeat IPC: 0.935327 cumulative IPC: 0.945666 (Simulation time: 0 hr 37 min 58 sec) 
Heartbeat CPU 0 instructions: 840000000 cycles: 772582257 heartbeat IPC: 0.939424 cumulative IPC: 0.945568 (Simulation time: 0 hr 38 min 27 sec) 
Heartbeat CPU 0 instructions: 850000000 cycles: 783209473 heartbeat IPC: 0.94098 cumulative IPC: 0.945497 (Simulation time: 0 hr 38 min 56 sec) 
Heartbeat CPU 0 instructions: 860000000 cycles: 793762667 heartbeat IPC: 0.94758 cumulative IPC: 0.945528 (Simulation time: 0 hr 39 min 25 sec) 
Heartbeat CPU 0 instructions: 870000003 cycles: 804358621 heartbeat IPC: 0.943757 cumulative IPC: 0.945502 (Simulation time: 0 hr 39 min 53 sec) 
Heartbeat CPU 0 instructions: 880000000 cycles: 814931788 heartbeat IPC: 0.94579 cumulative IPC: 0.945506 (Simulation time: 0 hr 40 min 22 sec) 
Heartbeat CPU 0 instructions: 890000002 cycles: 825529880 heartbeat IPC: 0.943566 cumulative IPC: 0.945478 (Simulation time: 0 hr 40 min 51 sec) 
Heartbeat CPU 0 instructions: 900000000 cycles: 835992643 heartbeat IPC: 0.95577 cumulative IPC: 0.945623 (Simulation time: 0 hr 41 min 19 sec) 
Heartbeat CPU 0 instructions: 910000000 cycles: 846575169 heartbeat IPC: 0.944954 cumulative IPC: 0.945614 (Simulation time: 0 hr 41 min 48 sec) 
Heartbeat CPU 0 instructions: 920000000 cycles: 857180531 heartbeat IPC: 0.942919 cumulative IPC: 0.945576 (Simulation time: 0 hr 42 min 17 sec) 
Heartbeat CPU 0 instructions: 930000002 cycles: 867837835 heartbeat IPC: 0.938324 cumulative IPC: 0.945476 (Simulation time: 0 hr 42 min 46 sec) 
Heartbeat CPU 0 instructions: 940000000 cycles: 878493866 heartbeat IPC: 0.938435 cumulative IPC: 0.94538 (Simulation time: 0 hr 43 min 15 sec) 
Heartbeat CPU 0 instructions: 950000001 cycles: 889069915 heartbeat IPC: 0.945533 cumulative IPC: 0.945382 (Simulation time: 0 hr 43 min 43 sec) 
Heartbeat CPU 0 instructions: 960000000 cycles: 899669260 heartbeat IPC: 0.943454 cumulative IPC: 0.945357 (Simulation time: 0 hr 44 min 12 sec) 
Heartbeat CPU 0 instructions: 970000001 cycles: 910264286 heartbeat IPC: 0.943839 cumulative IPC: 0.945337 (Simulation time: 0 hr 44 min 41 sec) 
Heartbeat CPU 0 instructions: 980000000 cycles: 920818562 heartbeat IPC: 0.947483 cumulative IPC: 0.945365 (Simulation time: 0 hr 45 min 10 sec) 
Heartbeat CPU 0 instructions: 990000000 cycles: 931415354 heartbeat IPC: 0.943682 cumulative IPC: 0.945343 (Simulation time: 0 hr 45 min 38 sec) 
Heartbeat CPU 0 instructions: 1000000000 cycles: 941951062 heartbeat IPC: 0.949153 cumulative IPC: 0.945391 (Simulation time: 0 hr 46 min 7 sec) 
Heartbeat CPU 0 instructions: 1010000000 cycles: 952562685 heartbeat IPC: 0.942363 cumulative IPC: 0.945353 (Simulation time: 0 hr 46 min 36 sec) 
Heartbeat CPU 0 instructions: 1020000000 cycles: 963122146 heartbeat IPC: 0.947018 cumulative IPC: 0.945374 (Simulation time: 0 hr 47 min 5 sec) 
Heartbeat CPU 0 instructions: 1030000002 cycles: 973587147 heartbeat IPC: 0.955566 cumulative IPC: 0.945495 (Simulation time: 0 hr 47 min 33 sec) 
Heartbeat CPU 0 instructions: 1040000000 cycles: 984178989 heartbeat IPC: 0.944123 cumulative IPC: 0.945479 (Simulation time: 0 hr 48 min 2 sec) 
Heartbeat CPU 0 instructions: 1050000000 cycles: 994752588 heartbeat IPC: 0.945752 cumulative IPC: 0.945482 (Simulation time: 0 hr 48 min 31 sec) 
Heartbeat CPU 0 instructions: 1060000000 cycles: 1005316977 heartbeat IPC: 0.946576 cumulative IPC: 0.945495 (Simulation time: 0 hr 48 min 59 sec) 
Heartbeat CPU 0 instructions: 1070000000 cycles: 1015854843 heartbeat IPC: 0.948959 cumulative IPC: 0.945534 (Simulation time: 0 hr 49 min 28 sec) 
Heartbeat CPU 0 instructions: 1080000000 cycles: 1026466859 heartbeat IPC: 0.942328 cumulative IPC: 0.945498 (Simulation time: 0 hr 49 min 57 sec) 
Heartbeat CPU 0 instructions: 1090000000 cycles: 1037060385 heartbeat IPC: 0.943973 cumulative IPC: 0.945481 (Simulation time: 0 hr 50 min 26 sec) 
Heartbeat CPU 0 instructions: 1100000000 cycles: 1047573976 heartbeat IPC: 0.95115 cumulative IPC: 0.945543 (Simulation time: 0 hr 50 min 54 sec) 
Heartbeat CPU 0 instructions: 1110000000 cycles: 1058126219 heartbeat IPC: 0.947666 cumulative IPC: 0.945567 (Simulation time: 0 hr 51 min 23 sec) 
Heartbeat CPU 0 instructions: 1120000000 cycles: 1068605602 heartbeat IPC: 0.954255 cumulative IPC: 0.94566 (Simulation time: 0 hr 51 min 52 sec) 
Heartbeat CPU 0 instructions: 1130000001 cycles: 1079128840 heartbeat IPC: 0.950278 cumulative IPC: 0.94571 (Simulation time: 0 hr 52 min 21 sec) 
Heartbeat CPU 0 instructions: 1140000000 cycles: 1089654599 heartbeat IPC: 0.95005 cumulative IPC: 0.945755 (Simulation time: 0 hr 52 min 49 sec) 
Heartbeat CPU 0 instructions: 1150000001 cycles: 1100211060 heartbeat IPC: 0.947287 cumulative IPC: 0.945772 (Simulation time: 0 hr 53 min 18 sec) 
Heartbeat CPU 0 instructions: 1160000000 cycles: 1110798744 heartbeat IPC: 0.944494 cumulative IPC: 0.945758 (Simulation time: 0 hr 53 min 47 sec) 
Heartbeat CPU 0 instructions: 1170000001 cycles: 1121383232 heartbeat IPC: 0.944779 cumulative IPC: 0.945748 (Simulation time: 0 hr 54 min 16 sec) 
Heartbeat CPU 0 instructions: 1180000000 cycles: 1131915674 heartbeat IPC: 0.949447 cumulative IPC: 0.945786 (Simulation time: 0 hr 54 min 45 sec) 
Heartbeat CPU 0 instructions: 1190000003 cycles: 1142536410 heartbeat IPC: 0.941555 cumulative IPC: 0.945743 (Simulation time: 0 hr 55 min 13 sec) 
Heartbeat CPU 0 instructions: 1200000000 cycles: 1153137070 heartbeat IPC: 0.943337 cumulative IPC: 0.945719 (Simulation time: 0 hr 55 min 42 sec) 
Finished CPU 0 instructions: 1000000001 cycles: 1057396896 cumulative IPC: 0.945719 (Simulation time: 0 hr 55 min 42 sec) 

CPU 0 Branch Prediction Accuracy: 99.8491% MPKI: 0.001789

ChampSim completed all CPUs

Region of Interest Statistics

CPU 0 cumulative IPC: 0.945719 instructions: 1000000001 cycles: 1057396896
L1D TOTAL     ACCESS:  290659497  HIT:  174972915  MISS:  115686582
L1D LOAD      ACCESS:  177588075  HIT:   70071245  MISS:  107516830
L1D RFO       ACCESS:  113071422  HIT:  104901670  MISS:    8169752
L1D PREFETCH  ACCESS:          0  HIT:          0  MISS:          0
L1D WRITEBACK ACCESS:          0  HIT:          0  MISS:          0
L1D PREFETCH  REQUESTED:          0  ISSUED:          0  USEFUL:          0  USELESS:          0
L1I TOTAL     ACCESS:  252602953  HIT:  252602953  MISS:          0
L1I LOAD      ACCESS:  252602953  HIT:  252602953  MISS:          0
L1I RFO       ACCESS:          0  HIT:          0  MISS:          0
L1I PREFETCH  ACCESS:          0  HIT:          0  MISS:          0
L1I WRITEBACK ACCESS:          0  HIT:          0  MISS:          0
L1I PREFETCH  REQUESTED:          0  ISSUED:          0  USEFUL:          0  USELESS:          0
L2C TOTAL     ACCESS:  133814850  HIT:   94599178  MISS:   39215672
L2C LOAD      ACCESS:  107003377  HIT:   82802894  MISS:   24200483
L2C RFO       ACCESS:    8163828  HIT:    2334065  MISS:    5829763
L2C PREFETCH  ACCESS:    9409921  HIT:     246509  MISS:    9163412
L2C WRITEBACK ACCESS:    9237724  HIT:    9215710  MISS:      22014
L2C PREFETCH  REQUESTED:   12354695  ISSUED:   10965265  USEFUL:    3803430  USELESS:    6870641
LLC TOTAL     ACCESS:   44221266  HIT:   32104810  MISS:   12116456
LLC LOAD      ACCESS:   24198952  HIT:   20048998  MISS:    4149954
LLC RFO       ACCESS:    4804042  HIT:    4803854  MISS:        188
LLC PREFETCH  ACCESS:    9163412  HIT:    1226692  MISS:    7936720
LLC WRITEBACK ACCESS:    6054860  HIT:    6025266  MISS:      29594
LLC PREFETCH  REQUESTED:          0  ISSUED:          0  USEFUL:    5220547  USELESS:    4036048
Major fault: 0 Minor fault: 46276

L2C DA-AMPM prefetcher final stats

DRAM Statistics
 CHANNEL 0
 RQ ROW_BUFFER_HIT:   10018893  ROW_BUFFER_MISS:    2067823
 DBUS_CONGESTED:    8644732
 WQ ROW_BUFFER_HIT:     674095  ROW_BUFFER_MISS:     311611  FULL:          0

 AVG_CONGESTED_CYCLE: 13
