
*** ChampSim Multicore Out-of-Order Simulator ***

Warmup Instructions: 200000000
Simulation Instructions: 1000000000
Number of CPUs: 1
LLC sets: 512
LLC ways: 16
Off-chip DRAM Size: 4096 MB Channels: 1 Width: 64-bit Data Rate: 1600 MT/s

CPU 0 runs /scratch/user/djimenez/champsim-traces/speccpu2017/xz/623.xalancbmk_s/623.xalancbmk_s-700B.champsimtrace.xz
L2C DA-AMPM prefetcher
Heartbeat CPU 0 instructions: 10000001 cycles: 5958253 heartbeat IPC: 1.67834 cumulative IPC: 1.67834 (Simulation time: 0 hr 0 min 19 sec) 
Heartbeat CPU 0 instructions: 20000000 cycles: 10824951 heartbeat IPC: 2.05478 cumulative IPC: 1.84758 (Simulation time: 0 hr 0 min 38 sec) 
Heartbeat CPU 0 instructions: 30000001 cycles: 16885125 heartbeat IPC: 1.65012 cumulative IPC: 1.77671 (Simulation time: 0 hr 0 min 59 sec) 
Heartbeat CPU 0 instructions: 40000000 cycles: 23165865 heartbeat IPC: 1.59217 cumulative IPC: 1.72668 (Simulation time: 0 hr 1 min 20 sec) 
Heartbeat CPU 0 instructions: 50000001 cycles: 29314996 heartbeat IPC: 1.62625 cumulative IPC: 1.70561 (Simulation time: 0 hr 1 min 40 sec) 
Heartbeat CPU 0 instructions: 60000000 cycles: 34430778 heartbeat IPC: 1.95474 cumulative IPC: 1.74263 (Simulation time: 0 hr 1 min 57 sec) 
Heartbeat CPU 0 instructions: 70000001 cycles: 39364015 heartbeat IPC: 2.02707 cumulative IPC: 1.77827 (Simulation time: 0 hr 2 min 15 sec) 
Heartbeat CPU 0 instructions: 80000000 cycles: 45525353 heartbeat IPC: 1.62302 cumulative IPC: 1.75726 (Simulation time: 0 hr 2 min 37 sec) 
Heartbeat CPU 0 instructions: 90000001 cycles: 51390666 heartbeat IPC: 1.70494 cumulative IPC: 1.75129 (Simulation time: 0 hr 2 min 58 sec) 
Heartbeat CPU 0 instructions: 100000000 cycles: 57661066 heartbeat IPC: 1.59479 cumulative IPC: 1.73427 (Simulation time: 0 hr 3 min 19 sec) 
Heartbeat CPU 0 instructions: 110000002 cycles: 63995950 heartbeat IPC: 1.57856 cumulative IPC: 1.71886 (Simulation time: 0 hr 3 min 41 sec) 
Heartbeat CPU 0 instructions: 120000000 cycles: 70158206 heartbeat IPC: 1.62278 cumulative IPC: 1.71042 (Simulation time: 0 hr 4 min 1 sec) 
Heartbeat CPU 0 instructions: 130000001 cycles: 75423979 heartbeat IPC: 1.89906 cumulative IPC: 1.72359 (Simulation time: 0 hr 4 min 18 sec) 
Heartbeat CPU 0 instructions: 140000000 cycles: 80357182 heartbeat IPC: 2.02708 cumulative IPC: 1.74222 (Simulation time: 0 hr 4 min 37 sec) 
Heartbeat CPU 0 instructions: 150000002 cycles: 86700872 heartbeat IPC: 1.57637 cumulative IPC: 1.73009 (Simulation time: 0 hr 4 min 59 sec) 
Heartbeat CPU 0 instructions: 160000000 cycles: 92193100 heartbeat IPC: 1.82075 cumulative IPC: 1.73549 (Simulation time: 0 hr 5 min 19 sec) 
Heartbeat CPU 0 instructions: 170000000 cycles: 98307412 heartbeat IPC: 1.63551 cumulative IPC: 1.72927 (Simulation time: 0 hr 5 min 40 sec) 
Heartbeat CPU 0 instructions: 180000000 cycles: 104708915 heartbeat IPC: 1.56213 cumulative IPC: 1.71905 (Simulation time: 0 hr 6 min 2 sec) 
Heartbeat CPU 0 instructions: 190000001 cycles: 110905401 heartbeat IPC: 1.61382 cumulative IPC: 1.71317 (Simulation time: 0 hr 6 min 22 sec) 
Heartbeat CPU 0 instructions: 200000000 cycles: 116577097 heartbeat IPC: 1.76314 cumulative IPC: 1.7156 (Simulation time: 0 hr 6 min 40 sec) 

Warmup complete CPU 0 instructions: 200000001 cycles: 116577099 (Simulation time: 0 hr 6 min 40 sec) 

Heartbeat CPU 0 instructions: 210000000 cycles: 136437523 heartbeat IPC: 0.503514 cumulative IPC: 0.503514 (Simulation time: 0 hr 7 min 11 sec) 
Heartbeat CPU 0 instructions: 220000000 cycles: 167078606 heartbeat IPC: 0.326359 cumulative IPC: 0.396028 (Simulation time: 0 hr 7 min 49 sec) 
Heartbeat CPU 0 instructions: 230000000 cycles: 197009935 heartbeat IPC: 0.334098 cumulative IPC: 0.372982 (Simulation time: 0 hr 8 min 28 sec) 
Heartbeat CPU 0 instructions: 240000000 cycles: 224585393 heartbeat IPC: 0.362641 cumulative IPC: 0.370342 (Simulation time: 0 hr 9 min 5 sec) 
Heartbeat CPU 0 instructions: 250000001 cycles: 250619704 heartbeat IPC: 0.384109 cumulative IPC: 0.373016 (Simulation time: 0 hr 9 min 42 sec) 
Heartbeat CPU 0 instructions: 260000000 cycles: 274676572 heartbeat IPC: 0.415682 cumulative IPC: 0.379508 (Simulation time: 0 hr 10 min 17 sec) 
Heartbeat CPU 0 instructions: 270000000 cycles: 291355839 heartbeat IPC: 0.599547 cumulative IPC: 0.400506 (Simulation time: 0 hr 10 min 47 sec) 
Heartbeat CPU 0 instructions: 280000000 cycles: 309518255 heartbeat IPC: 0.550588 cumulative IPC: 0.414634 (Simulation time: 0 hr 11 min 17 sec) 
Heartbeat CPU 0 instructions: 290000000 cycles: 331644241 heartbeat IPC: 0.451957 cumulative IPC: 0.418474 (Simulation time: 0 hr 11 min 48 sec) 
Heartbeat CPU 0 instructions: 300000000 cycles: 364527297 heartbeat IPC: 0.304108 cumulative IPC: 0.403307 (Simulation time: 0 hr 12 min 26 sec) 
Heartbeat CPU 0 instructions: 310000001 cycles: 393729801 heartbeat IPC: 0.342436 cumulative IPC: 0.396893 (Simulation time: 0 hr 13 min 4 sec) 
Heartbeat CPU 0 instructions: 320000000 cycles: 423358581 heartbeat IPC: 0.33751 cumulative IPC: 0.391158 (Simulation time: 0 hr 13 min 42 sec) 
Heartbeat CPU 0 instructions: 330000000 cycles: 453734340 heartbeat IPC: 0.32921 cumulative IPC: 0.385577 (Simulation time: 0 hr 14 min 21 sec) 
Heartbeat CPU 0 instructions: 340000000 cycles: 481591164 heartbeat IPC: 0.358978 cumulative IPC: 0.383547 (Simulation time: 0 hr 14 min 59 sec) 
Heartbeat CPU 0 instructions: 350000000 cycles: 507820136 heartbeat IPC: 0.381258 cumulative IPC: 0.383393 (Simulation time: 0 hr 15 min 36 sec) 
Heartbeat CPU 0 instructions: 360000000 cycles: 532954674 heartbeat IPC: 0.397859 cumulative IPC: 0.384267 (Simulation time: 0 hr 16 min 12 sec) 
Heartbeat CPU 0 instructions: 370000000 cycles: 557251483 heartbeat IPC: 0.411577 cumulative IPC: 0.385772 (Simulation time: 0 hr 16 min 47 sec) 
Heartbeat CPU 0 instructions: 380000000 cycles: 573925568 heartbeat IPC: 0.599733 cumulative IPC: 0.393573 (Simulation time: 0 hr 17 min 17 sec) 
Heartbeat CPU 0 instructions: 390000000 cycles: 590087116 heartbeat IPC: 0.618753 cumulative IPC: 0.401259 (Simulation time: 0 hr 17 min 46 sec) 
Heartbeat CPU 0 instructions: 400000000 cycles: 607827957 heartbeat IPC: 0.563671 cumulative IPC: 0.407124 (Simulation time: 0 hr 18 min 16 sec) 
Heartbeat CPU 0 instructions: 410000001 cycles: 628237281 heartbeat IPC: 0.489972 cumulative IPC: 0.410429 (Simulation time: 0 hr 18 min 47 sec) 
Heartbeat CPU 0 instructions: 420000000 cycles: 656301071 heartbeat IPC: 0.356331 cumulative IPC: 0.407616 (Simulation time: 0 hr 19 min 19 sec) 
Heartbeat CPU 0 instructions: 430000002 cycles: 687852259 heartbeat IPC: 0.316945 cumulative IPC: 0.402608 (Simulation time: 0 hr 19 min 59 sec) 
Heartbeat CPU 0 instructions: 440000000 cycles: 716095942 heartbeat IPC: 0.354061 cumulative IPC: 0.400321 (Simulation time: 0 hr 20 min 37 sec) 
Heartbeat CPU 0 instructions: 450000000 cycles: 741051150 heartbeat IPC: 0.400718 cumulative IPC: 0.400337 (Simulation time: 0 hr 21 min 12 sec) 
Heartbeat CPU 0 instructions: 460000000 cycles: 760031468 heartbeat IPC: 0.526862 cumulative IPC: 0.404069 (Simulation time: 0 hr 21 min 43 sec) 
Heartbeat CPU 0 instructions: 470000000 cycles: 788940213 heartbeat IPC: 0.345916 cumulative IPC: 0.401569 (Simulation time: 0 hr 22 min 18 sec) 
Heartbeat CPU 0 instructions: 480000000 cycles: 819103748 heartbeat IPC: 0.331526 cumulative IPC: 0.398561 (Simulation time: 0 hr 22 min 57 sec) 
Heartbeat CPU 0 instructions: 490000001 cycles: 844314293 heartbeat IPC: 0.396659 cumulative IPC: 0.398495 (Simulation time: 0 hr 23 min 32 sec) 
Heartbeat CPU 0 instructions: 500000000 cycles: 871788720 heartbeat IPC: 0.363975 cumulative IPC: 0.39724 (Simulation time: 0 hr 24 min 8 sec) 
Heartbeat CPU 0 instructions: 510000001 cycles: 903554961 heartbeat IPC: 0.3148 cumulative IPC: 0.393912 (Simulation time: 0 hr 24 min 48 sec) 
Heartbeat CPU 0 instructions: 520000000 cycles: 932244299 heartbeat IPC: 0.348562 cumulative IPC: 0.392317 (Simulation time: 0 hr 25 min 26 sec) 
Heartbeat CPU 0 instructions: 530000001 cycles: 959029262 heartbeat IPC: 0.373344 cumulative IPC: 0.391714 (Simulation time: 0 hr 26 min 3 sec) 
Heartbeat CPU 0 instructions: 540000000 cycles: 984614380 heartbeat IPC: 0.390852 cumulative IPC: 0.391688 (Simulation time: 0 hr 26 min 40 sec) 
Heartbeat CPU 0 instructions: 550000003 cycles: 1009262575 heartbeat IPC: 0.405709 cumulative IPC: 0.392075 (Simulation time: 0 hr 27 min 15 sec) 
Heartbeat CPU 0 instructions: 560000000 cycles: 1033091601 heartbeat IPC: 0.419656 cumulative IPC: 0.392792 (Simulation time: 0 hr 27 min 50 sec) 
Heartbeat CPU 0 instructions: 570000003 cycles: 1048948473 heartbeat IPC: 0.630642 cumulative IPC: 0.396838 (Simulation time: 0 hr 28 min 20 sec) 
Heartbeat CPU 0 instructions: 580000000 cycles: 1064668837 heartbeat IPC: 0.636117 cumulative IPC: 0.400805 (Simulation time: 0 hr 28 min 49 sec) 
Heartbeat CPU 0 instructions: 590000000 cycles: 1081703405 heartbeat IPC: 0.587042 cumulative IPC: 0.404092 (Simulation time: 0 hr 29 min 19 sec) 
Heartbeat CPU 0 instructions: 600000000 cycles: 1100443151 heartbeat IPC: 0.533625 cumulative IPC: 0.406559 (Simulation time: 0 hr 29 min 49 sec) 
Heartbeat CPU 0 instructions: 610000000 cycles: 1122785320 heartbeat IPC: 0.447584 cumulative IPC: 0.40747 (Simulation time: 0 hr 30 min 20 sec) 
Heartbeat CPU 0 instructions: 620000000 cycles: 1153528512 heartbeat IPC: 0.325275 cumulative IPC: 0.405033 (Simulation time: 0 hr 30 min 55 sec) 
Heartbeat CPU 0 instructions: 630000002 cycles: 1185357138 heartbeat IPC: 0.314183 cumulative IPC: 0.402328 (Simulation time: 0 hr 31 min 35 sec) 
Heartbeat CPU 0 instructions: 640000000 cycles: 1217930700 heartbeat IPC: 0.306997 cumulative IPC: 0.399508 (Simulation time: 0 hr 32 min 15 sec) 
Heartbeat CPU 0 instructions: 650000000 cycles: 1247367791 heartbeat IPC: 0.339707 cumulative IPC: 0.397952 (Simulation time: 0 hr 32 min 54 sec) 
Heartbeat CPU 0 instructions: 660000000 cycles: 1274674686 heartbeat IPC: 0.366208 cumulative IPC: 0.397203 (Simulation time: 0 hr 33 min 31 sec) 
Heartbeat CPU 0 instructions: 670000003 cycles: 1300486113 heartbeat IPC: 0.387425 cumulative IPC: 0.39699 (Simulation time: 0 hr 34 min 8 sec) 
Heartbeat CPU 0 instructions: 680000000 cycles: 1323991426 heartbeat IPC: 0.425436 cumulative IPC: 0.397544 (Simulation time: 0 hr 34 min 42 sec) 
Heartbeat CPU 0 instructions: 690000000 cycles: 1340145282 heartbeat IPC: 0.619047 cumulative IPC: 0.400468 (Simulation time: 0 hr 35 min 12 sec) 
Heartbeat CPU 0 instructions: 700000000 cycles: 1358047137 heartbeat IPC: 0.558601 cumulative IPC: 0.402748 (Simulation time: 0 hr 35 min 42 sec) 
Heartbeat CPU 0 instructions: 710000001 cycles: 1379837739 heartbeat IPC: 0.458913 cumulative IPC: 0.403717 (Simulation time: 0 hr 36 min 13 sec) 
Heartbeat CPU 0 instructions: 720000000 cycles: 1411249167 heartbeat IPC: 0.318355 cumulative IPC: 0.401646 (Simulation time: 0 hr 36 min 51 sec) 
Heartbeat CPU 0 instructions: 730000000 cycles: 1441051618 heartbeat IPC: 0.335543 cumulative IPC: 0.400159 (Simulation time: 0 hr 37 min 28 sec) 
Heartbeat CPU 0 instructions: 740000000 cycles: 1473496903 heartbeat IPC: 0.308211 cumulative IPC: 0.39796 (Simulation time: 0 hr 38 min 8 sec) 
Heartbeat CPU 0 instructions: 750000002 cycles: 1507167137 heartbeat IPC: 0.296998 cumulative IPC: 0.395516 (Simulation time: 0 hr 38 min 48 sec) 
Heartbeat CPU 0 instructions: 760000000 cycles: 1540946240 heartbeat IPC: 0.296041 cumulative IPC: 0.393156 (Simulation time: 0 hr 39 min 28 sec) 
Heartbeat CPU 0 instructions: 770000001 cycles: 1571487405 heartbeat IPC: 0.327427 cumulative IPC: 0.391777 (Simulation time: 0 hr 40 min 7 sec) 
Heartbeat CPU 0 instructions: 780000000 cycles: 1599386829 heartbeat IPC: 0.35843 cumulative IPC: 0.391149 (Simulation time: 0 hr 40 min 45 sec) 
Heartbeat CPU 0 instructions: 790000000 cycles: 1625380116 heartbeat IPC: 0.384715 cumulative IPC: 0.391038 (Simulation time: 0 hr 41 min 21 sec) 
Heartbeat CPU 0 instructions: 800000000 cycles: 1643346513 heartbeat IPC: 0.556595 cumulative IPC: 0.392987 (Simulation time: 0 hr 41 min 52 sec) 
Heartbeat CPU 0 instructions: 810000001 cycles: 1664937735 heartbeat IPC: 0.463151 cumulative IPC: 0.393965 (Simulation time: 0 hr 42 min 23 sec) 
Heartbeat CPU 0 instructions: 820000000 cycles: 1696931121 heartbeat IPC: 0.312565 cumulative IPC: 0.392317 (Simulation time: 0 hr 43 min 2 sec) 
Heartbeat CPU 0 instructions: 830000000 cycles: 1725370937 heartbeat IPC: 0.35162 cumulative IPC: 0.391598 (Simulation time: 0 hr 43 min 39 sec) 
Heartbeat CPU 0 instructions: 840000000 cycles: 1758757796 heartbeat IPC: 0.299519 cumulative IPC: 0.389726 (Simulation time: 0 hr 44 min 19 sec) 
Heartbeat CPU 0 instructions: 850000000 cycles: 1788131996 heartbeat IPC: 0.340435 cumulative IPC: 0.38886 (Simulation time: 0 hr 44 min 58 sec) 
Heartbeat CPU 0 instructions: 860000000 cycles: 1812964210 heartbeat IPC: 0.402703 cumulative IPC: 0.389062 (Simulation time: 0 hr 45 min 32 sec) 
Heartbeat CPU 0 instructions: 870000000 cycles: 1844461731 heartbeat IPC: 0.317485 cumulative IPC: 0.387757 (Simulation time: 0 hr 46 min 11 sec) 
Heartbeat CPU 0 instructions: 880000000 cycles: 1872633742 heartbeat IPC: 0.354962 cumulative IPC: 0.387231 (Simulation time: 0 hr 46 min 49 sec) 
Heartbeat CPU 0 instructions: 890000000 cycles: 1894338344 heartbeat IPC: 0.460732 cumulative IPC: 0.388129 (Simulation time: 0 hr 47 min 21 sec) 
Heartbeat CPU 0 instructions: 900000000 cycles: 1927572350 heartbeat IPC: 0.300897 cumulative IPC: 0.386528 (Simulation time: 0 hr 48 min 0 sec) 
Heartbeat CPU 0 instructions: 910000000 cycles: 1958292010 heartbeat IPC: 0.325524 cumulative IPC: 0.38551 (Simulation time: 0 hr 48 min 40 sec) 
Heartbeat CPU 0 instructions: 920000000 cycles: 1986185169 heartbeat IPC: 0.358511 cumulative IPC: 0.385107 (Simulation time: 0 hr 49 min 17 sec) 
Heartbeat CPU 0 instructions: 930000003 cycles: 2007870982 heartbeat IPC: 0.461131 cumulative IPC: 0.385979 (Simulation time: 0 hr 49 min 50 sec) 
Heartbeat CPU 0 instructions: 940000000 cycles: 2032977730 heartbeat IPC: 0.398299 cumulative IPC: 0.386141 (Simulation time: 0 hr 50 min 23 sec) 
Heartbeat CPU 0 instructions: 950000002 cycles: 2064345099 heartbeat IPC: 0.318803 cumulative IPC: 0.385056 (Simulation time: 0 hr 51 min 3 sec) 
Heartbeat CPU 0 instructions: 960000000 cycles: 2094052659 heartbeat IPC: 0.336615 cumulative IPC: 0.384328 (Simulation time: 0 hr 51 min 40 sec) 
Heartbeat CPU 0 instructions: 970000000 cycles: 2124082822 heartbeat IPC: 0.332999 cumulative IPC: 0.383561 (Simulation time: 0 hr 52 min 19 sec) 
Heartbeat CPU 0 instructions: 980000000 cycles: 2151715299 heartbeat IPC: 0.361893 cumulative IPC: 0.383266 (Simulation time: 0 hr 52 min 57 sec) 
Heartbeat CPU 0 instructions: 990000000 cycles: 2177734875 heartbeat IPC: 0.384326 cumulative IPC: 0.38328 (Simulation time: 0 hr 53 min 33 sec) 
Heartbeat CPU 0 instructions: 1000000000 cycles: 2196675113 heartbeat IPC: 0.527976 cumulative IPC: 0.384597 (Simulation time: 0 hr 54 min 4 sec) 
Heartbeat CPU 0 instructions: 1010000000 cycles: 2215520712 heartbeat IPC: 0.530628 cumulative IPC: 0.385908 (Simulation time: 0 hr 54 min 35 sec) 
Heartbeat CPU 0 instructions: 1020000000 cycles: 2242039501 heartbeat IPC: 0.377091 cumulative IPC: 0.385798 (Simulation time: 0 hr 55 min 8 sec) 
Heartbeat CPU 0 instructions: 1030000003 cycles: 2273401480 heartbeat IPC: 0.318858 cumulative IPC: 0.384825 (Simulation time: 0 hr 55 min 47 sec) 
Heartbeat CPU 0 instructions: 1040000000 cycles: 2300738913 heartbeat IPC: 0.365799 cumulative IPC: 0.384587 (Simulation time: 0 hr 56 min 24 sec) 
Heartbeat CPU 0 instructions: 1050000000 cycles: 2324296685 heartbeat IPC: 0.424488 cumulative IPC: 0.385013 (Simulation time: 0 hr 56 min 57 sec) 
Heartbeat CPU 0 instructions: 1060000000 cycles: 2356214573 heartbeat IPC: 0.313304 cumulative IPC: 0.383991 (Simulation time: 0 hr 57 min 37 sec) 
Heartbeat CPU 0 instructions: 1070000002 cycles: 2384401322 heartbeat IPC: 0.354777 cumulative IPC: 0.383628 (Simulation time: 0 hr 58 min 15 sec) 
Heartbeat CPU 0 instructions: 1080000000 cycles: 2405833649 heartbeat IPC: 0.466585 cumulative IPC: 0.384404 (Simulation time: 0 hr 58 min 47 sec) 
Heartbeat CPU 0 instructions: 1090000000 cycles: 2435879924 heartbeat IPC: 0.33282 cumulative IPC: 0.383736 (Simulation time: 0 hr 59 min 24 sec) 
Heartbeat CPU 0 instructions: 1100000000 cycles: 2465381795 heartbeat IPC: 0.338962 cumulative IPC: 0.383174 (Simulation time: 1 hr 0 min 3 sec) 
Heartbeat CPU 0 instructions: 1110000002 cycles: 2490958619 heartbeat IPC: 0.390979 cumulative IPC: 0.383258 (Simulation time: 1 hr 0 min 38 sec) 
Heartbeat CPU 0 instructions: 1120000000 cycles: 2512966426 heartbeat IPC: 0.454384 cumulative IPC: 0.383911 (Simulation time: 1 hr 1 min 11 sec) 
Heartbeat CPU 0 instructions: 1130000002 cycles: 2545170893 heartbeat IPC: 0.310516 cumulative IPC: 0.382938 (Simulation time: 1 hr 1 min 50 sec) 
Heartbeat CPU 0 instructions: 1140000000 cycles: 2573749421 heartbeat IPC: 0.349913 cumulative IPC: 0.382554 (Simulation time: 1 hr 2 min 28 sec) 
Heartbeat CPU 0 instructions: 1150000000 cycles: 2600408350 heartbeat IPC: 0.375109 cumulative IPC: 0.382474 (Simulation time: 1 hr 3 min 5 sec) 
Heartbeat CPU 0 instructions: 1160000000 cycles: 2619952070 heartbeat IPC: 0.511673 cumulative IPC: 0.383482 (Simulation time: 1 hr 3 min 37 sec) 
Heartbeat CPU 0 instructions: 1170000000 cycles: 2641092522 heartbeat IPC: 0.473027 cumulative IPC: 0.384232 (Simulation time: 1 hr 4 min 8 sec) 
Heartbeat CPU 0 instructions: 1180000000 cycles: 2672532557 heartbeat IPC: 0.318066 cumulative IPC: 0.383418 (Simulation time: 1 hr 4 min 46 sec) 
Heartbeat CPU 0 instructions: 1190000000 cycles: 2702506573 heartbeat IPC: 0.333622 cumulative IPC: 0.382841 (Simulation time: 1 hr 5 min 24 sec) 
Heartbeat CPU 0 instructions: 1200000000 cycles: 2733207873 heartbeat IPC: 0.325719 cumulative IPC: 0.382171 (Simulation time: 1 hr 6 min 3 sec) 
Finished CPU 0 instructions: 1000000001 cycles: 2616630782 cumulative IPC: 0.382171 (Simulation time: 1 hr 6 min 3 sec) 

CPU 0 Branch Prediction Accuracy: 99.2733% MPKI: 1.86122

ChampSim completed all CPUs

Region of Interest Statistics

CPU 0 cumulative IPC: 0.382171 instructions: 1000000001 cycles: 2616630782
L1D TOTAL     ACCESS:  242860694  HIT:  190098997  MISS:   52761697
L1D LOAD      ACCESS:  175900035  HIT:  124804970  MISS:   51095065
L1D RFO       ACCESS:   66960659  HIT:   65294027  MISS:    1666632
L1D PREFETCH  ACCESS:          0  HIT:          0  MISS:          0
L1D WRITEBACK ACCESS:          0  HIT:          0  MISS:          0
L1D PREFETCH  REQUESTED:          0  ISSUED:          0  USEFUL:          0  USELESS:          0
L1I TOTAL     ACCESS:  436517122  HIT:  434124730  MISS:    2392392
L1I LOAD      ACCESS:  436517122  HIT:  434124730  MISS:    2392392
L1I RFO       ACCESS:          0  HIT:          0  MISS:          0
L1I PREFETCH  ACCESS:          0  HIT:          0  MISS:          0
L1I WRITEBACK ACCESS:          0  HIT:          0  MISS:          0
L1I PREFETCH  REQUESTED:          0  ISSUED:          0  USEFUL:          0  USELESS:          0
L2C TOTAL     ACCESS:   66803865  HIT:   39180517  MISS:   27623348
L2C LOAD      ACCESS:   53487110  HIT:   31452782  MISS:   22034328
L2C RFO       ACCESS:    1666595  HIT:     282227  MISS:    1384368
L2C PREFETCH  ACCESS:    8907902  HIT:    4704058  MISS:    4203844
L2C WRITEBACK ACCESS:    2742258  HIT:    2741450  MISS:        808
L2C PREFETCH  REQUESTED:   11271329  ISSUED:   11271329  USEFUL:    1667358  USELESS:    3399965
LLC TOTAL     ACCESS:   29584200  HIT:   27515591  MISS:    2068609
LLC LOAD      ACCESS:   21940567  HIT:   21382801  MISS:     557766
LLC RFO       ACCESS:    1381775  HIT:     156456  MISS:    1225319
LLC PREFETCH  ACCESS:    4300146  HIT:    4026255  MISS:     273891
LLC WRITEBACK ACCESS:    1961712  HIT:    1950079  MISS:      11633
LLC PREFETCH  REQUESTED:          0  ISSUED:          0  USEFUL:      33252  USELESS:     298770
Major fault: 0 Minor fault: 6230

L2C DA-AMPM prefetcher final stats

DRAM Statistics
 CHANNEL 0
 RQ ROW_BUFFER_HIT:    1197962  ROW_BUFFER_MISS:     855317
 DBUS_CONGESTED:    2093116
 WQ ROW_BUFFER_HIT:     608059  ROW_BUFFER_MISS:     879285  FULL:          0

 AVG_CONGESTED_CYCLE: 13
