
*** ChampSim Multicore Out-of-Order Simulator ***

Warmup Instructions: 200000000
Simulation Instructions: 1000000000
Number of CPUs: 1
LLC sets: 512
LLC ways: 16
Off-chip DRAM Size: 4096 MB Channels: 1 Width: 64-bit Data Rate: 1600 MT/s

CPU 0 runs /scratch/user/djimenez/champsim-traces/speccpu2017/xz/631.deepsjeng_s/631.deepsjeng_s-928B.champsimtrace.xz
L2C DA-AMPM prefetcher
Heartbeat CPU 0 instructions: 10000003 cycles: 5308872 heartbeat IPC: 1.88364 cumulative IPC: 1.88364 (Simulation time: 0 hr 0 min 15 sec) 
Heartbeat CPU 0 instructions: 20000000 cycles: 10751555 heartbeat IPC: 1.83733 cumulative IPC: 1.8602 (Simulation time: 0 hr 0 min 31 sec) 
Heartbeat CPU 0 instructions: 30000000 cycles: 16026092 heartbeat IPC: 1.8959 cumulative IPC: 1.87195 (Simulation time: 0 hr 0 min 47 sec) 
Heartbeat CPU 0 instructions: 40000000 cycles: 21318418 heartbeat IPC: 1.88953 cumulative IPC: 1.87631 (Simulation time: 0 hr 1 min 2 sec) 
Heartbeat CPU 0 instructions: 50000001 cycles: 26617005 heartbeat IPC: 1.8873 cumulative IPC: 1.8785 (Simulation time: 0 hr 1 min 17 sec) 
Heartbeat CPU 0 instructions: 60000000 cycles: 31794904 heartbeat IPC: 1.93129 cumulative IPC: 1.88709 (Simulation time: 0 hr 1 min 32 sec) 
Heartbeat CPU 0 instructions: 70000000 cycles: 36945331 heartbeat IPC: 1.94159 cumulative IPC: 1.89469 (Simulation time: 0 hr 1 min 47 sec) 
Heartbeat CPU 0 instructions: 80000000 cycles: 42121354 heartbeat IPC: 1.93199 cumulative IPC: 1.89927 (Simulation time: 0 hr 2 min 2 sec) 
Heartbeat CPU 0 instructions: 90000000 cycles: 47308519 heartbeat IPC: 1.92784 cumulative IPC: 1.90241 (Simulation time: 0 hr 2 min 18 sec) 
Heartbeat CPU 0 instructions: 100000000 cycles: 52545770 heartbeat IPC: 1.9094 cumulative IPC: 1.9031 (Simulation time: 0 hr 2 min 34 sec) 
Heartbeat CPU 0 instructions: 110000001 cycles: 57760869 heartbeat IPC: 1.91751 cumulative IPC: 1.9044 (Simulation time: 0 hr 2 min 49 sec) 
Heartbeat CPU 0 instructions: 120000000 cycles: 62962951 heartbeat IPC: 1.92231 cumulative IPC: 1.90588 (Simulation time: 0 hr 3 min 5 sec) 
Heartbeat CPU 0 instructions: 130000002 cycles: 68163904 heartbeat IPC: 1.92272 cumulative IPC: 1.90717 (Simulation time: 0 hr 3 min 20 sec) 
Heartbeat CPU 0 instructions: 140000000 cycles: 73415881 heartbeat IPC: 1.90404 cumulative IPC: 1.90694 (Simulation time: 0 hr 3 min 36 sec) 
Heartbeat CPU 0 instructions: 150000002 cycles: 78609516 heartbeat IPC: 1.92543 cumulative IPC: 1.90817 (Simulation time: 0 hr 3 min 51 sec) 
Heartbeat CPU 0 instructions: 160000000 cycles: 83812605 heartbeat IPC: 1.92193 cumulative IPC: 1.90902 (Simulation time: 0 hr 4 min 7 sec) 
Heartbeat CPU 0 instructions: 170000002 cycles: 89077265 heartbeat IPC: 1.89946 cumulative IPC: 1.90846 (Simulation time: 0 hr 4 min 22 sec) 
Heartbeat CPU 0 instructions: 180000000 cycles: 94376383 heartbeat IPC: 1.88711 cumulative IPC: 1.90726 (Simulation time: 0 hr 4 min 38 sec) 
Heartbeat CPU 0 instructions: 190000003 cycles: 99657050 heartbeat IPC: 1.8937 cumulative IPC: 1.90654 (Simulation time: 0 hr 4 min 53 sec) 
Heartbeat CPU 0 instructions: 200000000 cycles: 105002084 heartbeat IPC: 1.87089 cumulative IPC: 1.90472 (Simulation time: 0 hr 5 min 8 sec) 

Warmup complete CPU 0 instructions: 200000001 cycles: 105002086 (Simulation time: 0 hr 5 min 8 sec) 

Heartbeat CPU 0 instructions: 210000001 cycles: 122032545 heartbeat IPC: 0.587183 cumulative IPC: 0.587183 (Simulation time: 0 hr 5 min 35 sec) 
Heartbeat CPU 0 instructions: 220000000 cycles: 139272731 heartbeat IPC: 0.58004 cumulative IPC: 0.58359 (Simulation time: 0 hr 6 min 0 sec) 
Heartbeat CPU 0 instructions: 230000003 cycles: 156549578 heartbeat IPC: 0.578809 cumulative IPC: 0.581988 (Simulation time: 0 hr 6 min 26 sec) 
Heartbeat CPU 0 instructions: 240000000 cycles: 173359194 heartbeat IPC: 0.594897 cumulative IPC: 0.585162 (Simulation time: 0 hr 6 min 53 sec) 
Heartbeat CPU 0 instructions: 250000002 cycles: 190241937 heartbeat IPC: 0.592321 cumulative IPC: 0.58658 (Simulation time: 0 hr 7 min 19 sec) 
Heartbeat CPU 0 instructions: 260000000 cycles: 207137042 heartbeat IPC: 0.591887 cumulative IPC: 0.587458 (Simulation time: 0 hr 7 min 45 sec) 
Heartbeat CPU 0 instructions: 270000000 cycles: 224031570 heartbeat IPC: 0.591908 cumulative IPC: 0.58809 (Simulation time: 0 hr 8 min 10 sec) 
Heartbeat CPU 0 instructions: 280000000 cycles: 241038244 heartbeat IPC: 0.588004 cumulative IPC: 0.588079 (Simulation time: 0 hr 8 min 36 sec) 
Heartbeat CPU 0 instructions: 290000001 cycles: 258133758 heartbeat IPC: 0.584949 cumulative IPC: 0.58773 (Simulation time: 0 hr 9 min 3 sec) 
Heartbeat CPU 0 instructions: 300000000 cycles: 274935123 heartbeat IPC: 0.59519 cumulative IPC: 0.588467 (Simulation time: 0 hr 9 min 29 sec) 
Heartbeat CPU 0 instructions: 310000000 cycles: 291940506 heartbeat IPC: 0.588049 cumulative IPC: 0.588429 (Simulation time: 0 hr 9 min 54 sec) 
Heartbeat CPU 0 instructions: 320000000 cycles: 309242205 heartbeat IPC: 0.577978 cumulative IPC: 0.587544 (Simulation time: 0 hr 10 min 20 sec) 
Heartbeat CPU 0 instructions: 330000002 cycles: 326586585 heartbeat IPC: 0.576556 cumulative IPC: 0.586684 (Simulation time: 0 hr 10 min 46 sec) 
Heartbeat CPU 0 instructions: 340000000 cycles: 343610375 heartbeat IPC: 0.587413 cumulative IPC: 0.586736 (Simulation time: 0 hr 11 min 11 sec) 
Heartbeat CPU 0 instructions: 350000003 cycles: 360722762 heartbeat IPC: 0.584372 cumulative IPC: 0.586578 (Simulation time: 0 hr 11 min 37 sec) 
Heartbeat CPU 0 instructions: 360000000 cycles: 377767682 heartbeat IPC: 0.586685 cumulative IPC: 0.586584 (Simulation time: 0 hr 12 min 3 sec) 
Heartbeat CPU 0 instructions: 370000001 cycles: 394936050 heartbeat IPC: 0.582467 cumulative IPC: 0.58634 (Simulation time: 0 hr 12 min 28 sec) 
Heartbeat CPU 0 instructions: 380000000 cycles: 411943747 heartbeat IPC: 0.587969 cumulative IPC: 0.586431 (Simulation time: 0 hr 12 min 54 sec) 
Heartbeat CPU 0 instructions: 390000001 cycles: 429085287 heartbeat IPC: 0.583378 cumulative IPC: 0.586269 (Simulation time: 0 hr 13 min 20 sec) 
Heartbeat CPU 0 instructions: 400000000 cycles: 446369289 heartbeat IPC: 0.57857 cumulative IPC: 0.585879 (Simulation time: 0 hr 13 min 45 sec) 
Heartbeat CPU 0 instructions: 410000001 cycles: 463731408 heartbeat IPC: 0.575967 cumulative IPC: 0.5854 (Simulation time: 0 hr 14 min 11 sec) 
Heartbeat CPU 0 instructions: 420000000 cycles: 480821024 heartbeat IPC: 0.585151 cumulative IPC: 0.585388 (Simulation time: 0 hr 14 min 37 sec) 
Heartbeat CPU 0 instructions: 430000002 cycles: 497955020 heartbeat IPC: 0.583635 cumulative IPC: 0.585312 (Simulation time: 0 hr 15 min 3 sec) 
Heartbeat CPU 0 instructions: 440000000 cycles: 515046651 heartbeat IPC: 0.585082 cumulative IPC: 0.585302 (Simulation time: 0 hr 15 min 28 sec) 
Heartbeat CPU 0 instructions: 450000000 cycles: 532438926 heartbeat IPC: 0.574968 cumulative IPC: 0.584882 (Simulation time: 0 hr 15 min 54 sec) 
Heartbeat CPU 0 instructions: 460000000 cycles: 549664094 heartbeat IPC: 0.580546 cumulative IPC: 0.584714 (Simulation time: 0 hr 16 min 19 sec) 
Heartbeat CPU 0 instructions: 470000001 cycles: 566907237 heartbeat IPC: 0.579941 cumulative IPC: 0.584536 (Simulation time: 0 hr 16 min 46 sec) 
Heartbeat CPU 0 instructions: 480000000 cycles: 583972368 heartbeat IPC: 0.58599 cumulative IPC: 0.584587 (Simulation time: 0 hr 17 min 12 sec) 
Heartbeat CPU 0 instructions: 490000000 cycles: 600972462 heartbeat IPC: 0.588232 cumulative IPC: 0.584712 (Simulation time: 0 hr 17 min 38 sec) 
Heartbeat CPU 0 instructions: 500000000 cycles: 617942926 heartbeat IPC: 0.589259 cumulative IPC: 0.584863 (Simulation time: 0 hr 18 min 3 sec) 
Heartbeat CPU 0 instructions: 510000000 cycles: 634720652 heartbeat IPC: 0.596028 cumulative IPC: 0.585216 (Simulation time: 0 hr 18 min 29 sec) 
Heartbeat CPU 0 instructions: 520000000 cycles: 651476947 heartbeat IPC: 0.596791 cumulative IPC: 0.585571 (Simulation time: 0 hr 18 min 55 sec) 
Heartbeat CPU 0 instructions: 530000000 cycles: 668419229 heartbeat IPC: 0.590239 cumulative IPC: 0.585712 (Simulation time: 0 hr 19 min 21 sec) 
Heartbeat CPU 0 instructions: 540000000 cycles: 685315631 heartbeat IPC: 0.591842 cumulative IPC: 0.58589 (Simulation time: 0 hr 19 min 46 sec) 
Heartbeat CPU 0 instructions: 550000000 cycles: 702151242 heartbeat IPC: 0.593979 cumulative IPC: 0.586118 (Simulation time: 0 hr 20 min 12 sec) 
Heartbeat CPU 0 instructions: 560000000 cycles: 718970100 heartbeat IPC: 0.594571 cumulative IPC: 0.58635 (Simulation time: 0 hr 20 min 38 sec) 
Heartbeat CPU 0 instructions: 570000000 cycles: 735712271 heartbeat IPC: 0.597294 cumulative IPC: 0.58664 (Simulation time: 0 hr 21 min 4 sec) 
Heartbeat CPU 0 instructions: 580000000 cycles: 752792296 heartbeat IPC: 0.585479 cumulative IPC: 0.58661 (Simulation time: 0 hr 21 min 30 sec) 
Heartbeat CPU 0 instructions: 590000000 cycles: 769742421 heartbeat IPC: 0.589966 cumulative IPC: 0.586695 (Simulation time: 0 hr 21 min 55 sec) 
Heartbeat CPU 0 instructions: 600000000 cycles: 786545210 heartbeat IPC: 0.595139 cumulative IPC: 0.586903 (Simulation time: 0 hr 22 min 21 sec) 
Heartbeat CPU 0 instructions: 610000000 cycles: 803411736 heartbeat IPC: 0.59289 cumulative IPC: 0.587048 (Simulation time: 0 hr 22 min 46 sec) 
Heartbeat CPU 0 instructions: 620000000 cycles: 820323770 heartbeat IPC: 0.591295 cumulative IPC: 0.587148 (Simulation time: 0 hr 23 min 11 sec) 
Heartbeat CPU 0 instructions: 630000001 cycles: 837079855 heartbeat IPC: 0.596798 cumulative IPC: 0.587369 (Simulation time: 0 hr 23 min 37 sec) 
Heartbeat CPU 0 instructions: 640000000 cycles: 854015401 heartbeat IPC: 0.590474 cumulative IPC: 0.587439 (Simulation time: 0 hr 24 min 2 sec) 
Heartbeat CPU 0 instructions: 650000003 cycles: 870871914 heartbeat IPC: 0.593243 cumulative IPC: 0.587567 (Simulation time: 0 hr 24 min 27 sec) 
Heartbeat CPU 0 instructions: 660000000 cycles: 887812204 heartbeat IPC: 0.590308 cumulative IPC: 0.587627 (Simulation time: 0 hr 24 min 53 sec) 
Heartbeat CPU 0 instructions: 670000003 cycles: 904488083 heartbeat IPC: 0.599669 cumulative IPC: 0.587878 (Simulation time: 0 hr 25 min 19 sec) 
Heartbeat CPU 0 instructions: 680000000 cycles: 921432769 heartbeat IPC: 0.590155 cumulative IPC: 0.587925 (Simulation time: 0 hr 25 min 44 sec) 
Heartbeat CPU 0 instructions: 690000001 cycles: 938309582 heartbeat IPC: 0.592529 cumulative IPC: 0.588018 (Simulation time: 0 hr 26 min 9 sec) 
Heartbeat CPU 0 instructions: 700000000 cycles: 955271796 heartbeat IPC: 0.589546 cumulative IPC: 0.588049 (Simulation time: 0 hr 26 min 35 sec) 
Heartbeat CPU 0 instructions: 710000001 cycles: 972103556 heartbeat IPC: 0.594115 cumulative IPC: 0.588166 (Simulation time: 0 hr 27 min 0 sec) 
Heartbeat CPU 0 instructions: 720000000 cycles: 989022335 heartbeat IPC: 0.591059 cumulative IPC: 0.588222 (Simulation time: 0 hr 27 min 26 sec) 
Heartbeat CPU 0 instructions: 730000003 cycles: 1005839994 heartbeat IPC: 0.594613 cumulative IPC: 0.588341 (Simulation time: 0 hr 27 min 52 sec) 
Heartbeat CPU 0 instructions: 740000000 cycles: 1022773985 heartbeat IPC: 0.590528 cumulative IPC: 0.588381 (Simulation time: 0 hr 28 min 17 sec) 
Heartbeat CPU 0 instructions: 750000001 cycles: 1039658880 heartbeat IPC: 0.592245 cumulative IPC: 0.588451 (Simulation time: 0 hr 28 min 43 sec) 
Heartbeat CPU 0 instructions: 760000000 cycles: 1056368616 heartbeat IPC: 0.598453 cumulative IPC: 0.588627 (Simulation time: 0 hr 29 min 8 sec) 
Heartbeat CPU 0 instructions: 770000002 cycles: 1073378994 heartbeat IPC: 0.587877 cumulative IPC: 0.588614 (Simulation time: 0 hr 29 min 33 sec) 
Heartbeat CPU 0 instructions: 780000000 cycles: 1090230097 heartbeat IPC: 0.593433 cumulative IPC: 0.588696 (Simulation time: 0 hr 29 min 59 sec) 
Heartbeat CPU 0 instructions: 790000000 cycles: 1107013552 heartbeat IPC: 0.595825 cumulative IPC: 0.588816 (Simulation time: 0 hr 30 min 25 sec) 
Heartbeat CPU 0 instructions: 800000000 cycles: 1124049488 heartbeat IPC: 0.586994 cumulative IPC: 0.588785 (Simulation time: 0 hr 30 min 51 sec) 
Heartbeat CPU 0 instructions: 810000002 cycles: 1140984134 heartbeat IPC: 0.590506 cumulative IPC: 0.588813 (Simulation time: 0 hr 31 min 16 sec) 
Heartbeat CPU 0 instructions: 820000000 cycles: 1157777426 heartbeat IPC: 0.595476 cumulative IPC: 0.58892 (Simulation time: 0 hr 31 min 42 sec) 
Heartbeat CPU 0 instructions: 830000001 cycles: 1174111000 heartbeat IPC: 0.612236 cumulative IPC: 0.589276 (Simulation time: 0 hr 32 min 9 sec) 
Heartbeat CPU 0 instructions: 840000000 cycles: 1190969786 heartbeat IPC: 0.593162 cumulative IPC: 0.589336 (Simulation time: 0 hr 32 min 36 sec) 
Heartbeat CPU 0 instructions: 850000001 cycles: 1208240349 heartbeat IPC: 0.57902 cumulative IPC: 0.589175 (Simulation time: 0 hr 33 min 1 sec) 
Heartbeat CPU 0 instructions: 860000000 cycles: 1225461410 heartbeat IPC: 0.580684 cumulative IPC: 0.589044 (Simulation time: 0 hr 33 min 27 sec) 
Heartbeat CPU 0 instructions: 870000000 cycles: 1242445020 heartbeat IPC: 0.588803 cumulative IPC: 0.589041 (Simulation time: 0 hr 33 min 53 sec) 
Heartbeat CPU 0 instructions: 880000000 cycles: 1259505765 heartbeat IPC: 0.586141 cumulative IPC: 0.588998 (Simulation time: 0 hr 34 min 19 sec) 
Heartbeat CPU 0 instructions: 890000000 cycles: 1276686118 heartbeat IPC: 0.58206 cumulative IPC: 0.588896 (Simulation time: 0 hr 34 min 45 sec) 
Heartbeat CPU 0 instructions: 900000000 cycles: 1294019143 heartbeat IPC: 0.576933 cumulative IPC: 0.588722 (Simulation time: 0 hr 35 min 10 sec) 
Heartbeat CPU 0 instructions: 910000000 cycles: 1311565944 heartbeat IPC: 0.569904 cumulative IPC: 0.588448 (Simulation time: 0 hr 35 min 36 sec) 
Heartbeat CPU 0 instructions: 920000000 cycles: 1328865668 heartbeat IPC: 0.578044 cumulative IPC: 0.588301 (Simulation time: 0 hr 36 min 3 sec) 
Heartbeat CPU 0 instructions: 930000000 cycles: 1346035601 heartbeat IPC: 0.582413 cumulative IPC: 0.588219 (Simulation time: 0 hr 36 min 29 sec) 
Heartbeat CPU 0 instructions: 940000000 cycles: 1363235544 heartbeat IPC: 0.581397 cumulative IPC: 0.588126 (Simulation time: 0 hr 36 min 55 sec) 
Heartbeat CPU 0 instructions: 950000000 cycles: 1380276703 heartbeat IPC: 0.586815 cumulative IPC: 0.588109 (Simulation time: 0 hr 37 min 22 sec) 
Heartbeat CPU 0 instructions: 960000000 cycles: 1397167763 heartbeat IPC: 0.592029 cumulative IPC: 0.58816 (Simulation time: 0 hr 37 min 48 sec) 
Heartbeat CPU 0 instructions: 970000001 cycles: 1414034578 heartbeat IPC: 0.59288 cumulative IPC: 0.588221 (Simulation time: 0 hr 38 min 15 sec) 
Heartbeat CPU 0 instructions: 980000000 cycles: 1431106609 heartbeat IPC: 0.585753 cumulative IPC: 0.588189 (Simulation time: 0 hr 38 min 40 sec) 
Heartbeat CPU 0 instructions: 990000001 cycles: 1448256493 heartbeat IPC: 0.583094 cumulative IPC: 0.588124 (Simulation time: 0 hr 39 min 6 sec) 
Heartbeat CPU 0 instructions: 1000000000 cycles: 1465954331 heartbeat IPC: 0.565041 cumulative IPC: 0.587824 (Simulation time: 0 hr 39 min 32 sec) 
Heartbeat CPU 0 instructions: 1010000000 cycles: 1483167891 heartbeat IPC: 0.580937 cumulative IPC: 0.587738 (Simulation time: 0 hr 39 min 58 sec) 
Heartbeat CPU 0 instructions: 1020000000 cycles: 1500495553 heartbeat IPC: 0.577112 cumulative IPC: 0.587606 (Simulation time: 0 hr 40 min 23 sec) 
Heartbeat CPU 0 instructions: 1030000000 cycles: 1517930223 heartbeat IPC: 0.57357 cumulative IPC: 0.587433 (Simulation time: 0 hr 40 min 49 sec) 
Heartbeat CPU 0 instructions: 1040000000 cycles: 1535396776 heartbeat IPC: 0.572523 cumulative IPC: 0.587251 (Simulation time: 0 hr 41 min 14 sec) 
Heartbeat CPU 0 instructions: 1050000000 cycles: 1552817329 heartbeat IPC: 0.574035 cumulative IPC: 0.587092 (Simulation time: 0 hr 41 min 40 sec) 
Heartbeat CPU 0 instructions: 1060000000 cycles: 1570470339 heartbeat IPC: 0.566476 cumulative IPC: 0.586843 (Simulation time: 0 hr 42 min 5 sec) 
Heartbeat CPU 0 instructions: 1070000003 cycles: 1588008996 heartbeat IPC: 0.570169 cumulative IPC: 0.586646 (Simulation time: 0 hr 42 min 30 sec) 
Heartbeat CPU 0 instructions: 1080000000 cycles: 1605637012 heartbeat IPC: 0.567279 cumulative IPC: 0.586418 (Simulation time: 0 hr 42 min 56 sec) 
Heartbeat CPU 0 instructions: 1090000001 cycles: 1622860128 heartbeat IPC: 0.580615 cumulative IPC: 0.586353 (Simulation time: 0 hr 43 min 22 sec) 
Heartbeat CPU 0 instructions: 1100000000 cycles: 1639960785 heartbeat IPC: 0.584773 cumulative IPC: 0.586335 (Simulation time: 0 hr 43 min 49 sec) 
Heartbeat CPU 0 instructions: 1110000000 cycles: 1657301041 heartbeat IPC: 0.576693 cumulative IPC: 0.586227 (Simulation time: 0 hr 44 min 14 sec) 
Heartbeat CPU 0 instructions: 1120000000 cycles: 1674680750 heartbeat IPC: 0.575384 cumulative IPC: 0.586107 (Simulation time: 0 hr 44 min 40 sec) 
Heartbeat CPU 0 instructions: 1130000003 cycles: 1692164306 heartbeat IPC: 0.571966 cumulative IPC: 0.585951 (Simulation time: 0 hr 45 min 5 sec) 
Heartbeat CPU 0 instructions: 1140000000 cycles: 1709284561 heartbeat IPC: 0.584103 cumulative IPC: 0.585932 (Simulation time: 0 hr 45 min 32 sec) 
Heartbeat CPU 0 instructions: 1150000000 cycles: 1726559710 heartbeat IPC: 0.578866 cumulative IPC: 0.585856 (Simulation time: 0 hr 45 min 58 sec) 
Heartbeat CPU 0 instructions: 1160000000 cycles: 1743467868 heartbeat IPC: 0.59143 cumulative IPC: 0.585914 (Simulation time: 0 hr 46 min 24 sec) 
Heartbeat CPU 0 instructions: 1170000000 cycles: 1760531619 heartbeat IPC: 0.586038 cumulative IPC: 0.585915 (Simulation time: 0 hr 46 min 50 sec) 
Heartbeat CPU 0 instructions: 1180000000 cycles: 1777589158 heartbeat IPC: 0.586251 cumulative IPC: 0.585919 (Simulation time: 0 hr 47 min 16 sec) 
Heartbeat CPU 0 instructions: 1190000001 cycles: 1794486001 heartbeat IPC: 0.591827 cumulative IPC: 0.585978 (Simulation time: 0 hr 47 min 43 sec) 
Heartbeat CPU 0 instructions: 1200000000 cycles: 1811647271 heartbeat IPC: 0.582707 cumulative IPC: 0.585945 (Simulation time: 0 hr 48 min 9 sec) 
Finished CPU 0 instructions: 1000000000 cycles: 1706645193 cumulative IPC: 0.585945 (Simulation time: 0 hr 48 min 9 sec) 

CPU 0 Branch Prediction Accuracy: 91.9385% MPKI: 8.717

ChampSim completed all CPUs

Region of Interest Statistics

CPU 0 cumulative IPC: 0.585945 instructions: 1000000000 cycles: 1706645193
L1D TOTAL     ACCESS:  304241390  HIT:  302892568  MISS:    1348822
L1D LOAD      ACCESS:  186533421  HIT:  185597393  MISS:     936028
L1D RFO       ACCESS:  117707969  HIT:  117295175  MISS:     412794
L1D PREFETCH  ACCESS:          0  HIT:          0  MISS:          0
L1D WRITEBACK ACCESS:          0  HIT:          0  MISS:          0
L1D PREFETCH  REQUESTED:          0  ISSUED:          0  USEFUL:          0  USELESS:          0
L1I TOTAL     ACCESS:  244138673  HIT:  243215438  MISS:     923235
L1I LOAD      ACCESS:  244138673  HIT:  243215438  MISS:     923235
L1I RFO       ACCESS:          0  HIT:          0  MISS:          0
L1I PREFETCH  ACCESS:          0  HIT:          0  MISS:          0
L1I WRITEBACK ACCESS:          0  HIT:          0  MISS:          0
L1I PREFETCH  REQUESTED:          0  ISSUED:          0  USEFUL:          0  USELESS:          0
L2C TOTAL     ACCESS:    2961694  HIT:    2644256  MISS:     317438
L2C LOAD      ACCESS:    1859255  HIT:    1569207  MISS:     290048
L2C RFO       ACCESS:     412791  HIT:     397163  MISS:      15628
L2C PREFETCH  ACCESS:      18054  HIT:       6874  MISS:      11180
L2C WRITEBACK ACCESS:     671594  HIT:     671012  MISS:        582
L2C PREFETCH  REQUESTED:      22644  ISSUED:      22644  USEFUL:       1109  USELESS:      12849
LLC TOTAL     ACCESS:     524948  HIT:     223234  MISS:     301714
LLC LOAD      ACCESS:     290015  HIT:      11619  MISS:     278396
LLC RFO       ACCESS:      15628  HIT:       8528  MISS:       7100
LLC PREFETCH  ACCESS:      11213  HIT:        909  MISS:      10304
LLC WRITEBACK ACCESS:     208092  HIT:     202178  MISS:       5914
LLC PREFETCH  REQUESTED:          0  ISSUED:          0  USEFUL:        247  USELESS:      12444
Major fault: 0 Minor fault: 175692

L2C DA-AMPM prefetcher final stats

DRAM Statistics
 CHANNEL 0
 RQ ROW_BUFFER_HIT:     134191  ROW_BUFFER_MISS:     161569
 DBUS_CONGESTED:     212202
 WQ ROW_BUFFER_HIT:      13612  ROW_BUFFER_MISS:     186251  FULL:          0

 AVG_CONGESTED_CYCLE: 14
