
*** ChampSim Multicore Out-of-Order Simulator ***

Warmup Instructions: 20000000
Simulation Instructions: 100000000
Number of CPUs: 4
LLC sets: 8192
LLC ways: 16
Off-chip DRAM Size: 8192 MB Channels: 2 Width: 64-bit Data Rate: 1600 MT/s

CPU 0 runs /scratch/user/eshanbhatia22/THESIS/cloudsuite_traces/cassandra_phase2_core0.trace.gz
CPU 1 runs /scratch/user/eshanbhatia22/THESIS/cloudsuite_traces/cassandra_phase2_core1.trace.gz
CPU 2 runs /scratch/user/eshanbhatia22/THESIS/cloudsuite_traces/cassandra_phase2_core2.trace.gz
CPU 3 runs /scratch/user/eshanbhatia22/THESIS/cloudsuite_traces/cassandra_phase2_core3.trace.gz
Heartbeat CPU 3 instructions: 10000000 cycles: 4402091 heartbeat IPC: 2.27165 cumulative IPC: 2.27165 (Simulation time: 0 hr 1 min 35 sec) 
Heartbeat CPU 1 instructions: 10000000 cycles: 4407421 heartbeat IPC: 2.2689 cumulative IPC: 2.2689 (Simulation time: 0 hr 1 min 35 sec) 
Heartbeat CPU 2 instructions: 10000000 cycles: 4412352 heartbeat IPC: 2.26637 cumulative IPC: 2.26637 (Simulation time: 0 hr 1 min 35 sec) 
Heartbeat CPU 0 instructions: 10000001 cycles: 4454103 heartbeat IPC: 2.24512 cumulative IPC: 2.24512 (Simulation time: 0 hr 1 min 36 sec) 
Heartbeat CPU 1 instructions: 20000000 cycles: 9192030 heartbeat IPC: 2.09003 cumulative IPC: 2.1758 (Simulation time: 0 hr 3 min 5 sec) 
Heartbeat CPU 2 instructions: 20000000 cycles: 9268951 heartbeat IPC: 2.05905 cumulative IPC: 2.15774 (Simulation time: 0 hr 3 min 7 sec) 
Heartbeat CPU 3 instructions: 20000000 cycles: 9442315 heartbeat IPC: 1.98404 cumulative IPC: 2.11812 (Simulation time: 0 hr 3 min 11 sec) 
Heartbeat CPU 0 instructions: 20000000 cycles: 9680681 heartbeat IPC: 1.9133 cumulative IPC: 2.06597 (Simulation time: 0 hr 3 min 17 sec) 

Warmup complete CPU 0 instructions: 20000001 cycles: 9680682 (Simulation time: 0 hr 3 min 17 sec) 
Warmup complete CPU 1 instructions: 21542343 cycles: 9680681 (Simulation time: 0 hr 3 min 17 sec) 
Warmup complete CPU 2 instructions: 21297413 cycles: 9680681 (Simulation time: 0 hr 3 min 17 sec) 
Warmup complete CPU 3 instructions: 20746193 cycles: 9680681 (Simulation time: 0 hr 3 min 17 sec) 

Heartbeat CPU 3 instructions: 30000003 cycles: 36144081 heartbeat IPC: 0.374507 cumulative IPC: 0.349683 (Simulation time: 0 hr 4 min 54 sec) 
Heartbeat CPU 2 instructions: 30000003 cycles: 38334625 heartbeat IPC: 0.344049 cumulative IPC: 0.303714 (Simulation time: 0 hr 5 min 3 sec) 
Heartbeat CPU 1 instructions: 30000000 cycles: 38530749 heartbeat IPC: 0.340847 cumulative IPC: 0.293159 (Simulation time: 0 hr 5 min 4 sec) 
Heartbeat CPU 0 instructions: 30000001 cycles: 44624421 heartbeat IPC: 0.286174 cumulative IPC: 0.286174 (Simulation time: 0 hr 5 min 23 sec) 
Heartbeat CPU 3 instructions: 40000000 cycles: 67381626 heartbeat IPC: 0.320127 cumulative IPC: 0.333683 (Simulation time: 0 hr 6 min 31 sec) 
Heartbeat CPU 1 instructions: 40000000 cycles: 71673530 heartbeat IPC: 0.301725 cumulative IPC: 0.297738 (Simulation time: 0 hr 6 min 44 sec) 
Heartbeat CPU 2 instructions: 40000000 cycles: 71933834 heartbeat IPC: 0.297626 cumulative IPC: 0.300428 (Simulation time: 0 hr 6 min 45 sec) 
Heartbeat CPU 0 instructions: 40000000 cycles: 77292603 heartbeat IPC: 0.306108 cumulative IPC: 0.295806 (Simulation time: 0 hr 7 min 3 sec) 
Heartbeat CPU 3 instructions: 50000000 cycles: 95316972 heartbeat IPC: 0.357969 cumulative IPC: 0.341605 (Simulation time: 0 hr 8 min 1 sec) 
Heartbeat CPU 2 instructions: 50000000 cycles: 101941765 heartbeat IPC: 0.333245 cumulative IPC: 0.311102 (Simulation time: 0 hr 8 min 23 sec) 
Heartbeat CPU 1 instructions: 50000003 cycles: 102766156 heartbeat IPC: 0.32162 cumulative IPC: 0.305715 (Simulation time: 0 hr 8 min 26 sec) 
Heartbeat CPU 0 instructions: 50000002 cycles: 109919647 heartbeat IPC: 0.306494 cumulative IPC: 0.299285 (Simulation time: 0 hr 8 min 51 sec) 
Heartbeat CPU 3 instructions: 60000000 cycles: 124836109 heartbeat IPC: 0.338763 cumulative IPC: 0.340877 (Simulation time: 0 hr 9 min 40 sec) 
Heartbeat CPU 2 instructions: 60000000 cycles: 130742015 heartbeat IPC: 0.347219 cumulative IPC: 0.319694 (Simulation time: 0 hr 9 min 59 sec) 
Heartbeat CPU 1 instructions: 60000000 cycles: 133256505 heartbeat IPC: 0.327973 cumulative IPC: 0.311207 (Simulation time: 0 hr 10 min 7 sec) 
Heartbeat CPU 0 instructions: 60000000 cycles: 142904552 heartbeat IPC: 0.303169 cumulative IPC: 0.300246 (Simulation time: 0 hr 10 min 37 sec) 
Heartbeat CPU 3 instructions: 70000003 cycles: 152733910 heartbeat IPC: 0.358451 cumulative IPC: 0.344304 (Simulation time: 0 hr 11 min 8 sec) 
Heartbeat CPU 2 instructions: 70000003 cycles: 159928696 heartbeat IPC: 0.342622 cumulative IPC: 0.324148 (Simulation time: 0 hr 11 min 32 sec) 
Heartbeat CPU 1 instructions: 70000003 cycles: 164962308 heartbeat IPC: 0.3154 cumulative IPC: 0.312063 (Simulation time: 0 hr 11 min 50 sec) 
Heartbeat CPU 0 instructions: 70000002 cycles: 175163704 heartbeat IPC: 0.30999 cumulative IPC: 0.302146 (Simulation time: 0 hr 12 min 22 sec) 
Heartbeat CPU 3 instructions: 80000000 cycles: 183022365 heartbeat IPC: 0.330159 cumulative IPC: 0.341832 (Simulation time: 0 hr 12 min 48 sec) 
Heartbeat CPU 2 instructions: 80000000 cycles: 192557333 heartbeat IPC: 0.306479 cumulative IPC: 0.320996 (Simulation time: 0 hr 13 min 19 sec) 
Heartbeat CPU 1 instructions: 80000000 cycles: 196862846 heartbeat IPC: 0.313474 cumulative IPC: 0.312304 (Simulation time: 0 hr 13 min 34 sec) 
Heartbeat CPU 0 instructions: 80000000 cycles: 204979412 heartbeat IPC: 0.335394 cumulative IPC: 0.307222 (Simulation time: 0 hr 13 min 59 sec) 
Heartbeat CPU 3 instructions: 90000002 cycles: 213537847 heartbeat IPC: 0.327703 cumulative IPC: 0.339717 (Simulation time: 0 hr 14 min 27 sec) 
Heartbeat CPU 2 instructions: 90000001 cycles: 222748206 heartbeat IPC: 0.331226 cumulative IPC: 0.322445 (Simulation time: 0 hr 14 min 58 sec) 
Heartbeat CPU 1 instructions: 90000003 cycles: 230332648 heartbeat IPC: 0.298777 cumulative IPC: 0.310252 (Simulation time: 0 hr 15 min 22 sec) 
Heartbeat CPU 0 instructions: 90000001 cycles: 234201311 heartbeat IPC: 0.342209 cumulative IPC: 0.311775 (Simulation time: 0 hr 15 min 35 sec) 
*** Reached end of trace for Core: 3 Repeating trace: /scratch/user/eshanbhatia22/THESIS/cloudsuite_traces/cassandra_phase2_core3.trace.gz
Heartbeat CPU 3 instructions: 100000000 cycles: 243100636 heartbeat IPC: 0.338263 cumulative IPC: 0.339533 (Simulation time: 0 hr 16 min 4 sec) 
*** Reached end of trace for Core: 2 Repeating trace: /scratch/user/eshanbhatia22/THESIS/cloudsuite_traces/cassandra_phase2_core2.trace.gz
Heartbeat CPU 2 instructions: 100000000 cycles: 252021159 heartbeat IPC: 0.341612 cumulative IPC: 0.32476 (Simulation time: 0 hr 16 min 31 sec) 
*** Reached end of trace for Core: 1 Repeating trace: /scratch/user/eshanbhatia22/THESIS/cloudsuite_traces/cassandra_phase2_core1.trace.gz
Heartbeat CPU 1 instructions: 100000000 cycles: 263992031 heartbeat IPC: 0.297094 cumulative IPC: 0.30851 (Simulation time: 0 hr 17 min 0 sec) 
*** Reached end of trace for Core: 0 Repeating trace: /scratch/user/eshanbhatia22/THESIS/cloudsuite_traces/cassandra_phase2_core0.trace.gz
Heartbeat CPU 0 instructions: 100000000 cycles: 265692033 heartbeat IPC: 0.317554 cumulative IPC: 0.312486 (Simulation time: 0 hr 17 min 4 sec) 
Heartbeat CPU 3 instructions: 110000003 cycles: 308345581 heartbeat IPC: 0.153269 cumulative IPC: 0.298843 (Simulation time: 0 hr 18 min 16 sec) 
Heartbeat CPU 2 instructions: 110000002 cycles: 317779238 heartbeat IPC: 0.152073 cumulative IPC: 0.287903 (Simulation time: 0 hr 18 min 31 sec) 
Heartbeat CPU 0 instructions: 110000002 cycles: 334297826 heartbeat IPC: 0.14576 cumulative IPC: 0.27725 (Simulation time: 0 hr 19 min 1 sec) 
Heartbeat CPU 1 instructions: 110000001 cycles: 334307645 heartbeat IPC: 0.142216 cumulative IPC: 0.27249 (Simulation time: 0 hr 19 min 1 sec) 
Heartbeat CPU 3 instructions: 120000000 cycles: 354118319 heartbeat IPC: 0.218471 cumulative IPC: 0.288162 (Simulation time: 0 hr 19 min 46 sec) 
Finished CPU 3 instructions: 100000000 cycles: 346652741 cumulative IPC: 0.288473 (Simulation time: 0 hr 19 min 52 sec) 
Heartbeat CPU 2 instructions: 120000000 cycles: 361960334 heartbeat IPC: 0.226341 cumulative IPC: 0.280182 (Simulation time: 0 hr 20 min 10 sec) 
Finished CPU 2 instructions: 100000003 cycles: 356440440 cumulative IPC: 0.280552 (Simulation time: 0 hr 20 min 21 sec) 
Heartbeat CPU 0 instructions: 120000000 cycles: 383102570 heartbeat IPC: 0.204898 cumulative IPC: 0.267794 (Simulation time: 0 hr 21 min 12 sec) 
Finished CPU 0 instructions: 100000001 cycles: 373421896 cumulative IPC: 0.267794 (Simulation time: 0 hr 21 min 12 sec) 
Heartbeat CPU 3 instructions: 130000003 cycles: 383196880 heartbeat IPC: 0.343896 cumulative IPC: 0.292501 (Simulation time: 0 hr 21 min 12 sec) 
Heartbeat CPU 1 instructions: 120000000 cycles: 383967733 heartbeat IPC: 0.201369 cumulative IPC: 0.263054 (Simulation time: 0 hr 21 min 14 sec) 
Finished CPU 1 instructions: 100000002 cycles: 378751862 cumulative IPC: 0.264025 (Simulation time: 0 hr 21 min 29 sec) 

CPU 0 Branch Prediction Accuracy: 97.6111% MPKI: 3.34465

CPU 1 Branch Prediction Accuracy: 97.0697% MPKI: 4.07812

CPU 2 Branch Prediction Accuracy: 97.6257% MPKI: 3.27459

CPU 3 Branch Prediction Accuracy: 97.8587% MPKI: 2.94356

ChampSim completed all CPUs

Total Simulation Statistics (not including warmup)

CPU 0 cumulative IPC: 0.268366 instructions: 101644305 cycles: 378751861
L1D TOTAL     ACCESS:   11563535  HIT:   10727362  MISS:     836173
L1D LOAD      ACCESS:    7597985  HIT:    6865890  MISS:     732095
L1D RFO       ACCESS:    3965550  HIT:    3861472  MISS:     104078
L1D PREFETCH  ACCESS:          0  HIT:          0  MISS:          0
L1D WRITEBACK ACCESS:          0  HIT:          0  MISS:          0
L1I TOTAL     ACCESS:   22537201  HIT:   22311968  MISS:     225233
L1I LOAD      ACCESS:   22537201  HIT:   22311968  MISS:     225233
L1I RFO       ACCESS:          0  HIT:          0  MISS:          0
L1I PREFETCH  ACCESS:          0  HIT:          0  MISS:          0
L1I WRITEBACK ACCESS:          0  HIT:          0  MISS:          0
L2C TOTAL     ACCESS:    1333459  HIT:     448740  MISS:     884719
L2C LOAD      ACCESS:     957324  HIT:     159833  MISS:     797491
L2C RFO       ACCESS:     104073  HIT:      18095  MISS:      85978
L2C PREFETCH  ACCESS:          0  HIT:          0  MISS:          0
L2C WRITEBACK ACCESS:     272062  HIT:     270812  MISS:       1250
LLC TOTAL     ACCESS:    1124409  HIT:     466454  MISS:     657955
LLC LOAD      ACCESS:     797491  HIT:     204000  MISS:     593491
LLC RFO       ACCESS:      85978  HIT:      21719  MISS:      64259
LLC PREFETCH  ACCESS:          0  HIT:          0  MISS:          0
LLC WRITEBACK ACCESS:     240940  HIT:     240735  MISS:        205

CPU 1 cumulative IPC: 0.264025 instructions: 100000002 cycles: 378751862
L1D TOTAL     ACCESS:   11264338  HIT:   10313385  MISS:     950953
L1D LOAD      ACCESS:    7475723  HIT:    6654360  MISS:     821363
L1D RFO       ACCESS:    3788615  HIT:    3659025  MISS:     129590
L1D PREFETCH  ACCESS:          0  HIT:          0  MISS:          0
L1D WRITEBACK ACCESS:          0  HIT:          0  MISS:          0
L1I TOTAL     ACCESS:   22000263  HIT:   21626664  MISS:     373599
L1I LOAD      ACCESS:   22000263  HIT:   21626664  MISS:     373599
L1I RFO       ACCESS:          0  HIT:          0  MISS:          0
L1I PREFETCH  ACCESS:          0  HIT:          0  MISS:          0
L1I WRITEBACK ACCESS:          0  HIT:          0  MISS:          0
L2C TOTAL     ACCESS:    1662141  HIT:     645491  MISS:    1016650
L2C LOAD      ACCESS:    1194955  HIT:     281309  MISS:     913646
L2C RFO       ACCESS:     129582  HIT:      28567  MISS:     101015
L2C PREFETCH  ACCESS:          0  HIT:          0  MISS:          0
L2C WRITEBACK ACCESS:     337604  HIT:     335615  MISS:       1989
LLC TOTAL     ACCESS:    1303848  HIT:     596655  MISS:     707193
LLC LOAD      ACCESS:     913644  HIT:     272132  MISS:     641512
LLC RFO       ACCESS:     101014  HIT:      35494  MISS:      65520
LLC PREFETCH  ACCESS:          0  HIT:          0  MISS:          0
LLC WRITEBACK ACCESS:     289190  HIT:     289029  MISS:        161

CPU 2 cumulative IPC: 0.280778 instructions: 106345224 cycles: 378751862
L1D TOTAL     ACCESS:   11531621  HIT:   10673210  MISS:     858411
L1D LOAD      ACCESS:    7861844  HIT:    7104256  MISS:     757588
L1D RFO       ACCESS:    3669777  HIT:    3568954  MISS:     100823
L1D PREFETCH  ACCESS:          0  HIT:          0  MISS:          0
L1D WRITEBACK ACCESS:          0  HIT:          0  MISS:          0
L1I TOTAL     ACCESS:   23235402  HIT:   23000822  MISS:     234580
L1I LOAD      ACCESS:   23235402  HIT:   23000822  MISS:     234580
L1I RFO       ACCESS:          0  HIT:          0  MISS:          0
L1I PREFETCH  ACCESS:          0  HIT:          0  MISS:          0
L1I WRITEBACK ACCESS:          0  HIT:          0  MISS:          0
L2C TOTAL     ACCESS:    1354883  HIT:     426845  MISS:     928038
L2C LOAD      ACCESS:     992163  HIT:     150576  MISS:     841587
L2C RFO       ACCESS:     100818  HIT:      15782  MISS:      85036
L2C PREFETCH  ACCESS:          0  HIT:          0  MISS:          0
L2C WRITEBACK ACCESS:     261902  HIT:     260487  MISS:       1415
LLC TOTAL     ACCESS:    1162751  HIT:     480002  MISS:     682749
LLC LOAD      ACCESS:     841587  HIT:     220878  MISS:     620709
LLC RFO       ACCESS:      85036  HIT:      23114  MISS:      61922
LLC PREFETCH  ACCESS:          0  HIT:          0  MISS:          0
LLC WRITEBACK ACCESS:     236128  HIT:     236010  MISS:        118

CPU 3 cumulative IPC: 0.292667 instructions: 110848148 cycles: 378751862
L1D TOTAL     ACCESS:   11593446  HIT:   10694625  MISS:     898821
L1D LOAD      ACCESS:    7929370  HIT:    7137416  MISS:     791954
L1D RFO       ACCESS:    3664076  HIT:    3557209  MISS:     106867
L1D PREFETCH  ACCESS:          0  HIT:          0  MISS:          0
L1D WRITEBACK ACCESS:          0  HIT:          0  MISS:          0
L1I TOTAL     ACCESS:   24031253  HIT:   23822375  MISS:     208878
L1I LOAD      ACCESS:   24031253  HIT:   23822375  MISS:     208878
L1I RFO       ACCESS:          0  HIT:          0  MISS:          0
L1I PREFETCH  ACCESS:          0  HIT:          0  MISS:          0
L1I WRITEBACK ACCESS:          0  HIT:          0  MISS:          0
L2C TOTAL     ACCESS:    1378350  HIT:     422765  MISS:     955585
L2C LOAD      ACCESS:    1000824  HIT:     139092  MISS:     861732
L2C RFO       ACCESS:     106859  HIT:      14261  MISS:      92598
L2C PREFETCH  ACCESS:          0  HIT:          0  MISS:          0
L2C WRITEBACK ACCESS:     270667  HIT:     269412  MISS:       1255
LLC TOTAL     ACCESS:    1200398  HIT:     502086  MISS:     698312
LLC LOAD      ACCESS:     861731  HIT:     229954  MISS:     631777
LLC RFO       ACCESS:      92597  HIT:      26195  MISS:      66402
LLC PREFETCH  ACCESS:          0  HIT:          0  MISS:          0
LLC WRITEBACK ACCESS:     246070  HIT:     245937  MISS:        133

Region of Interest Statistics

CPU 0 cumulative IPC: 0.267794 instructions: 100000001 cycles: 373421896
L1D TOTAL     ACCESS:   11397887  HIT:   10572855  MISS:     825032
L1D LOAD      ACCESS:    7482124  HIT:    6761088  MISS:     721036
L1D RFO       ACCESS:    3915763  HIT:    3811767  MISS:     103996
L1D PREFETCH  ACCESS:          0  HIT:          0  MISS:          0
L1D WRITEBACK ACCESS:          0  HIT:          0  MISS:          0
L1D PREFETCH  REQUESTED:          0  ISSUED:          0  USEFUL:          0  USELESS:          0
L1I TOTAL     ACCESS:   22200626  HIT:   21975576  MISS:     225050
L1I LOAD      ACCESS:   22200626  HIT:   21975576  MISS:     225050
L1I RFO       ACCESS:          0  HIT:          0  MISS:          0
L1I PREFETCH  ACCESS:          0  HIT:          0  MISS:          0
L1I WRITEBACK ACCESS:          0  HIT:          0  MISS:          0
L1I PREFETCH  REQUESTED:          0  ISSUED:          0  USEFUL:          0  USELESS:          0
L2C TOTAL     ACCESS:    1319824  HIT:     445662  MISS:     874162
L2C LOAD      ACCESS:     946081  HIT:     159070  MISS:     787011
L2C RFO       ACCESS:     103991  HIT:      18089  MISS:      85902
L2C PREFETCH  ACCESS:          0  HIT:          0  MISS:          0
L2C WRITEBACK ACCESS:     269752  HIT:     268503  MISS:       1249
L2C PREFETCH  REQUESTED:          0  ISSUED:          0  USEFUL:          0  USELESS:          0
LLC TOTAL     ACCESS:    1111709  HIT:     463516  MISS:     648193
LLC LOAD      ACCESS:     787011  HIT:     203252  MISS:     583759
LLC RFO       ACCESS:      85902  HIT:      21672  MISS:      64230
LLC PREFETCH  ACCESS:          0  HIT:          0  MISS:          0
LLC WRITEBACK ACCESS:     238796  HIT:     238592  MISS:        204
LLC PREFETCH  REQUESTED:          0  ISSUED:          0  USEFUL:          0  USELESS:          0
Major fault: 0 Minor fault: 46992

CPU 1 cumulative IPC: 0.264025 instructions: 100000002 cycles: 378751862
L1D TOTAL     ACCESS:   11264338  HIT:   10313385  MISS:     950953
L1D LOAD      ACCESS:    7475723  HIT:    6654360  MISS:     821363
L1D RFO       ACCESS:    3788615  HIT:    3659025  MISS:     129590
L1D PREFETCH  ACCESS:          0  HIT:          0  MISS:          0
L1D WRITEBACK ACCESS:          0  HIT:          0  MISS:          0
L1D PREFETCH  REQUESTED:          0  ISSUED:          0  USEFUL:          0  USELESS:          0
L1I TOTAL     ACCESS:   22000263  HIT:   21626664  MISS:     373599
L1I LOAD      ACCESS:   22000263  HIT:   21626664  MISS:     373599
L1I RFO       ACCESS:          0  HIT:          0  MISS:          0
L1I PREFETCH  ACCESS:          0  HIT:          0  MISS:          0
L1I WRITEBACK ACCESS:          0  HIT:          0  MISS:          0
L1I PREFETCH  REQUESTED:          0  ISSUED:          0  USEFUL:          0  USELESS:          0
L2C TOTAL     ACCESS:    1662141  HIT:     645491  MISS:    1016650
L2C LOAD      ACCESS:    1194955  HIT:     281309  MISS:     913646
L2C RFO       ACCESS:     129582  HIT:      28567  MISS:     101015
L2C PREFETCH  ACCESS:          0  HIT:          0  MISS:          0
L2C WRITEBACK ACCESS:     337604  HIT:     335615  MISS:       1989
L2C PREFETCH  REQUESTED:          0  ISSUED:          0  USEFUL:          0  USELESS:          0
LLC TOTAL     ACCESS:    1303848  HIT:     596655  MISS:     707193
LLC LOAD      ACCESS:     913644  HIT:     272132  MISS:     641512
LLC RFO       ACCESS:     101014  HIT:      35494  MISS:      65520
LLC PREFETCH  ACCESS:          0  HIT:          0  MISS:          0
LLC WRITEBACK ACCESS:     289190  HIT:     289029  MISS:        161
LLC PREFETCH  REQUESTED:          0  ISSUED:          0  USEFUL:          0  USELESS:          0
Major fault: 0 Minor fault: 46745

CPU 2 cumulative IPC: 0.280552 instructions: 100000003 cycles: 356440440
L1D TOTAL     ACCESS:   10887038  HIT:   10094021  MISS:     793017
L1D LOAD      ACCESS:    7431679  HIT:    6730556  MISS:     701123
L1D RFO       ACCESS:    3455359  HIT:    3363465  MISS:      91894
L1D PREFETCH  ACCESS:          0  HIT:          0  MISS:          0
L1D WRITEBACK ACCESS:          0  HIT:          0  MISS:          0
L1D PREFETCH  REQUESTED:          0  ISSUED:          0  USEFUL:          0  USELESS:          0
L1I TOTAL     ACCESS:   21923243  HIT:   21720447  MISS:     202796
L1I LOAD      ACCESS:   21923243  HIT:   21720447  MISS:     202796
L1I RFO       ACCESS:          0  HIT:          0  MISS:          0
L1I PREFETCH  ACCESS:          0  HIT:          0  MISS:          0
L1I WRITEBACK ACCESS:          0  HIT:          0  MISS:          0
L1I PREFETCH  REQUESTED:          0  ISSUED:          0  USEFUL:          0  USELESS:          0
L2C TOTAL     ACCESS:    1238116  HIT:     389343  MISS:     848773
L2C LOAD      ACCESS:     903915  HIT:     133903  MISS:     770012
L2C RFO       ACCESS:      91889  HIT:      14361  MISS:      77528
L2C PREFETCH  ACCESS:          0  HIT:          0  MISS:          0
L2C WRITEBACK ACCESS:     242312  HIT:     241079  MISS:       1233
L2C PREFETCH  REQUESTED:          0  ISSUED:          0  USEFUL:          0  USELESS:          0
LLC TOTAL     ACCESS:    1066530  HIT:     439527  MISS:     627003
LLC LOAD      ACCESS:     770012  HIT:     198883  MISS:     571129
LLC RFO       ACCESS:      77528  HIT:      21768  MISS:      55760
LLC PREFETCH  ACCESS:          0  HIT:          0  MISS:          0
LLC WRITEBACK ACCESS:     218990  HIT:     218876  MISS:        114
LLC PREFETCH  REQUESTED:          0  ISSUED:          0  USEFUL:          0  USELESS:          0
Major fault: 0 Minor fault: 46827

CPU 3 cumulative IPC: 0.288473 instructions: 100000000 cycles: 346652741
L1D TOTAL     ACCESS:   10604601  HIT:    9796966  MISS:     807635
L1D LOAD      ACCESS:    7258403  HIT:    6549710  MISS:     708693
L1D RFO       ACCESS:    3346198  HIT:    3247256  MISS:      98942
L1D PREFETCH  ACCESS:          0  HIT:          0  MISS:          0
L1D WRITEBACK ACCESS:          0  HIT:          0  MISS:          0
L1D PREFETCH  REQUESTED:          0  ISSUED:          0  USEFUL:          0  USELESS:          0
L1I TOTAL     ACCESS:   21837228  HIT:   21647699  MISS:     189529
L1I LOAD      ACCESS:   21837228  HIT:   21647699  MISS:     189529
L1I RFO       ACCESS:          0  HIT:          0  MISS:          0
L1I PREFETCH  ACCESS:          0  HIT:          0  MISS:          0
L1I WRITEBACK ACCESS:          0  HIT:          0  MISS:          0
L1I PREFETCH  REQUESTED:          0  ISSUED:          0  USEFUL:          0  USELESS:          0
L2C TOTAL     ACCESS:    1244994  HIT:     388633  MISS:     856361
L2C LOAD      ACCESS:     898215  HIT:     128824  MISS:     769391
L2C RFO       ACCESS:      98935  HIT:      13108  MISS:      85827
L2C PREFETCH  ACCESS:          0  HIT:          0  MISS:          0
L2C WRITEBACK ACCESS:     247844  HIT:     246701  MISS:       1143
L2C PREFETCH  REQUESTED:          0  ISSUED:          0  USEFUL:          0  USELESS:          0
LLC TOTAL     ACCESS:    1080116  HIT:     452278  MISS:     627838
LLC LOAD      ACCESS:     769390  HIT:     202495  MISS:     566895
LLC RFO       ACCESS:      85826  HIT:      25016  MISS:      60810
LLC PREFETCH  ACCESS:          0  HIT:          0  MISS:          0
LLC WRITEBACK ACCESS:     224900  HIT:     224767  MISS:        133
LLC PREFETCH  REQUESTED:          0  ISSUED:          0  USEFUL:          0  USELESS:          0
Major fault: 0 Minor fault: 48191

DRAM Statistics
 CHANNEL 0
 RQ ROW_BUFFER_HIT:     312674  ROW_BUFFER_MISS:    1064352
 DBUS_CONGESTED:    1175680
 WQ ROW_BUFFER_HIT:      39587  ROW_BUFFER_MISS:     395738  FULL:          0

 CHANNEL 1
 RQ ROW_BUFFER_HIT:     310879  ROW_BUFFER_MISS:    1057618
 DBUS_CONGESTED:    1175680
 WQ ROW_BUFFER_HIT:      39541  ROW_BUFFER_MISS:     394882  FULL:          0

 AVG_CONGESTED_CYCLE: 13
