Initialize SIGNATURE TABLE
ST_SET: 1
ST_WAY: 256
ST_TAG_BIT: 16
ST_TAG_MASK: ffff

Initialize PATTERN TABLE
PT_SET: 512
PT_WAY: 4
SIG_DELTA_BIT: 7
C_SIG_BIT: 4
C_DELTA_BIT: 4

Initialize PREFETCH FILTER
FILTER_SET: 1024

Initialize PERCEPTRON
PERC_ENTRIES: 4096
PERC_FEATURES: 9

*** ChampSim Multicore Out-of-Order Simulator ***

Warmup Instructions: 20000000
Simulation Instructions: 100000000
Number of CPUs: 8
LLC sets: 16384
LLC ways: 16
Off-chip DRAM Size: 8192 MB Channels: 2 Width: 64-bit Data Rate: 1600 MT/s

CPU 0 runs /scratch/user/djimenez/champsim-traces/speccpu2006/xz/429.mcf-217B.champsimtrace.xz
CPU 1 runs /scratch/user/djimenez/champsim-traces/speccpu2006/xz/470.lbm-1274B.champsimtrace.xz
CPU 2 runs /scratch/user/djimenez/champsim-traces/speccpu2006/xz/471.omnetpp-188B.champsimtrace.xz
CPU 3 runs /scratch/user/djimenez/champsim-traces/speccpu2006/xz/462.libquantum-1343B.champsimtrace.xz
CPU 4 runs /scratch/user/djimenez/champsim-traces/speccpu2006/xz/434.zeusmp-10B.champsimtrace.xz
CPU 5 runs /scratch/user/djimenez/champsim-traces/speccpu2006/xz/433.milc-274B.champsimtrace.xz
CPU 6 runs /scratch/user/djimenez/champsim-traces/speccpu2006/xz/482.sphinx3-1100B.champsimtrace.xz
CPU 7 runs /scratch/user/djimenez/champsim-traces/speccpu2006/xz/459.GemsFDTD-1320B.champsimtrace.xz
Heartbeat CPU 5 instructions: 10000002 cycles: 3370590 heartbeat IPC: 2.96684 cumulative IPC: 2.96684 (Simulation time: 0 hr 2 min 39 sec) 
Heartbeat CPU 1 instructions: 10000003 cycles: 3769856 heartbeat IPC: 2.65262 cumulative IPC: 2.65262 (Simulation time: 0 hr 2 min 57 sec) 
Heartbeat CPU 6 instructions: 10000000 cycles: 3878586 heartbeat IPC: 2.57826 cumulative IPC: 2.57826 (Simulation time: 0 hr 3 min 3 sec) 
Heartbeat CPU 4 instructions: 10000003 cycles: 4298902 heartbeat IPC: 2.32618 cumulative IPC: 2.32618 (Simulation time: 0 hr 3 min 23 sec) 
Heartbeat CPU 3 instructions: 10000002 cycles: 5180367 heartbeat IPC: 1.93037 cumulative IPC: 1.93037 (Simulation time: 0 hr 4 min 4 sec) 
Heartbeat CPU 0 instructions: 10000003 cycles: 5763401 heartbeat IPC: 1.73509 cumulative IPC: 1.73509 (Simulation time: 0 hr 4 min 31 sec) 
Heartbeat CPU 2 instructions: 10000001 cycles: 6127606 heartbeat IPC: 1.63196 cumulative IPC: 1.63196 (Simulation time: 0 hr 4 min 49 sec) 
Heartbeat CPU 7 instructions: 10000000 cycles: 6689109 heartbeat IPC: 1.49497 cumulative IPC: 1.49497 (Simulation time: 0 hr 5 min 16 sec) 
Heartbeat CPU 5 instructions: 20000000 cycles: 6741239 heartbeat IPC: 2.96679 cumulative IPC: 2.96681 (Simulation time: 0 hr 5 min 19 sec) 
Heartbeat CPU 1 instructions: 20000000 cycles: 7535108 heartbeat IPC: 2.65586 cumulative IPC: 2.65424 (Simulation time: 0 hr 5 min 58 sec) 
Heartbeat CPU 6 instructions: 20000000 cycles: 7633464 heartbeat IPC: 2.6632 cumulative IPC: 2.62004 (Simulation time: 0 hr 6 min 3 sec) 
Heartbeat CPU 4 instructions: 20000000 cycles: 8671539 heartbeat IPC: 2.28695 cumulative IPC: 2.3064 (Simulation time: 0 hr 6 min 54 sec) 
Heartbeat CPU 5 instructions: 30000003 cycles: 10111473 heartbeat IPC: 2.96715 cumulative IPC: 0.988976 (Simulation time: 0 hr 8 min 1 sec) 
Heartbeat CPU 3 instructions: 20000000 cycles: 10318941 heartbeat IPC: 1.94606 cumulative IPC: 1.93818 (Simulation time: 0 hr 8 min 11 sec) 
Heartbeat CPU 1 instructions: 30000003 cycles: 11304809 heartbeat IPC: 2.65273 cumulative IPC: 0.88458 (Simulation time: 0 hr 8 min 57 sec) 
Heartbeat CPU 6 instructions: 30000003 cycles: 11419141 heartbeat IPC: 2.64154 cumulative IPC: 0.875723 (Simulation time: 0 hr 9 min 2 sec) 
Heartbeat CPU 0 instructions: 20000000 cycles: 12184315 heartbeat IPC: 1.55741 cumulative IPC: 1.64145 (Simulation time: 0 hr 9 min 38 sec) 
Heartbeat CPU 2 instructions: 20000000 cycles: 12227306 heartbeat IPC: 1.63942 cumulative IPC: 1.63568 (Simulation time: 0 hr 9 min 40 sec) 
Heartbeat CPU 4 instructions: 30000001 cycles: 13044851 heartbeat IPC: 2.2866 cumulative IPC: 0.766586 (Simulation time: 0 hr 10 min 20 sec) 
Heartbeat CPU 7 instructions: 20000000 cycles: 13428300 heartbeat IPC: 1.48386 cumulative IPC: 1.48939 (Simulation time: 0 hr 10 min 38 sec) 

Warmup complete CPU 0 instructions: 22103840 cycles: 13428301 (Simulation time: 0 hr 10 min 38 sec) 
Warmup complete CPU 1 instructions: 35629776 cycles: 13428301 (Simulation time: 0 hr 10 min 38 sec) 
Warmup complete CPU 2 instructions: 21953507 cycles: 13428301 (Simulation time: 0 hr 10 min 38 sec) 
Warmup complete CPU 3 instructions: 26002180 cycles: 13428301 (Simulation time: 0 hr 10 min 38 sec) 
Warmup complete CPU 4 instructions: 30920923 cycles: 13428301 (Simulation time: 0 hr 10 min 38 sec) 
Warmup complete CPU 5 instructions: 39840734 cycles: 13428301 (Simulation time: 0 hr 10 min 38 sec) 
Warmup complete CPU 6 instructions: 35419333 cycles: 13428301 (Simulation time: 0 hr 10 min 38 sec) 
Warmup complete CPU 7 instructions: 20000001 cycles: 13428301 (Simulation time: 0 hr 10 min 38 sec) 

Heartbeat CPU 5 instructions: 40000000 cycles: 13697128 heartbeat IPC: 2.78889 cumulative IPC: 0.592448 (Simulation time: 0 hr 10 min 44 sec) 
Heartbeat CPU 1 instructions: 40000000 cycles: 18900451 heartbeat IPC: 1.31654 cumulative IPC: 0.79863 (Simulation time: 0 hr 12 min 26 sec) 
Heartbeat CPU 6 instructions: 40000000 cycles: 19772736 heartbeat IPC: 1.19709 cumulative IPC: 0.721998 (Simulation time: 0 hr 12 min 43 sec) 
Heartbeat CPU 3 instructions: 30000000 cycles: 24638284 heartbeat IPC: 0.698356 cumulative IPC: 0.35663 (Simulation time: 0 hr 14 min 8 sec) 
Heartbeat CPU 4 instructions: 40000000 cycles: 24986106 heartbeat IPC: 0.837433 cumulative IPC: 0.785536 (Simulation time: 0 hr 14 min 14 sec) 
Heartbeat CPU 7 instructions: 30000000 cycles: 28984261 heartbeat IPC: 0.64284 cumulative IPC: 0.64284 (Simulation time: 0 hr 15 min 25 sec) 
Heartbeat CPU 5 instructions: 50000000 cycles: 32759254 heartbeat IPC: 0.5246 cumulative IPC: 0.525544 (Simulation time: 0 hr 16 min 33 sec) 
Heartbeat CPU 1 instructions: 50000000 cycles: 32826494 heartbeat IPC: 0.718079 cumulative IPC: 0.740802 (Simulation time: 0 hr 16 min 34 sec) 
Heartbeat CPU 6 instructions: 50000000 cycles: 34933926 heartbeat IPC: 0.659579 cumulative IPC: 0.677993 (Simulation time: 0 hr 17 min 11 sec) 
Heartbeat CPU 4 instructions: 50000003 cycles: 36819090 heartbeat IPC: 0.845096 cumulative IPC: 0.815666 (Simulation time: 0 hr 17 min 47 sec) 
Heartbeat CPU 7 instructions: 40000000 cycles: 43558031 heartbeat IPC: 0.686164 cumulative IPC: 0.663796 (Simulation time: 0 hr 19 min 45 sec) 
Heartbeat CPU 1 instructions: 60000000 cycles: 46510103 heartbeat IPC: 0.730801 cumulative IPC: 0.736666 (Simulation time: 0 hr 20 min 38 sec) 
Heartbeat CPU 6 instructions: 60000000 cycles: 47703804 heartbeat IPC: 0.783093 cumulative IPC: 0.71715 (Simulation time: 0 hr 20 min 58 sec) 
Heartbeat CPU 4 instructions: 60000000 cycles: 49892351 heartbeat IPC: 0.76492 cumulative IPC: 0.797472 (Simulation time: 0 hr 21 min 33 sec) 
Heartbeat CPU 5 instructions: 60000000 cycles: 51723420 heartbeat IPC: 0.52731 cumulative IPC: 0.526419 (Simulation time: 0 hr 22 min 7 sec) 
Heartbeat CPU 0 instructions: 30000002 cycles: 52088711 heartbeat IPC: 0.250599 cumulative IPC: 0.204244 (Simulation time: 0 hr 22 min 13 sec) 
Heartbeat CPU 3 instructions: 40000000 cycles: 52374237 heartbeat IPC: 0.360543 cumulative IPC: 0.359417 (Simulation time: 0 hr 22 min 18 sec) 
Heartbeat CPU 1 instructions: 70000002 cycles: 61991614 heartbeat IPC: 0.645932 cumulative IPC: 0.707741 (Simulation time: 0 hr 24 min 46 sec) 
Heartbeat CPU 4 instructions: 70000002 cycles: 62572861 heartbeat IPC: 0.788612 cumulative IPC: 0.795186 (Simulation time: 0 hr 24 min 56 sec) 
Heartbeat CPU 6 instructions: 70000001 cycles: 63938578 heartbeat IPC: 0.615962 cumulative IPC: 0.684626 (Simulation time: 0 hr 25 min 19 sec) 
Heartbeat CPU 2 instructions: 30000001 cycles: 65796410 heartbeat IPC: 0.186675 cumulative IPC: 0.153653 (Simulation time: 0 hr 25 min 50 sec) 
Heartbeat CPU 0 instructions: 40000000 cycles: 75205708 heartbeat IPC: 0.432582 cumulative IPC: 0.289688 (Simulation time: 0 hr 28 min 15 sec) 
Heartbeat CPU 4 instructions: 80000000 cycles: 77994126 heartbeat IPC: 0.648455 cumulative IPC: 0.76014 (Simulation time: 0 hr 29 min 4 sec) 
Heartbeat CPU 1 instructions: 80000000 cycles: 79349382 heartbeat IPC: 0.576111 cumulative IPC: 0.673081 (Simulation time: 0 hr 29 min 27 sec) 
Heartbeat CPU 6 instructions: 80000000 cycles: 80144800 heartbeat IPC: 0.617047 cumulative IPC: 0.668211 (Simulation time: 0 hr 29 min 40 sec) 
Heartbeat CPU 5 instructions: 70000000 cycles: 84142285 heartbeat IPC: 0.308462 cumulative IPC: 0.426496 (Simulation time: 0 hr 30 min 41 sec) 
Heartbeat CPU 7 instructions: 50000000 cycles: 86022991 heartbeat IPC: 0.235488 cumulative IPC: 0.413253 (Simulation time: 0 hr 31 min 16 sec) 
Heartbeat CPU 3 instructions: 50000001 cycles: 86283147 heartbeat IPC: 0.294908 cumulative IPC: 0.329392 (Simulation time: 0 hr 31 min 21 sec) 
Heartbeat CPU 4 instructions: 90000001 cycles: 92360200 heartbeat IPC: 0.696084 cumulative IPC: 0.748482 (Simulation time: 0 hr 33 min 0 sec) 
Heartbeat CPU 1 instructions: 90000003 cycles: 94696436 heartbeat IPC: 0.651591 cumulative IPC: 0.669023 (Simulation time: 0 hr 33 min 38 sec) 
Heartbeat CPU 6 instructions: 90000003 cycles: 95190114 heartbeat IPC: 0.664659 cumulative IPC: 0.667557 (Simulation time: 0 hr 33 min 46 sec) 
Heartbeat CPU 5 instructions: 80000000 cycles: 103775941 heartbeat IPC: 0.509329 cumulative IPC: 0.444497 (Simulation time: 0 hr 36 min 3 sec) 
Heartbeat CPU 4 instructions: 100000000 cycles: 104290113 heartbeat IPC: 0.838229 cumulative IPC: 0.760265 (Simulation time: 0 hr 36 min 11 sec) 
Heartbeat CPU 1 instructions: 100000000 cycles: 110492406 heartbeat IPC: 0.633073 cumulative IPC: 0.663172 (Simulation time: 0 hr 37 min 48 sec) 
Heartbeat CPU 6 instructions: 100000000 cycles: 110731508 heartbeat IPC: 0.643443 cumulative IPC: 0.663705 (Simulation time: 0 hr 37 min 52 sec) 
Heartbeat CPU 0 instructions: 50000001 cycles: 112077701 heartbeat IPC: 0.271209 cumulative IPC: 0.282781 (Simulation time: 0 hr 38 min 14 sec) 
Heartbeat CPU 3 instructions: 60000000 cycles: 115545333 heartbeat IPC: 0.341738 cumulative IPC: 0.33293 (Simulation time: 0 hr 39 min 9 sec) 
Heartbeat CPU 4 instructions: 110000001 cycles: 116821330 heartbeat IPC: 0.798007 cumulative IPC: 0.76484 (Simulation time: 0 hr 39 min 29 sec) 
Heartbeat CPU 5 instructions: 90000001 cycles: 122662531 heartbeat IPC: 0.529476 cumulative IPC: 0.45919 (Simulation time: 0 hr 41 min 6 sec) 
Heartbeat CPU 2 instructions: 40000000 cycles: 123410023 heartbeat IPC: 0.17357 cumulative IPC: 0.164086 (Simulation time: 0 hr 41 min 18 sec) 
Heartbeat CPU 6 instructions: 110000002 cycles: 123610304 heartbeat IPC: 0.77647 cumulative IPC: 0.676886 (Simulation time: 0 hr 41 min 22 sec) 
Heartbeat CPU 1 instructions: 110000002 cycles: 125400486 heartbeat IPC: 0.670777 cumulative IPC: 0.664185 (Simulation time: 0 hr 41 min 53 sec) 
Heartbeat CPU 4 instructions: 120000000 cycles: 128967349 heartbeat IPC: 0.823315 cumulative IPC: 0.770987 (Simulation time: 0 hr 42 min 50 sec) 
Heartbeat CPU 7 instructions: 60000000 cycles: 135083463 heartbeat IPC: 0.20383 cumulative IPC: 0.328798 (Simulation time: 0 hr 44 min 34 sec) 
Heartbeat CPU 3 instructions: 70000003 cycles: 135955267 heartbeat IPC: 0.489958 cumulative IPC: 0.359087 (Simulation time: 0 hr 44 min 50 sec) 
Heartbeat CPU 6 instructions: 120000000 cycles: 136929831 heartbeat IPC: 0.750777 cumulative IPC: 0.684855 (Simulation time: 0 hr 45 min 9 sec) 
Heartbeat CPU 1 instructions: 120000000 cycles: 138712640 heartbeat IPC: 0.751193 cumulative IPC: 0.67343 (Simulation time: 0 hr 45 min 44 sec) 
Heartbeat CPU 5 instructions: 100000000 cycles: 140006181 heartbeat IPC: 0.57658 cumulative IPC: 0.475275 (Simulation time: 0 hr 46 min 10 sec) 
Heartbeat CPU 4 instructions: 130000001 cycles: 140321481 heartbeat IPC: 0.880737 cumulative IPC: 0.780807 (Simulation time: 0 hr 46 min 15 sec) 
Finished CPU 4 instructions: 100000000 cycles: 128148411 cumulative IPC: 0.780345 (Simulation time: 0 hr 46 min 38 sec) 
Heartbeat CPU 6 instructions: 130000000 cycles: 149869969 heartbeat IPC: 0.772789 cumulative IPC: 0.693195 (Simulation time: 0 hr 48 min 55 sec) 
Heartbeat CPU 1 instructions: 130000002 cycles: 152147106 heartbeat IPC: 0.744354 cumulative IPC: 0.680299 (Simulation time: 0 hr 49 min 32 sec) 
Heartbeat CPU 4 instructions: 140000000 cycles: 153178198 heartbeat IPC: 0.777803 cumulative IPC: 0.780531 (Simulation time: 0 hr 49 min 48 sec) 
Heartbeat CPU 3 instructions: 80000000 cycles: 156268031 heartbeat IPC: 0.492301 cumulative IPC: 0.378031 (Simulation time: 0 hr 50 min 41 sec) 
Finished CPU 6 instructions: 100000000 cycles: 143637705 cumulative IPC: 0.696196 (Simulation time: 0 hr 50 min 54 sec) 
Heartbeat CPU 5 instructions: 110000001 cycles: 157669829 heartbeat IPC: 0.566135 cumulative IPC: 0.486401 (Simulation time: 0 hr 51 min 4 sec) 
Finished CPU 1 instructions: 100000000 cycles: 146509040 cumulative IPC: 0.682552 (Simulation time: 0 hr 51 min 42 sec) 
Heartbeat CPU 6 instructions: 140000000 cycles: 162917195 heartbeat IPC: 0.766446 cumulative IPC: 0.699588 (Simulation time: 0 hr 52 min 33 sec) 
Heartbeat CPU 4 instructions: 150000000 cycles: 165519703 heartbeat IPC: 0.810274 cumulative IPC: 0.782944 (Simulation time: 0 hr 53 min 15 sec) 
Heartbeat CPU 1 instructions: 140000000 cycles: 166082133 heartbeat IPC: 0.717616 cumulative IPC: 0.683705 (Simulation time: 0 hr 53 min 24 sec) 
Heartbeat CPU 0 instructions: 60000000 cycles: 171244157 heartbeat IPC: 0.169015 cumulative IPC: 0.240129 (Simulation time: 0 hr 55 min 1 sec) 
Heartbeat CPU 7 instructions: 70000003 cycles: 173000697 heartbeat IPC: 0.263732 cumulative IPC: 0.313337 (Simulation time: 0 hr 55 min 38 sec) 
Heartbeat CPU 5 instructions: 120000000 cycles: 174893346 heartbeat IPC: 0.580601 cumulative IPC: 0.49645 (Simulation time: 0 hr 56 min 17 sec) 
Heartbeat CPU 3 instructions: 90000001 cycles: 175429691 heartbeat IPC: 0.521876 cumulative IPC: 0.395045 (Simulation time: 0 hr 56 min 27 sec) 
Heartbeat CPU 6 instructions: 150000003 cycles: 175789349 heartbeat IPC: 0.776871 cumulative IPC: 0.705715 (Simulation time: 0 hr 56 min 34 sec) 
Heartbeat CPU 4 instructions: 160000000 cycles: 177462856 heartbeat IPC: 0.8373 cumulative IPC: 0.786902 (Simulation time: 0 hr 57 min 5 sec) 
Heartbeat CPU 1 instructions: 150000002 cycles: 178614331 heartbeat IPC: 0.797945 cumulative IPC: 0.692372 (Simulation time: 0 hr 57 min 26 sec) 
Heartbeat CPU 2 instructions: 50000003 cycles: 182236324 heartbeat IPC: 0.169992 cumulative IPC: 0.166144 (Simulation time: 0 hr 58 min 40 sec) 
Heartbeat CPU 6 instructions: 160000000 cycles: 188156929 heartbeat IPC: 0.808565 cumulative IPC: 0.712995 (Simulation time: 1 hr 0 min 35 sec) 
Heartbeat CPU 4 instructions: 170000001 cycles: 189709571 heartbeat IPC: 0.816546 cumulative IPC: 0.788961 (Simulation time: 1 hr 1 min 3 sec) 
Heartbeat CPU 1 instructions: 160000000 cycles: 191107287 heartbeat IPC: 0.800451 cumulative IPC: 0.699971 (Simulation time: 1 hr 1 min 28 sec) 
Heartbeat CPU 7 instructions: 80000000 cycles: 192219879 heartbeat IPC: 0.520313 cumulative IPC: 0.335586 (Simulation time: 1 hr 1 min 49 sec) 
Heartbeat CPU 5 instructions: 130000003 cycles: 192266161 heartbeat IPC: 0.575612 cumulative IPC: 0.50414 (Simulation time: 1 hr 1 min 50 sec) 
Heartbeat CPU 3 instructions: 100000000 cycles: 194716567 heartbeat IPC: 0.518487 cumulative IPC: 0.408178 (Simulation time: 1 hr 2 min 34 sec) 
Heartbeat CPU 6 instructions: 170000002 cycles: 201464927 heartbeat IPC: 0.751428 cumulative IPC: 0.715715 (Simulation time: 1 hr 4 min 33 sec) 
Heartbeat CPU 0 instructions: 70000001 cycles: 202019674 heartbeat IPC: 0.324934 cumulative IPC: 0.253968 (Simulation time: 1 hr 4 min 43 sec) 
Heartbeat CPU 4 instructions: 180000000 cycles: 202573422 heartbeat IPC: 0.777372 cumulative IPC: 0.788173 (Simulation time: 1 hr 4 min 54 sec) 
Heartbeat CPU 1 instructions: 170000002 cycles: 204771992 heartbeat IPC: 0.731812 cumulative IPC: 0.702245 (Simulation time: 1 hr 5 min 35 sec) 
Finished CPU 5 instructions: 100000003 cycles: 196315841 cumulative IPC: 0.509383 (Simulation time: 1 hr 7 min 6 sec) 
Heartbeat CPU 5 instructions: 140000000 cycles: 210024295 heartbeat IPC: 0.563122 cumulative IPC: 0.509467 (Simulation time: 1 hr 7 min 11 sec) 
Heartbeat CPU 7 instructions: 90000000 cycles: 210893872 heartbeat IPC: 0.535504 cumulative IPC: 0.354492 (Simulation time: 1 hr 7 min 26 sec) 
Heartbeat CPU 6 instructions: 180000000 cycles: 214038642 heartbeat IPC: 0.79531 cumulative IPC: 0.720704 (Simulation time: 1 hr 8 min 22 sec) 
Heartbeat CPU 4 instructions: 190000003 cycles: 214117762 heartbeat IPC: 0.866226 cumulative IPC: 0.792663 (Simulation time: 1 hr 8 min 23 sec) 
Heartbeat CPU 3 instructions: 110000000 cycles: 214480037 heartbeat IPC: 0.505984 cumulative IPC: 0.417792 (Simulation time: 1 hr 8 min 30 sec) 
Heartbeat CPU 1 instructions: 180000000 cycles: 218303945 heartbeat IPC: 0.738991 cumulative IPC: 0.704672 (Simulation time: 1 hr 9 min 39 sec) 
Heartbeat CPU 6 instructions: 190000001 cycles: 226400471 heartbeat IPC: 0.808942 cumulative IPC: 0.725826 (Simulation time: 1 hr 12 min 8 sec) 
Heartbeat CPU 7 instructions: 100000000 cycles: 227186487 heartbeat IPC: 0.613775 cumulative IPC: 0.374255 (Simulation time: 1 hr 12 min 23 sec) 
Heartbeat CPU 4 instructions: 200000000 cycles: 227505717 heartbeat IPC: 0.74694 cumulative IPC: 0.789803 (Simulation time: 1 hr 12 min 29 sec) 
Heartbeat CPU 5 instructions: 150000000 cycles: 227649878 heartbeat IPC: 0.567357 cumulative IPC: 0.51423 (Simulation time: 1 hr 12 min 31 sec) 
Heartbeat CPU 1 instructions: 190000003 cycles: 231982453 heartbeat IPC: 0.731074 cumulative IPC: 0.706325 (Simulation time: 1 hr 13 min 53 sec) 
Heartbeat CPU 3 instructions: 120000000 cycles: 234536949 heartbeat IPC: 0.498581 cumulative IPC: 0.425121 (Simulation time: 1 hr 14 min 41 sec) 
Heartbeat CPU 6 instructions: 200000000 cycles: 238904627 heartbeat IPC: 0.799734 cumulative IPC: 0.729924 (Simulation time: 1 hr 16 min 0 sec) 
Heartbeat CPU 4 instructions: 210000000 cycles: 240225987 heartbeat IPC: 0.786147 cumulative IPC: 0.789598 (Simulation time: 1 hr 16 min 24 sec) 
Heartbeat CPU 2 instructions: 60000000 cycles: 240643055 heartbeat IPC: 0.171213 cumulative IPC: 0.167447 (Simulation time: 1 hr 16 min 31 sec) 
Heartbeat CPU 7 instructions: 110000002 cycles: 242387551 heartbeat IPC: 0.657849 cumulative IPC: 0.393083 (Simulation time: 1 hr 17 min 6 sec) 
Heartbeat CPU 5 instructions: 160000000 cycles: 244556402 heartbeat IPC: 0.591488 cumulative IPC: 0.519882 (Simulation time: 1 hr 17 min 52 sec) 
Heartbeat CPU 1 instructions: 200000000 cycles: 245291546 heartbeat IPC: 0.751366 cumulative IPC: 0.70891 (Simulation time: 1 hr 18 min 7 sec) 
Finished CPU 3 instructions: 100000001 cycles: 232936396 cumulative IPC: 0.429302 (Simulation time: 1 hr 18 min 28 sec) 
Heartbeat CPU 6 instructions: 210000000 cycles: 251646530 heartbeat IPC: 0.784812 cumulative IPC: 0.73286 (Simulation time: 1 hr 20 min 12 sec) 
Heartbeat CPU 4 instructions: 220000000 cycles: 252542036 heartbeat IPC: 0.811949 cumulative IPC: 0.79075 (Simulation time: 1 hr 20 min 29 sec) 
Heartbeat CPU 3 instructions: 130000003 cycles: 254009595 heartbeat IPC: 0.513541 cumulative IPC: 0.432277 (Simulation time: 1 hr 21 min 1 sec) 
Heartbeat CPU 0 instructions: 80000000 cycles: 254217303 heartbeat IPC: 0.19158 cumulative IPC: 0.240444 (Simulation time: 1 hr 21 min 5 sec) 
Heartbeat CPU 7 instructions: 120000000 cycles: 257552236 heartbeat IPC: 0.659427 cumulative IPC: 0.409628 (Simulation time: 1 hr 22 min 17 sec) 
Finished CPU 7 instructions: 100000002 cycles: 244123944 cumulative IPC: 0.409628 (Simulation time: 1 hr 22 min 17 sec) 
Heartbeat CPU 1 instructions: 210000000 cycles: 257570819 heartbeat IPC: 0.81438 cumulative IPC: 0.714215 (Simulation time: 1 hr 22 min 17 sec) 
Heartbeat CPU 5 instructions: 170000002 cycles: 260665409 heartbeat IPC: 0.620771 cumulative IPC: 0.526455 (Simulation time: 1 hr 23 min 20 sec) 
Heartbeat CPU 6 instructions: 220000000 cycles: 264573156 heartbeat IPC: 0.773597 cumulative IPC: 0.734957 (Simulation time: 1 hr 24 min 28 sec) 
Heartbeat CPU 4 instructions: 230000001 cycles: 265818109 heartbeat IPC: 0.753235 cumulative IPC: 0.788776 (Simulation time: 1 hr 24 min 50 sec) 
Heartbeat CPU 7 instructions: 130000003 cycles: 269976685 heartbeat IPC: 0.804865 cumulative IPC: 0.428769 (Simulation time: 1 hr 26 min 4 sec) 
Heartbeat CPU 1 instructions: 220000000 cycles: 272236482 heartbeat IPC: 0.681865 cumulative IPC: 0.712382 (Simulation time: 1 hr 26 min 43 sec) 
Heartbeat CPU 3 instructions: 140000000 cycles: 277780033 heartbeat IPC: 0.42069 cumulative IPC: 0.431235 (Simulation time: 1 hr 28 min 21 sec) 
Heartbeat CPU 4 instructions: 240000000 cycles: 278350878 heartbeat IPC: 0.797908 cumulative IPC: 0.789208 (Simulation time: 1 hr 28 min 30 sec) 
Heartbeat CPU 6 instructions: 230000001 cycles: 279450925 heartbeat IPC: 0.672144 cumulative IPC: 0.731444 (Simulation time: 1 hr 28 min 49 sec) 
Heartbeat CPU 7 instructions: 140000000 cycles: 281347025 heartbeat IPC: 0.879481 cumulative IPC: 0.447897 (Simulation time: 1 hr 29 min 24 sec) 
Heartbeat CPU 5 instructions: 180000000 cycles: 282948326 heartbeat IPC: 0.448774 cumulative IPC: 0.520033 (Simulation time: 1 hr 29 min 51 sec) 
Heartbeat CPU 1 instructions: 230000001 cycles: 288236481 heartbeat IPC: 0.625 cumulative IPC: 0.707294 (Simulation time: 1 hr 31 min 24 sec) 
Heartbeat CPU 4 instructions: 250000003 cycles: 290876334 heartbeat IPC: 0.798374 cumulative IPC: 0.789622 (Simulation time: 1 hr 32 min 9 sec) 
Heartbeat CPU 7 instructions: 150000002 cycles: 292591981 heartbeat IPC: 0.889288 cumulative IPC: 0.465677 (Simulation time: 1 hr 32 min 38 sec) 
Heartbeat CPU 6 instructions: 240000000 cycles: 293813274 heartbeat IPC: 0.696265 cumulative IPC: 0.729642 (Simulation time: 1 hr 33 min 0 sec) 
Heartbeat CPU 2 instructions: 70000000 cycles: 298051452 heartbeat IPC: 0.174191 cumulative IPC: 0.168807 (Simulation time: 1 hr 34 min 11 sec) 
Heartbeat CPU 7 instructions: 160000000 cycles: 303737105 heartbeat IPC: 0.897253 cumulative IPC: 0.482245 (Simulation time: 1 hr 36 min 0 sec) 
Heartbeat CPU 1 instructions: 240000000 cycles: 304303362 heartbeat IPC: 0.622398 cumulative IPC: 0.702605 (Simulation time: 1 hr 36 min 11 sec) 
Heartbeat CPU 4 instructions: 260000000 cycles: 304416456 heartbeat IPC: 0.738546 cumulative IPC: 0.787245 (Simulation time: 1 hr 36 min 13 sec) 
Heartbeat CPU 0 instructions: 90000000 cycles: 304705811 heartbeat IPC: 0.198065 cumulative IPC: 0.233098 (Simulation time: 1 hr 36 min 19 sec) 
Heartbeat CPU 3 instructions: 150000000 cycles: 304895943 heartbeat IPC: 0.368787 cumulative IPC: 0.425426 (Simulation time: 1 hr 36 min 23 sec) 
Heartbeat CPU 5 instructions: 190000001 cycles: 305073418 heartbeat IPC: 0.451976 cumulative IPC: 0.51487 (Simulation time: 1 hr 36 min 26 sec) 
Heartbeat CPU 6 instructions: 250000002 cycles: 308102671 heartbeat IPC: 0.69982 cumulative IPC: 0.728196 (Simulation time: 1 hr 37 min 22 sec) 
Heartbeat CPU 7 instructions: 170000003 cycles: 314836846 heartbeat IPC: 0.900922 cumulative IPC: 0.497663 (Simulation time: 1 hr 39 min 17 sec) 
Heartbeat CPU 4 instructions: 270000000 cycles: 318183458 heartbeat IPC: 0.726375 cumulative IPC: 0.784496 (Simulation time: 1 hr 40 min 12 sec) 
Heartbeat CPU 1 instructions: 250000000 cycles: 320555017 heartbeat IPC: 0.615322 cumulative IPC: 0.697986 (Simulation time: 1 hr 40 min 54 sec) 
Heartbeat CPU 6 instructions: 260000000 cycles: 323526507 heartbeat IPC: 0.648347 cumulative IPC: 0.724224 (Simulation time: 1 hr 41 min 43 sec) 
Heartbeat CPU 7 instructions: 180000000 cycles: 326047691 heartbeat IPC: 0.891993 cumulative IPC: 0.511804 (Simulation time: 1 hr 42 min 25 sec) 
Heartbeat CPU 5 instructions: 200000000 cycles: 327428841 heartbeat IPC: 0.447319 cumulative IPC: 0.51006 (Simulation time: 1 hr 42 min 49 sec) 
Heartbeat CPU 4 instructions: 280000000 cycles: 331189715 heartbeat IPC: 0.768861 cumulative IPC: 0.783856 (Simulation time: 1 hr 43 min 55 sec) 
Heartbeat CPU 3 instructions: 160000000 cycles: 333596310 heartbeat IPC: 0.348428 cumulative IPC: 0.418523 (Simulation time: 1 hr 44 min 36 sec) 
Heartbeat CPU 1 instructions: 260000000 cycles: 337187458 heartbeat IPC: 0.601235 cumulative IPC: 0.693016 (Simulation time: 1 hr 45 min 35 sec) 
Heartbeat CPU 7 instructions: 190000000 cycles: 338240822 heartbeat IPC: 0.820134 cumulative IPC: 0.523379 (Simulation time: 1 hr 45 min 51 sec) 
Heartbeat CPU 6 instructions: 270000003 cycles: 339339411 heartbeat IPC: 0.632395 cumulative IPC: 0.719769 (Simulation time: 1 hr 46 min 8 sec) 
Heartbeat CPU 4 instructions: 290000003 cycles: 345471682 heartbeat IPC: 0.700184 cumulative IPC: 0.780257 (Simulation time: 1 hr 47 min 54 sec) 
Heartbeat CPU 7 instructions: 200000000 cycles: 350221739 heartbeat IPC: 0.834661 cumulative IPC: 0.534452 (Simulation time: 1 hr 49 min 18 sec) 
Heartbeat CPU 6 instructions: 280000000 cycles: 355546089 heartbeat IPC: 0.617029 cumulative IPC: 0.714902 (Simulation time: 1 hr 50 min 38 sec) 
Heartbeat CPU 5 instructions: 210000003 cycles: 358215058 heartbeat IPC: 0.324821 cumulative IPC: 0.49352 (Simulation time: 1 hr 51 min 22 sec) 
Heartbeat CPU 0 instructions: 100000000 cycles: 358265170 heartbeat IPC: 0.186709 cumulative IPC: 0.225893 (Simulation time: 1 hr 51 min 23 sec) 
Heartbeat CPU 4 instructions: 300000000 cycles: 358401276 heartbeat IPC: 0.773419 cumulative IPC: 0.78 (Simulation time: 1 hr 51 min 25 sec) 
Heartbeat CPU 7 instructions: 210000003 cycles: 362937223 heartbeat IPC: 0.786443 cumulative IPC: 0.54362 (Simulation time: 1 hr 52 min 47 sec) 
Heartbeat CPU 3 instructions: 170000003 cycles: 365990511 heartbeat IPC: 0.308697 cumulative IPC: 0.408432 (Simulation time: 1 hr 53 min 34 sec) 
Heartbeat CPU 1 instructions: 270000000 cycles: 367058649 heartbeat IPC: 0.334771 cumulative IPC: 0.662755 (Simulation time: 1 hr 53 min 50 sec) 
Heartbeat CPU 2 instructions: 80000000 cycles: 369390652 heartbeat IPC: 0.140175 cumulative IPC: 0.163069 (Simulation time: 1 hr 54 min 29 sec) 
Heartbeat CPU 4 instructions: 310000003 cycles: 370916022 heartbeat IPC: 0.799058 cumulative IPC: 0.780668 (Simulation time: 1 hr 54 min 55 sec) 
Heartbeat CPU 6 instructions: 290000001 cycles: 373920097 heartbeat IPC: 0.544247 cumulative IPC: 0.706204 (Simulation time: 1 hr 55 min 41 sec) 
Heartbeat CPU 7 instructions: 220000000 cycles: 375349327 heartbeat IPC: 0.805665 cumulative IPC: 0.552607 (Simulation time: 1 hr 56 min 3 sec) 
Heartbeat CPU 1 instructions: 280000000 cycles: 384179777 heartbeat IPC: 0.584074 cumulative IPC: 0.659121 (Simulation time: 1 hr 58 min 40 sec) 
Heartbeat CPU 4 instructions: 320000000 cycles: 384484071 heartbeat IPC: 0.737025 cumulative IPC: 0.779072 (Simulation time: 1 hr 58 min 45 sec) 
Heartbeat CPU 7 instructions: 230000002 cycles: 387268029 heartbeat IPC: 0.839018 cumulative IPC: 0.561738 (Simulation time: 1 hr 59 min 30 sec) 
Heartbeat CPU 6 instructions: 300000000 cycles: 391516907 heartbeat IPC: 0.568285 cumulative IPC: 0.699785 (Simulation time: 2 hr 0 min 39 sec) 
Heartbeat CPU 5 instructions: 220000000 cycles: 392471110 heartbeat IPC: 0.291919 cumulative IPC: 0.475301 (Simulation time: 2 hr 0 min 55 sec) 
Heartbeat CPU 4 instructions: 330000003 cycles: 396944640 heartbeat IPC: 0.802532 cumulative IPC: 0.779834 (Simulation time: 2 hr 2 min 8 sec) 
Heartbeat CPU 3 instructions: 180000000 cycles: 397398965 heartbeat IPC: 0.318386 cumulative IPC: 0.401067 (Simulation time: 2 hr 2 min 16 sec) 
Heartbeat CPU 0 instructions: 110000002 cycles: 399219235 heartbeat IPC: 0.244176 cumulative IPC: 0.227834 (Simulation time: 2 hr 2 min 49 sec) 
Heartbeat CPU 7 instructions: 240000000 cycles: 399713353 heartbeat IPC: 0.803514 cumulative IPC: 0.569528 (Simulation time: 2 hr 2 min 58 sec) 
Heartbeat CPU 1 instructions: 290000000 cycles: 401096211 heartbeat IPC: 0.591141 cumulative IPC: 0.656155 (Simulation time: 2 hr 3 min 24 sec) 
Heartbeat CPU 6 instructions: 310000002 cycles: 408387236 heartbeat IPC: 0.592757 cumulative IPC: 0.695213 (Simulation time: 2 hr 5 min 33 sec) 
Heartbeat CPU 4 instructions: 340000000 cycles: 409715884 heartbeat IPC: 0.783009 cumulative IPC: 0.779936 (Simulation time: 2 hr 5 min 55 sec) 
Heartbeat CPU 7 instructions: 250000000 cycles: 411505314 heartbeat IPC: 0.848035 cumulative IPC: 0.577778 (Simulation time: 2 hr 6 min 24 sec) 
Heartbeat CPU 0 instructions: 120000000 cycles: 417847784 heartbeat IPC: 0.53681 cumulative IPC: 0.242066 (Simulation time: 2 hr 8 min 22 sec) 
Heartbeat CPU 1 instructions: 300000000 cycles: 417984872 heartbeat IPC: 0.592113 cumulative IPC: 0.653481 (Simulation time: 2 hr 8 min 25 sec) 
Heartbeat CPU 7 instructions: 260000000 cycles: 422992782 heartbeat IPC: 0.870514 cumulative IPC: 0.585988 (Simulation time: 2 hr 9 min 46 sec) 
Heartbeat CPU 4 instructions: 350000002 cycles: 423936122 heartbeat IPC: 0.703223 cumulative IPC: 0.777279 (Simulation time: 2 hr 10 min 2 sec) 
Heartbeat CPU 6 instructions: 320000000 cycles: 425672206 heartbeat IPC: 0.578537 cumulative IPC: 0.690321 (Simulation time: 2 hr 10 min 31 sec) 
Heartbeat CPU 5 instructions: 230000001 cycles: 425715273 heartbeat IPC: 0.300805 cumulative IPC: 0.46123 (Simulation time: 2 hr 10 min 32 sec) 
Heartbeat CPU 3 instructions: 190000003 cycles: 427185529 heartbeat IPC: 0.335722 cumulative IPC: 0.396362 (Simulation time: 2 hr 10 min 57 sec) 
Heartbeat CPU 7 instructions: 270000002 cycles: 435134144 heartbeat IPC: 0.823631 cumulative IPC: 0.59283 (Simulation time: 2 hr 13 min 11 sec) 
Heartbeat CPU 1 instructions: 310000002 cycles: 435384375 heartbeat IPC: 0.574729 cumulative IPC: 0.650234 (Simulation time: 2 hr 13 min 16 sec) 
Heartbeat CPU 2 instructions: 90000002 cycles: 437652962 heartbeat IPC: 0.146494 cumulative IPC: 0.160402 (Simulation time: 2 hr 13 min 55 sec) 
Heartbeat CPU 4 instructions: 360000000 cycles: 438196381 heartbeat IPC: 0.701249 cumulative IPC: 0.774726 (Simulation time: 2 hr 14 min 4 sec) 
Heartbeat CPU 6 instructions: 330000000 cycles: 444280403 heartbeat IPC: 0.537398 cumulative IPC: 0.683716 (Simulation time: 2 hr 15 min 44 sec) 
Heartbeat CPU 7 instructions: 280000000 cycles: 446377327 heartbeat IPC: 0.889428 cumulative IPC: 0.600533 (Simulation time: 2 hr 16 min 20 sec) 
Finished CPU 0 instructions: 100000003 cycles: 433490931 cumulative IPC: 0.230685 (Simulation time: 2 hr 16 min 30 sec) 
Heartbeat CPU 5 instructions: 240000000 cycles: 447683799 heartbeat IPC: 0.455197 cumulative IPC: 0.460925 (Simulation time: 2 hr 16 min 46 sec) 
Heartbeat CPU 4 instructions: 370000003 cycles: 451099613 heartbeat IPC: 0.775 cumulative IPC: 0.774735 (Simulation time: 2 hr 17 min 51 sec) 
Heartbeat CPU 1 instructions: 320000000 cycles: 452056070 heartbeat IPC: 0.599819 cumulative IPC: 0.648318 (Simulation time: 2 hr 18 min 9 sec) 
Heartbeat CPU 3 instructions: 200000000 cycles: 456017851 heartbeat IPC: 0.346833 cumulative IPC: 0.393136 (Simulation time: 2 hr 19 min 16 sec) 
Heartbeat CPU 7 instructions: 290000001 cycles: 456971602 heartbeat IPC: 0.943906 cumulative IPC: 0.608734 (Simulation time: 2 hr 19 min 32 sec) 
Heartbeat CPU 6 instructions: 340000000 cycles: 459802588 heartbeat IPC: 0.644239 cumulative IPC: 0.682344 (Simulation time: 2 hr 20 min 17 sec) 
Heartbeat CPU 4 instructions: 380000000 cycles: 465252943 heartbeat IPC: 0.706547 cumulative IPC: 0.772599 (Simulation time: 2 hr 21 min 44 sec) 
Heartbeat CPU 7 instructions: 300000000 cycles: 468403930 heartbeat IPC: 0.874712 cumulative IPC: 0.615418 (Simulation time: 2 hr 22 min 33 sec) 
Heartbeat CPU 1 instructions: 330000001 cycles: 469549330 heartbeat IPC: 0.571649 cumulative IPC: 0.645377 (Simulation time: 2 hr 22 min 51 sec) 
Heartbeat CPU 5 instructions: 250000003 cycles: 470514240 heartbeat IPC: 0.438012 cumulative IPC: 0.459781 (Simulation time: 2 hr 23 min 6 sec) 
Heartbeat CPU 6 instructions: 350000000 cycles: 476337328 heartbeat IPC: 0.604787 cumulative IPC: 0.679573 (Simulation time: 2 hr 24 min 41 sec) 
Heartbeat CPU 4 instructions: 390000000 cycles: 479495983 heartbeat IPC: 0.702097 cumulative IPC: 0.770444 (Simulation time: 2 hr 25 min 30 sec) 
Heartbeat CPU 7 instructions: 310000003 cycles: 479542230 heartbeat IPC: 0.897803 cumulative IPC: 0.622166 (Simulation time: 2 hr 25 min 31 sec) 
Heartbeat CPU 0 instructions: 130000000 cycles: 481876505 heartbeat IPC: 0.15618 cumulative IPC: 0.230327 (Simulation time: 2 hr 26 min 14 sec) 
Heartbeat CPU 1 instructions: 340000000 cycles: 487020534 heartbeat IPC: 0.57237 cumulative IPC: 0.642684 (Simulation time: 2 hr 27 min 45 sec) 
Heartbeat CPU 7 instructions: 320000000 cycles: 490559289 heartbeat IPC: 0.907683 cumulative IPC: 0.628758 (Simulation time: 2 hr 28 min 40 sec) 
Heartbeat CPU 6 instructions: 360000000 cycles: 492612616 heartbeat IPC: 0.614428 cumulative IPC: 0.677361 (Simulation time: 2 hr 29 min 16 sec) 
Heartbeat CPU 4 instructions: 400000000 cycles: 492720464 heartbeat IPC: 0.756173 cumulative IPC: 0.77005 (Simulation time: 2 hr 29 min 18 sec) 
Heartbeat CPU 3 instructions: 210000000 cycles: 493617823 heartbeat IPC: 0.265958 cumulative IPC: 0.383177 (Simulation time: 2 hr 29 min 35 sec) 
Heartbeat CPU 5 instructions: 260000000 cycles: 494040489 heartbeat IPC: 0.425057 cumulative IPC: 0.458081 (Simulation time: 2 hr 29 min 42 sec) 
Heartbeat CPU 7 instructions: 330000002 cycles: 501300163 heartbeat IPC: 0.931023 cumulative IPC: 0.635413 (Simulation time: 2 hr 31 min 48 sec) 
Heartbeat CPU 2 instructions: 100000000 cycles: 502521821 heartbeat IPC: 0.154157 cumulative IPC: 0.159574 (Simulation time: 2 hr 32 min 7 sec) 
Heartbeat CPU 1 instructions: 350000003 cycles: 505254844 heartbeat IPC: 0.548417 cumulative IPC: 0.639189 (Simulation time: 2 hr 32 min 49 sec) 
Heartbeat CPU 4 instructions: 410000000 cycles: 506995383 heartbeat IPC: 0.700529 cumulative IPC: 0.76804 (Simulation time: 2 hr 33 min 16 sec) 
Heartbeat CPU 6 instructions: 370000002 cycles: 509392174 heartbeat IPC: 0.595963 cumulative IPC: 0.674607 (Simulation time: 2 hr 33 min 55 sec) 
Heartbeat CPU 7 instructions: 340000000 cycles: 512583954 heartbeat IPC: 0.886227 cumulative IPC: 0.641083 (Simulation time: 2 hr 34 min 44 sec) 
Heartbeat CPU 0 instructions: 140000000 cycles: 514682569 heartbeat IPC: 0.304822 cumulative IPC: 0.235202 (Simulation time: 2 hr 35 min 17 sec) 
Heartbeat CPU 5 instructions: 270000003 cycles: 517534820 heartbeat IPC: 0.425635 cumulative IPC: 0.456569 (Simulation time: 2 hr 36 min 2 sec) 
Heartbeat CPU 4 instructions: 420000000 cycles: 521095574 heartbeat IPC: 0.70921 cumulative IPC: 0.766406 (Simulation time: 2 hr 36 min 59 sec) 
Heartbeat CPU 1 instructions: 360000000 cycles: 523449052 heartbeat IPC: 0.549625 cumulative IPC: 0.635994 (Simulation time: 2 hr 37 min 42 sec) 
Heartbeat CPU 7 instructions: 350000003 cycles: 523550148 heartbeat IPC: 0.911894 cumulative IPC: 0.646904 (Simulation time: 2 hr 37 min 44 sec) 
Heartbeat CPU 6 instructions: 380000000 cycles: 527366295 heartbeat IPC: 0.556355 cumulative IPC: 0.670471 (Simulation time: 2 hr 38 min 50 sec) 
Heartbeat CPU 3 instructions: 220000000 cycles: 531062259 heartbeat IPC: 0.267062 cumulative IPC: 0.374778 (Simulation time: 2 hr 39 min 45 sec) 
Heartbeat CPU 4 instructions: 430000000 cycles: 534576585 heartbeat IPC: 0.741784 cumulative IPC: 0.765769 (Simulation time: 2 hr 40 min 41 sec) 
Heartbeat CPU 7 instructions: 360000000 cycles: 535958653 heartbeat IPC: 0.805899 cumulative IPC: 0.65068 (Simulation time: 2 hr 41 min 2 sec) 
Heartbeat CPU 5 instructions: 280000000 cycles: 541911331 heartbeat IPC: 0.410231 cumulative IPC: 0.454431 (Simulation time: 2 hr 42 min 32 sec) 
Heartbeat CPU 1 instructions: 370000003 cycles: 542695868 heartbeat IPC: 0.519567 cumulative IPC: 0.63176 (Simulation time: 2 hr 42 min 44 sec) 
Heartbeat CPU 6 instructions: 390000003 cycles: 547711183 heartbeat IPC: 0.491524 cumulative IPC: 0.663657 (Simulation time: 2 hr 44 min 2 sec) 
Heartbeat CPU 7 instructions: 370000001 cycles: 548467900 heartbeat IPC: 0.799409 cumulative IPC: 0.654157 (Simulation time: 2 hr 44 min 14 sec) 
Heartbeat CPU 4 instructions: 440000000 cycles: 549280621 heartbeat IPC: 0.680085 cumulative IPC: 0.763418 (Simulation time: 2 hr 44 min 26 sec) 
Heartbeat CPU 7 instructions: 380000000 cycles: 561055978 heartbeat IPC: 0.794402 cumulative IPC: 0.657381 (Simulation time: 2 hr 47 min 26 sec) 
Heartbeat CPU 1 instructions: 380000000 cycles: 562143576 heartbeat IPC: 0.514199 cumulative IPC: 0.627594 (Simulation time: 2 hr 47 min 45 sec) 
Heartbeat CPU 4 instructions: 450000000 cycles: 563994375 heartbeat IPC: 0.679636 cumulative IPC: 0.761179 (Simulation time: 2 hr 48 min 14 sec) 
Heartbeat CPU 6 instructions: 400000000 cycles: 566361131 heartbeat IPC: 0.536194 cumulative IPC: 0.659358 (Simulation time: 2 hr 48 min 52 sec) 
Heartbeat CPU 5 instructions: 290000000 cycles: 567981214 heartbeat IPC: 0.383584 cumulative IPC: 0.451101 (Simulation time: 2 hr 49 min 16 sec) 
Heartbeat CPU 3 instructions: 230000000 cycles: 572077879 heartbeat IPC: 0.24381 cumulative IPC: 0.365162 (Simulation time: 2 hr 50 min 18 sec) 
Heartbeat CPU 7 instructions: 390000000 cycles: 573518739 heartbeat IPC: 0.80239 cumulative IPC: 0.660608 (Simulation time: 2 hr 50 min 42 sec) 
Heartbeat CPU 2 instructions: 110000000 cycles: 574049958 heartbeat IPC: 0.139805 cumulative IPC: 0.157052 (Simulation time: 2 hr 50 min 51 sec) 
Heartbeat CPU 4 instructions: 460000000 cycles: 577568996 heartbeat IPC: 0.736669 cumulative IPC: 0.760589 (Simulation time: 2 hr 51 min 46 sec) 
Heartbeat CPU 1 instructions: 390000003 cycles: 581865875 heartbeat IPC: 0.50704 cumulative IPC: 0.623411 (Simulation time: 2 hr 52 min 52 sec) 
Heartbeat CPU 6 instructions: 410000003 cycles: 585200599 heartbeat IPC: 0.530801 cumulative IPC: 0.655122 (Simulation time: 2 hr 53 min 46 sec) 
Heartbeat CPU 7 instructions: 400000000 cycles: 586121570 heartbeat IPC: 0.793473 cumulative IPC: 0.663531 (Simulation time: 2 hr 54 min 1 sec) 
Heartbeat CPU 4 instructions: 470000000 cycles: 592072512 heartbeat IPC: 0.689488 cumulative IPC: 0.758807 (Simulation time: 2 hr 55 min 35 sec) 
Heartbeat CPU 5 instructions: 300000000 cycles: 593756484 heartbeat IPC: 0.387969 cumulative IPC: 0.448297 (Simulation time: 2 hr 56 min 4 sec) 
Heartbeat CPU 7 instructions: 410000002 cycles: 597371168 heartbeat IPC: 0.888921 cumulative IPC: 0.667874 (Simulation time: 2 hr 57 min 7 sec) 
Heartbeat CPU 0 instructions: 150000000 cycles: 599043604 heartbeat IPC: 0.118538 cumulative IPC: 0.218396 (Simulation time: 2 hr 57 min 38 sec) 
Heartbeat CPU 1 instructions: 400000000 cycles: 600222291 heartbeat IPC: 0.544769 cumulative IPC: 0.620951 (Simulation time: 2 hr 57 min 58 sec) 
Heartbeat CPU 6 instructions: 420000000 cycles: 603890354 heartbeat IPC: 0.535052 cumulative IPC: 0.651322 (Simulation time: 2 hr 59 min 3 sec) 
Heartbeat CPU 3 instructions: 240000000 cycles: 604468595 heartbeat IPC: 0.30873 cumulative IPC: 0.36207 (Simulation time: 2 hr 59 min 13 sec) 
Heartbeat CPU 4 instructions: 480000000 cycles: 606278374 heartbeat IPC: 0.703935 cumulative IPC: 0.757492 (Simulation time: 2 hr 59 min 42 sec) 
Heartbeat CPU 7 instructions: 420000000 cycles: 608207421 heartbeat IPC: 0.922828 cumulative IPC: 0.672519 (Simulation time: 3 hr 0 min 14 sec) 
Heartbeat CPU 5 instructions: 310000003 cycles: 616662317 heartbeat IPC: 0.43657 cumulative IPC: 0.447852 (Simulation time: 3 hr 2 min 47 sec) 
Heartbeat CPU 1 instructions: 410000001 cycles: 617474755 heartbeat IPC: 0.579627 cumulative IPC: 0.619771 (Simulation time: 3 hr 3 min 1 sec) 
Heartbeat CPU 7 instructions: 430000002 cycles: 619001492 heartbeat IPC: 0.926435 cumulative IPC: 0.677045 (Simulation time: 3 hr 3 min 26 sec) 
Heartbeat CPU 4 instructions: 490000000 cycles: 619414770 heartbeat IPC: 0.761244 cumulative IPC: 0.757573 (Simulation time: 3 hr 3 min 33 sec) 
Heartbeat CPU 6 instructions: 430000001 cycles: 620105628 heartbeat IPC: 0.616703 cumulative IPC: 0.650396 (Simulation time: 3 hr 3 min 44 sec) 
Heartbeat CPU 0 instructions: 160000000 cycles: 622861181 heartbeat IPC: 0.419858 cumulative IPC: 0.22627 (Simulation time: 3 hr 4 min 33 sec) 
Heartbeat CPU 7 instructions: 440000000 cycles: 629444617 heartbeat IPC: 0.957568 cumulative IPC: 0.6818 (Simulation time: 3 hr 6 min 35 sec) 
Heartbeat CPU 3 instructions: 250000003 cycles: 632328316 heartbeat IPC: 0.358941 cumulative IPC: 0.361929 (Simulation time: 3 hr 7 min 22 sec) 
Heartbeat CPU 4 instructions: 500000000 cycles: 633242850 heartbeat IPC: 0.723166 cumulative IPC: 0.756806 (Simulation time: 3 hr 7 min 37 sec) 
Heartbeat CPU 1 instructions: 420000000 cycles: 634362750 heartbeat IPC: 0.592137 cumulative IPC: 0.619019 (Simulation time: 3 hr 7 min 56 sec) 
Heartbeat CPU 6 instructions: 440000000 cycles: 635331708 heartbeat IPC: 0.656768 cumulative IPC: 0.650552 (Simulation time: 3 hr 8 min 12 sec) 
Heartbeat CPU 5 instructions: 320000000 cycles: 639901312 heartbeat IPC: 0.430311 cumulative IPC: 0.447201 (Simulation time: 3 hr 9 min 28 sec) 
Heartbeat CPU 7 instructions: 450000002 cycles: 640728802 heartbeat IPC: 0.886196 cumulative IPC: 0.685477 (Simulation time: 3 hr 9 min 42 sec) 
Heartbeat CPU 2 instructions: 120000000 cycles: 642064104 heartbeat IPC: 0.147028 cumulative IPC: 0.155967 (Simulation time: 3 hr 10 min 6 sec) 
Heartbeat CPU 4 instructions: 510000003 cycles: 647420810 heartbeat IPC: 0.70532 cumulative IPC: 0.755654 (Simulation time: 3 hr 11 min 46 sec) 
Heartbeat CPU 1 instructions: 430000002 cycles: 650688478 heartbeat IPC: 0.61253 cumulative IPC: 0.618853 (Simulation time: 3 hr 12 min 41 sec) 
Heartbeat CPU 7 instructions: 460000000 cycles: 651389284 heartbeat IPC: 0.938044 cumulative IPC: 0.689697 (Simulation time: 3 hr 12 min 52 sec) 
Heartbeat CPU 6 instructions: 450000002 cycles: 651713862 heartbeat IPC: 0.61042 cumulative IPC: 0.649522 (Simulation time: 3 hr 12 min 57 sec) 
Finished CPU 2 instructions: 100000000 cycles: 638470768 cumulative IPC: 0.156624 (Simulation time: 3 hr 13 min 0 sec) 

CPU 0 Branch Prediction Accuracy: 98.1773% MPKI: 1.95706

CPU 1 Branch Prediction Accuracy: 99.7121% MPKI: 0.0390886

CPU 2 Branch Prediction Accuracy: 97.1878% MPKI: 5.01575

CPU 3 Branch Prediction Accuracy: 96.47% MPKI: 6.2278

CPU 4 Branch Prediction Accuracy: 99.7004% MPKI: 0.1645

CPU 5 Branch Prediction Accuracy: 99.9991% MPKI: 0.000265357

CPU 6 Branch Prediction Accuracy: 97.4712% MPKI: 2.14173

CPU 7 Branch Prediction Accuracy: 99.5252% MPKI: 0.0862801

ChampSim completed all CPUs

Total Simulation Statistics (not including warmup)

CPU 0 cumulative IPC: 0.23112 instructions: 147563214 cycles: 638470768
L1D TOTAL     ACCESS:   55317792  HIT:   48307997  MISS:    7009795
L1D LOAD      ACCESS:   24433555  HIT:   17425819  MISS:    7007736
L1D RFO       ACCESS:   30884237  HIT:   30882178  MISS:       2059
L1D PREFETCH  ACCESS:          0  HIT:          0  MISS:          0
L1D WRITEBACK ACCESS:          0  HIT:          0  MISS:          0
L1I TOTAL     ACCESS:   42103504  HIT:   42103504  MISS:          0
L1I LOAD      ACCESS:   42103504  HIT:   42103504  MISS:          0
L1I RFO       ACCESS:          0  HIT:          0  MISS:          0
L1I PREFETCH  ACCESS:          0  HIT:          0  MISS:          0
L1I WRITEBACK ACCESS:          0  HIT:          0  MISS:          0
L2C TOTAL     ACCESS:   13092966  HIT:    5821836  MISS:    7271130
L2C LOAD      ACCESS:    7007287  HIT:    4626483  MISS:    2380804
L2C RFO       ACCESS:       2059  HIT:       1511  MISS:        548
L2C PREFETCH  ACCESS:    5774068  HIT:     886696  MISS:    4887372
L2C WRITEBACK ACCESS:     309552  HIT:     307146  MISS:       2406

Avg Lookahead Depth:	4.25108
TOTAL: 6.0126e+07	L2C: 5.11298e+07	LLC: 8.99627e+06	GOOD_L2C: 3.47555e+07
Printing all the perceptron weights to: perc_weights_0.csv
LLC TOTAL     ACCESS:    7840335  HIT:     611504  MISS:    7228831
LLC LOAD      ACCESS:     469172  HIT:      67162  MISS:     402010
LLC RFO       ACCESS:        527  HIT:        377  MISS:        150
LLC PREFETCH  ACCESS:    7105104  HIT:     279298  MISS:    6825806
LLC WRITEBACK ACCESS:     265532  HIT:     264667  MISS:        865

CPU 1 cumulative IPC: 0.618909 instructions: 395155075 cycles: 638470768
L1D TOTAL     ACCESS:   67317228  HIT:   47780217  MISS:   19537011
L1D LOAD      ACCESS:   26584351  HIT:   23621916  MISS:    2962435
L1D RFO       ACCESS:   40732877  HIT:   24158301  MISS:   16574576
L1D PREFETCH  ACCESS:          0  HIT:          0  MISS:          0
L1D WRITEBACK ACCESS:          0  HIT:          0  MISS:          0
L1I TOTAL     ACCESS:   93170558  HIT:   93170550  MISS:          8
L1I LOAD      ACCESS:   93170558  HIT:   93170550  MISS:          8
L1I RFO       ACCESS:          0  HIT:          0  MISS:          0
L1I PREFETCH  ACCESS:          0  HIT:          0  MISS:          0
L1I WRITEBACK ACCESS:          0  HIT:          0  MISS:          0
L2C TOTAL     ACCESS:   39259870  HIT:   27278240  MISS:   11981630
L2C LOAD      ACCESS:    2962443  HIT:    2634856  MISS:     327587
L2C RFO       ACCESS:   16574558  HIT:    7553510  MISS:    9021048
L2C PREFETCH  ACCESS:    3148291  HIT:     515830  MISS:    2632461
L2C WRITEBACK ACCESS:   16574578  HIT:   16574044  MISS:        534

Avg Lookahead Depth:	4.25108
TOTAL: 6.0126e+07	L2C: 5.11298e+07	LLC: 8.99627e+06	GOOD_L2C: 3.47555e+07
Printing all the perceptron weights to: perc_weights_0.csv
LLC TOTAL     ACCESS:   21040583  HIT:    9469021  MISS:   11571562
LLC LOAD      ACCESS:     114298  HIT:       1371  MISS:     112927
LLC RFO       ACCESS:    9020808  HIT:     409672  MISS:    8611136
LLC PREFETCH  ACCESS:    2883822  HIT:      36682  MISS:    2847140
LLC WRITEBACK ACCESS:    9021655  HIT:    9021296  MISS:        359

CPU 2 cumulative IPC: 0.156624 instructions: 100000000 cycles: 638470768
L1D TOTAL     ACCESS:   34799606  HIT:   32336643  MISS:    2462963
L1D LOAD      ACCESS:   19216449  HIT:   17088934  MISS:    2127515
L1D RFO       ACCESS:   15583157  HIT:   15247709  MISS:     335448
L1D PREFETCH  ACCESS:          0  HIT:          0  MISS:          0
L1D WRITEBACK ACCESS:          0  HIT:          0  MISS:          0
L1I TOTAL     ACCESS:   29836670  HIT:   29833570  MISS:       3100
L1I LOAD      ACCESS:   29836670  HIT:   29833570  MISS:       3100
L1I RFO       ACCESS:          0  HIT:          0  MISS:          0
L1I PREFETCH  ACCESS:          0  HIT:          0  MISS:          0
L1I WRITEBACK ACCESS:          0  HIT:          0  MISS:          0
L2C TOTAL     ACCESS:    4623060  HIT:    1971078  MISS:    2651982
L2C LOAD      ACCESS:    2130486  HIT:     591992  MISS:    1538494
L2C RFO       ACCESS:     335444  HIT:      25723  MISS:     309721
L2C PREFETCH  ACCESS:    1106058  HIT:     307626  MISS:     798432
L2C WRITEBACK ACCESS:    1051072  HIT:    1045737  MISS:       5335

Avg Lookahead Depth:	4.25108
TOTAL: 6.0126e+07	L2C: 5.11298e+07	LLC: 8.99627e+06	GOOD_L2C: 3.47555e+07
Printing all the perceptron weights to: perc_weights_0.csv
LLC TOTAL     ACCESS:    4190490  HIT:    1317430  MISS:    2873060
LLC LOAD      ACCESS:    1337358  HIT:     185962  MISS:    1151396
LLC RFO       ACCESS:     307327  HIT:      27902  MISS:     279425
LLC PREFETCH  ACCESS:    1604382  HIT:     171959  MISS:    1432423
LLC WRITEBACK ACCESS:     941423  HIT:     931607  MISS:       9816

CPU 3 cumulative IPC: 0.361558 instructions: 230844015 cycles: 638470768
L1D TOTAL     ACCESS:   32457953  HIT:   26710420  MISS:    5747533
L1D LOAD      ACCESS:   26781804  HIT:   21034313  MISS:    5747491
L1D RFO       ACCESS:    5676149  HIT:    5676107  MISS:         42
L1D PREFETCH  ACCESS:          0  HIT:          0  MISS:          0
L1D WRITEBACK ACCESS:          0  HIT:          0  MISS:          0
L1I TOTAL     ACCESS:   64693575  HIT:   64693562  MISS:         13
L1I LOAD      ACCESS:   64693575  HIT:   64693562  MISS:         13
L1I RFO       ACCESS:          0  HIT:          0  MISS:          0
L1I PREFETCH  ACCESS:          0  HIT:          0  MISS:          0
L1I WRITEBACK ACCESS:          0  HIT:          0  MISS:          0
L2C TOTAL     ACCESS:   11695557  HIT:    5947929  MISS:    5747628
L2C LOAD      ACCESS:    5747503  HIT:    3524614  MISS:    2222889
L2C RFO       ACCESS:         42  HIT:          0  MISS:         42
L2C PREFETCH  ACCESS:    3856907  HIT:     332210  MISS:    3524697
L2C WRITEBACK ACCESS:    2091105  HIT:    2091105  MISS:          0

Avg Lookahead Depth:	4.25108
TOTAL: 6.0126e+07	L2C: 5.11298e+07	LLC: 8.99627e+06	GOOD_L2C: 3.47555e+07
Printing all the perceptron weights to: perc_weights_0.csv
LLC TOTAL     ACCESS:    7857564  HIT:    2109915  MISS:    5747649
LLC LOAD      ACCESS:     194352  HIT:        163  MISS:     194189
LLC RFO       ACCESS:         42  HIT:          0  MISS:         42
LLC PREFETCH  ACCESS:    5572210  HIT:      18793  MISS:    5553417
LLC WRITEBACK ACCESS:    2090960  HIT:    2090959  MISS:          1

CPU 4 cumulative IPC: 0.756001 instructions: 482684563 cycles: 638470768
L1D TOTAL     ACCESS:  108078993  HIT:   97226564  MISS:   10852429
L1D LOAD      ACCESS:   73106879  HIT:   65224066  MISS:    7882813
L1D RFO       ACCESS:   34972114  HIT:   32002498  MISS:    2969616
L1D PREFETCH  ACCESS:          0  HIT:          0  MISS:          0
L1D WRITEBACK ACCESS:          0  HIT:          0  MISS:          0
L1I TOTAL     ACCESS:  126462168  HIT:  126462168  MISS:          0
L1I LOAD      ACCESS:  126462168  HIT:  126462168  MISS:          0
L1I RFO       ACCESS:          0  HIT:          0  MISS:          0
L1I PREFETCH  ACCESS:          0  HIT:          0  MISS:          0
L1I WRITEBACK ACCESS:          0  HIT:          0  MISS:          0
L2C TOTAL     ACCESS:   20920661  HIT:   19003772  MISS:    1916889
L2C LOAD      ACCESS:    7882807  HIT:    7052111  MISS:     830696
L2C RFO       ACCESS:    2956504  HIT:    2660115  MISS:     296389
L2C PREFETCH  ACCESS:    4178731  HIT:    3391121  MISS:     787610
L2C WRITEBACK ACCESS:    5902619  HIT:    5900425  MISS:       2194

Avg Lookahead Depth:	4.25108
TOTAL: 6.0126e+07	L2C: 5.11298e+07	LLC: 8.99627e+06	GOOD_L2C: 3.47555e+07
Printing all the perceptron weights to: perc_weights_0.csv
LLC TOTAL     ACCESS:    3099365  HIT:    1283950  MISS:    1815415
LLC LOAD      ACCESS:     752718  HIT:     173597  MISS:     579121
LLC RFO       ACCESS:     296378  HIT:      93954  MISS:     202424
LLC PREFETCH  ACCESS:    1461320  HIT:     465911  MISS:     995409
LLC WRITEBACK ACCESS:     588949  HIT:     550488  MISS:      38461

CPU 5 cumulative IPC: 0.447018 instructions: 285408021 cycles: 638470768
L1D TOTAL     ACCESS:   40826563  HIT:   36156278  MISS:    4670285
L1D LOAD      ACCESS:   29527022  HIT:   25968682  MISS:    3558340
L1D RFO       ACCESS:   11299541  HIT:   10187596  MISS:    1111945
L1D PREFETCH  ACCESS:          0  HIT:          0  MISS:          0
L1D WRITEBACK ACCESS:          0  HIT:          0  MISS:          0
L1I TOTAL     ACCESS:   64716785  HIT:   64716706  MISS:         79
L1I LOAD      ACCESS:   64716785  HIT:   64716706  MISS:         79
L1I RFO       ACCESS:          0  HIT:          0  MISS:          0
L1I PREFETCH  ACCESS:          0  HIT:          0  MISS:          0
L1I WRITEBACK ACCESS:          0  HIT:          0  MISS:          0
L2C TOTAL     ACCESS:    9257862  HIT:    4313219  MISS:    4944643
L2C LOAD      ACCESS:    3558419  HIT:    2170758  MISS:    1387661
L2C RFO       ACCESS:    1111945  HIT:          4  MISS:    1111941
L2C PREFETCH  ACCESS:    2937273  HIT:     493638  MISS:    2443635
L2C WRITEBACK ACCESS:    1650225  HIT:    1648819  MISS:       1406

Avg Lookahead Depth:	4.25108
TOTAL: 6.0126e+07	L2C: 5.11298e+07	LLC: 8.99627e+06	GOOD_L2C: 3.47555e+07
Printing all the perceptron weights to: perc_weights_0.csv
LLC TOTAL     ACCESS:    7167834  HIT:    1766951  MISS:    5400883
LLC LOAD      ACCESS:     913507  HIT:      30387  MISS:     883120
LLC RFO       ACCESS:    1111930  HIT:        123  MISS:    1111807
LLC PREFETCH  ACCESS:    3490259  HIT:     130932  MISS:    3359327
LLC WRITEBACK ACCESS:    1652138  HIT:    1605509  MISS:      46629

CPU 6 cumulative IPC: 0.64936 instructions: 414597622 cycles: 638470768
L1D TOTAL     ACCESS:   71086826  HIT:   64956430  MISS:    6130396
L1D LOAD      ACCESS:   64841185  HIT:   59077503  MISS:    5763682
L1D RFO       ACCESS:    6245641  HIT:    5878927  MISS:     366714
L1D PREFETCH  ACCESS:          0  HIT:          0  MISS:          0
L1D WRITEBACK ACCESS:          0  HIT:          0  MISS:          0
L1I TOTAL     ACCESS:  110217101  HIT:  110215818  MISS:       1283
L1I LOAD      ACCESS:  110217101  HIT:  110215818  MISS:       1283
L1I RFO       ACCESS:          0  HIT:          0  MISS:          0
L1I PREFETCH  ACCESS:          0  HIT:          0  MISS:          0
L1I WRITEBACK ACCESS:          0  HIT:          0  MISS:          0
L2C TOTAL     ACCESS:   12096964  HIT:    6115016  MISS:    5981948
L2C LOAD      ACCESS:    5764960  HIT:    4201173  MISS:    1563787
L2C RFO       ACCESS:     366707  HIT:      41074  MISS:     325633
L2C PREFETCH  ACCESS:    5478830  HIT:    1387448  MISS:    4091382
L2C WRITEBACK ACCESS:     486467  HIT:     485321  MISS:       1146

Avg Lookahead Depth:	4.25108
TOTAL: 6.0126e+07	L2C: 5.11298e+07	LLC: 8.99627e+06	GOOD_L2C: 3.47555e+07
Printing all the perceptron weights to: perc_weights_0.csv
LLC TOTAL     ACCESS:    7250723  HIT:    1615796  MISS:    5634927
LLC LOAD      ACCESS:    1100429  HIT:     445688  MISS:     654741
LLC RFO       ACCESS:     325613  HIT:      67192  MISS:     258421
LLC PREFETCH  ACCESS:    5398104  HIT:     677070  MISS:    4721034
LLC WRITEBACK ACCESS:     426577  HIT:     425846  MISS:        731

CPU 7 cumulative IPC: 0.689923 instructions: 440495418 cycles: 638470768
L1D TOTAL     ACCESS:  152355244  HIT:  140979944  MISS:   11375300
L1D LOAD      ACCESS:  125622996  HIT:  114247724  MISS:   11375272
L1D RFO       ACCESS:   26732248  HIT:   26732220  MISS:         28
L1D PREFETCH  ACCESS:          0  HIT:          0  MISS:          0
L1D WRITEBACK ACCESS:          0  HIT:          0  MISS:          0
L1I TOTAL     ACCESS:   87835654  HIT:   87835468  MISS:        186
L1I LOAD      ACCESS:   87835654  HIT:   87835468  MISS:        186
L1I RFO       ACCESS:          0  HIT:          0  MISS:          0
L1I PREFETCH  ACCESS:          0  HIT:          0  MISS:          0
L1I WRITEBACK ACCESS:          0  HIT:          0  MISS:          0
L2C TOTAL     ACCESS:   27936047  HIT:   18226368  MISS:    9709679
L2C LOAD      ACCESS:   11375422  HIT:   10039476  MISS:    1335946
L2C RFO       ACCESS:         28  HIT:          0  MISS:         28
L2C PREFETCH  ACCESS:   13120053  HIT:    4747342  MISS:    8372711
L2C WRITEBACK ACCESS:    3440544  HIT:    3439550  MISS:        994

Avg Lookahead Depth:	4.25108
TOTAL: 6.0126e+07	L2C: 5.11298e+07	LLC: 8.99627e+06	GOOD_L2C: 3.47555e+07
Printing all the perceptron weights to: perc_weights_0.csv
LLC TOTAL     ACCESS:   13525221  HIT:    6179393  MISS:    7345828
LLC LOAD      ACCESS:     903033  HIT:     315526  MISS:     587507
LLC RFO       ACCESS:         28  HIT:          0  MISS:         28
LLC PREFETCH  ACCESS:    9589878  HIT:    2840238  MISS:    6749640
LLC WRITEBACK ACCESS:    3032282  HIT:    3023629  MISS:       8653

Region of Interest Statistics

CPU 0 cumulative IPC: 0.230685 instructions: 100000003 cycles: 433490931
L1D TOTAL     ACCESS:   37562631  HIT:   32459063  MISS:    5103568
L1D LOAD      ACCESS:   16992448  HIT:   11890378  MISS:    5102070
L1D RFO       ACCESS:   20570183  HIT:   20568685  MISS:       1498
L1D PREFETCH  ACCESS:          0  HIT:          0  MISS:          0
L1D WRITEBACK ACCESS:          0  HIT:          0  MISS:          0
L1D PREFETCH  REQUESTED:          0  ISSUED:          0  USEFUL:          0  USELESS:          0
L1I TOTAL     ACCESS:   28802498  HIT:   28802498  MISS:          0
L1I LOAD      ACCESS:   28802498  HIT:   28802498  MISS:          0
L1I RFO       ACCESS:          0  HIT:          0  MISS:          0
L1I PREFETCH  ACCESS:          0  HIT:          0  MISS:          0
L1I WRITEBACK ACCESS:          0  HIT:          0  MISS:          0
L1I PREFETCH  REQUESTED:          0  ISSUED:          0  USEFUL:          0  USELESS:          0
L2C TOTAL     ACCESS:    9557804  HIT:    4261583  MISS:    5296221
L2C LOAD      ACCESS:    5101774  HIT:    3440591  MISS:    1661183
L2C RFO       ACCESS:       1498  HIT:       1077  MISS:        421
L2C PREFETCH  ACCESS:    4248317  HIT:     615311  MISS:    3633006
L2C WRITEBACK ACCESS:     206215  HIT:     204604  MISS:       1611
L2C PREFETCH  REQUESTED:   10379804  ISSUED:   10379804  USEFUL:    5827982  USELESS:     375518
LLC TOTAL     ACCESS:    5680200  HIT:     460592  MISS:    5219608
LLC LOAD      ACCESS:     327572  HIT:      47271  MISS:     280301
LLC RFO       ACCESS:        410  HIT:        307  MISS:        103
LLC PREFETCH  ACCESS:    5176920  HIT:     238264  MISS:    4938656
LLC WRITEBACK ACCESS:     175298  HIT:     174750  MISS:        548
LLC PREFETCH  REQUESTED:          0  ISSUED:          0  USEFUL:     682713  USELESS:   34131625
Major fault: 0 Minor fault: 14590

CPU 1 cumulative IPC: 0.682552 instructions: 100000000 cycles: 146509040
L1D TOTAL     ACCESS:   16737245  HIT:   12047627  MISS:    4689618
L1D LOAD      ACCESS:    6700741  HIT:    5990133  MISS:     710608
L1D RFO       ACCESS:   10036504  HIT:    6057494  MISS:    3979010
L1D PREFETCH  ACCESS:          0  HIT:          0  MISS:          0
L1D WRITEBACK ACCESS:          0  HIT:          0  MISS:          0
L1D PREFETCH  REQUESTED:          0  ISSUED:          0  USEFUL:          0  USELESS:          0
L1I TOTAL     ACCESS:   23574349  HIT:   23574349  MISS:          0
L1I LOAD      ACCESS:   23574349  HIT:   23574349  MISS:          0
L1I RFO       ACCESS:          0  HIT:          0  MISS:          0
L1I PREFETCH  ACCESS:          0  HIT:          0  MISS:          0
L1I WRITEBACK ACCESS:          0  HIT:          0  MISS:          0
L1I PREFETCH  REQUESTED:          0  ISSUED:          0  USEFUL:          0  USELESS:          0
L2C TOTAL     ACCESS:    9457524  HIT:    6570555  MISS:    2886969
L2C LOAD      ACCESS:     710608  HIT:     660666  MISS:      49942
L2C RFO       ACCESS:    3979009  HIT:    1802751  MISS:    2176258
L2C PREFETCH  ACCESS:     788894  HIT:     128209  MISS:     660685
L2C WRITEBACK ACCESS:    3979013  HIT:    3978929  MISS:         84
L2C PREFETCH  REQUESTED:    4024202  ISSUED:    4024202  USEFUL:    2875141  USELESS:        336
LLC TOTAL     ACCESS:    5073478  HIT:    2334394  MISS:    2739084
LLC LOAD      ACCESS:      27151  HIT:        332  MISS:      26819
LLC RFO       ACCESS:    2176180  HIT:     147828  MISS:    2028352
LLC PREFETCH  ACCESS:     693885  HIT:      10052  MISS:     683833
LLC WRITEBACK ACCESS:    2176262  HIT:    2176182  MISS:         80
LLC PREFETCH  REQUESTED:          0  ISSUED:          0  USEFUL:     682713  USELESS:   34131625
Major fault: 0 Minor fault: 101976

CPU 2 cumulative IPC: 0.156624 instructions: 100000000 cycles: 638470768
L1D TOTAL     ACCESS:   34799606  HIT:   32336643  MISS:    2462963
L1D LOAD      ACCESS:   19216449  HIT:   17088934  MISS:    2127515
L1D RFO       ACCESS:   15583157  HIT:   15247709  MISS:     335448
L1D PREFETCH  ACCESS:          0  HIT:          0  MISS:          0
L1D WRITEBACK ACCESS:          0  HIT:          0  MISS:          0
L1D PREFETCH  REQUESTED:          0  ISSUED:          0  USEFUL:          0  USELESS:          0
L1I TOTAL     ACCESS:   29836670  HIT:   29833570  MISS:       3100
L1I LOAD      ACCESS:   29836670  HIT:   29833570  MISS:       3100
L1I RFO       ACCESS:          0  HIT:          0  MISS:          0
L1I PREFETCH  ACCESS:          0  HIT:          0  MISS:          0
L1I WRITEBACK ACCESS:          0  HIT:          0  MISS:          0
L1I PREFETCH  REQUESTED:          0  ISSUED:          0  USEFUL:          0  USELESS:          0
L2C TOTAL     ACCESS:    4623060  HIT:    1971078  MISS:    2651982
L2C LOAD      ACCESS:    2130486  HIT:     591992  MISS:    1538494
L2C RFO       ACCESS:     335444  HIT:      25723  MISS:     309721
L2C PREFETCH  ACCESS:    1106058  HIT:     307626  MISS:     798432
L2C WRITEBACK ACCESS:    1051072  HIT:    1045737  MISS:       5335
L2C PREFETCH  REQUESTED:    2840334  ISSUED:    2840334  USEFUL:     473504  USELESS:     561516
LLC TOTAL     ACCESS:    4190490  HIT:    1317430  MISS:    2873060
LLC LOAD      ACCESS:    1337358  HIT:     185962  MISS:    1151396
LLC RFO       ACCESS:     307327  HIT:      27902  MISS:     279425
LLC PREFETCH  ACCESS:    1604382  HIT:     171959  MISS:    1432423
LLC WRITEBACK ACCESS:     941423  HIT:     931607  MISS:       9816
LLC PREFETCH  REQUESTED:          0  ISSUED:          0  USEFUL:     682713  USELESS:   34131625
Major fault: 0 Minor fault: 33779

CPU 3 cumulative IPC: 0.429302 instructions: 100000001 cycles: 232936396
L1D TOTAL     ACCESS:   14592629  HIT:   12070976  MISS:    2521653
L1D LOAD      ACCESS:   11816803  HIT:    9295165  MISS:    2521638
L1D RFO       ACCESS:    2775826  HIT:    2775811  MISS:         15
L1D PREFETCH  ACCESS:          0  HIT:          0  MISS:          0
L1D WRITEBACK ACCESS:          0  HIT:          0  MISS:          0
L1D PREFETCH  REQUESTED:          0  ISSUED:          0  USEFUL:          0  USELESS:          0
L1I TOTAL     ACCESS:   27403513  HIT:   27403504  MISS:          9
L1I LOAD      ACCESS:   27403513  HIT:   27403504  MISS:          9
L1I RFO       ACCESS:          0  HIT:          0  MISS:          0
L1I PREFETCH  ACCESS:          0  HIT:          0  MISS:          0
L1I WRITEBACK ACCESS:          0  HIT:          0  MISS:          0
L1I PREFETCH  REQUESTED:          0  ISSUED:          0  USEFUL:          0  USELESS:          0
L2C TOTAL     ACCESS:    5409965  HIT:    2888265  MISS:    2521700
L2C LOAD      ACCESS:    2521646  HIT:    1727344  MISS:     794302
L2C RFO       ACCESS:         15  HIT:          0  MISS:         15
L2C PREFETCH  ACCESS:    1881685  HIT:     154302  MISS:    1727383
L2C WRITEBACK ACCESS:    1006619  HIT:    1006619  MISS:          0
L2C PREFETCH  REQUESTED:    7154724  ISSUED:    7154724  USEFUL:    4102569  USELESS:        104
LLC TOTAL     ACCESS:    3537076  HIT:    1015363  MISS:    2521713
LLC LOAD      ACCESS:      88668  HIT:         71  MISS:      88597
LLC RFO       ACCESS:         15  HIT:          0  MISS:         15
LLC PREFETCH  ACCESS:    2441335  HIT:       8234  MISS:    2433101
LLC WRITEBACK ACCESS:    1007058  HIT:    1007058  MISS:          0
LLC PREFETCH  REQUESTED:          0  ISSUED:          0  USEFUL:     682713  USELESS:   34131625
Major fault: 0 Minor fault: 8200

CPU 4 cumulative IPC: 0.780345 instructions: 100000000 cycles: 128148411
L1D TOTAL     ACCESS:   22398625  HIT:   20161043  MISS:    2237582
L1D LOAD      ACCESS:   15165395  HIT:   13544313  MISS:    1621082
L1D RFO       ACCESS:    7233230  HIT:    6616730  MISS:     616500
L1D PREFETCH  ACCESS:          0  HIT:          0  MISS:          0
L1D WRITEBACK ACCESS:          0  HIT:          0  MISS:          0
L1D PREFETCH  REQUESTED:          0  ISSUED:          0  USEFUL:          0  USELESS:          0
L1I TOTAL     ACCESS:   26165121  HIT:   26165121  MISS:          0
L1I LOAD      ACCESS:   26165121  HIT:   26165121  MISS:          0
L1I RFO       ACCESS:          0  HIT:          0  MISS:          0
L1I PREFETCH  ACCESS:          0  HIT:          0  MISS:          0
L1I WRITEBACK ACCESS:          0  HIT:          0  MISS:          0
L1I PREFETCH  REQUESTED:          0  ISSUED:          0  USEFUL:          0  USELESS:          0
L2C TOTAL     ACCESS:    4291268  HIT:    3890993  MISS:     400275
L2C LOAD      ACCESS:    1621080  HIT:    1451379  MISS:     169701
L2C RFO       ACCESS:     613441  HIT:     550818  MISS:      62623
L2C PREFETCH  ACCESS:     838693  HIT:     671231  MISS:     167462
L2C WRITEBACK ACCESS:    1218054  HIT:    1217565  MISS:        489
L2C PREFETCH  REQUESTED:    5447533  ISSUED:    5447507  USEFUL:     629608  USELESS:     216542
LLC TOTAL     ACCESS:     671312  HIT:     293810  MISS:     377502
LLC LOAD      ACCESS:     155306  HIT:      44682  MISS:     110624
LLC RFO       ACCESS:      62623  HIT:      22544  MISS:      40079
LLC PREFETCH  ACCESS:     330689  HIT:     110587  MISS:     220102
LLC WRITEBACK ACCESS:     122694  HIT:     115997  MISS:       6697
LLC PREFETCH  REQUESTED:          0  ISSUED:          0  USEFUL:     682713  USELESS:   34131625
Major fault: 0 Minor fault: 17209

CPU 5 cumulative IPC: 0.509383 instructions: 100000003 cycles: 196315841
L1D TOTAL     ACCESS:   13967816  HIT:   12342397  MISS:    1625419
L1D LOAD      ACCESS:   10261357  HIT:    9213528  MISS:    1047829
L1D RFO       ACCESS:    3706459  HIT:    3128869  MISS:     577590
L1D PREFETCH  ACCESS:          0  HIT:          0  MISS:          0
L1D WRITEBACK ACCESS:          0  HIT:          0  MISS:          0
L1D PREFETCH  REQUESTED:          0  ISSUED:          0  USEFUL:          0  USELESS:          0
L1I TOTAL     ACCESS:   22465886  HIT:   22465836  MISS:         50
L1I LOAD      ACCESS:   22465886  HIT:   22465836  MISS:         50
L1I RFO       ACCESS:          0  HIT:          0  MISS:          0
L1I PREFETCH  ACCESS:          0  HIT:          0  MISS:          0
L1I WRITEBACK ACCESS:          0  HIT:          0  MISS:          0
L1I PREFETCH  REQUESTED:          0  ISSUED:          0  USEFUL:          0  USELESS:          0
L2C TOTAL     ACCESS:    3098378  HIT:    1409282  MISS:    1689096
L2C LOAD      ACCESS:    1047879  HIT:     645613  MISS:     402266
L2C RFO       ACCESS:     577590  HIT:          1  MISS:     577589
L2C PREFETCH  ACCESS:     837395  HIT:     128422  MISS:     708973
L2C WRITEBACK ACCESS:     635514  HIT:     635246  MISS:        268
L2C PREFETCH  REQUESTED:    5130405  ISSUED:    5130405  USEFUL:    2524076  USELESS:     310786
LLC TOTAL     ACCESS:    2486191  HIT:     652013  MISS:    1834178
LLC LOAD      ACCESS:     316641  HIT:       8314  MISS:     308327
LLC RFO       ACCESS:     577589  HIT:          1  MISS:     577588
LLC PREFETCH  ACCESS:     956355  HIT:      28523  MISS:     927832
LLC WRITEBACK ACCESS:     635606  HIT:     615175  MISS:      20431
LLC PREFETCH  REQUESTED:          0  ISSUED:          0  USEFUL:     682713  USELESS:   34131625
Major fault: 0 Minor fault: 109242

CPU 6 cumulative IPC: 0.696196 instructions: 100000000 cycles: 143637705
L1D TOTAL     ACCESS:   17187269  HIT:   15705549  MISS:    1481720
L1D LOAD      ACCESS:   15658285  HIT:   14264618  MISS:    1393667
L1D RFO       ACCESS:    1528984  HIT:    1440931  MISS:      88053
L1D PREFETCH  ACCESS:          0  HIT:          0  MISS:          0
L1D WRITEBACK ACCESS:          0  HIT:          0  MISS:          0
L1D PREFETCH  REQUESTED:          0  ISSUED:          0  USEFUL:          0  USELESS:          0
L1I TOTAL     ACCESS:   26446194  HIT:   26445301  MISS:        893
L1I LOAD      ACCESS:   26446194  HIT:   26445301  MISS:        893
L1I RFO       ACCESS:          0  HIT:          0  MISS:          0
L1I PREFETCH  ACCESS:          0  HIT:          0  MISS:          0
L1I WRITEBACK ACCESS:          0  HIT:          0  MISS:          0
L1I PREFETCH  REQUESTED:          0  ISSUED:          0  USEFUL:          0  USELESS:          0
L2C TOTAL     ACCESS:    2950063  HIT:    1506518  MISS:    1443545
L2C LOAD      ACCESS:    1394559  HIT:    1043000  MISS:     351559
L2C RFO       ACCESS:      88052  HIT:       9997  MISS:      78055
L2C PREFETCH  ACCESS:    1345595  HIT:     331898  MISS:    1013697
L2C WRITEBACK ACCESS:     121857  HIT:     121623  MISS:        234
L2C PREFETCH  REQUESTED:    8295849  ISSUED:    8295506  USEFUL:    3825245  USELESS:     658304
LLC TOTAL     ACCESS:    1751427  HIT:     401811  MISS:    1349616
LLC LOAD      ACCESS:     276907  HIT:     118437  MISS:     158470
LLC RFO       ACCESS:      78051  HIT:      15862  MISS:      62189
LLC PREFETCH  ACCESS:    1289973  HIT:     161169  MISS:    1128804
LLC WRITEBACK ACCESS:     106496  HIT:     106343  MISS:        153
LLC PREFETCH  REQUESTED:          0  ISSUED:          0  USEFUL:     682713  USELESS:   34131625
Major fault: 0 Minor fault: 3697

CPU 7 cumulative IPC: 0.409628 instructions: 100000002 cycles: 244123944
L1D TOTAL     ACCESS:   50262757  HIT:   46871883  MISS:    3390874
L1D LOAD      ACCESS:   46909806  HIT:   43518935  MISS:    3390871
L1D RFO       ACCESS:    3352951  HIT:    3352948  MISS:          3
L1D PREFETCH  ACCESS:          0  HIT:          0  MISS:          0
L1D WRITEBACK ACCESS:          0  HIT:          0  MISS:          0
L1D PREFETCH  REQUESTED:          0  ISSUED:          0  USEFUL:          0  USELESS:          0
L1I TOTAL     ACCESS:   23529569  HIT:   23529460  MISS:        109
L1I LOAD      ACCESS:   23529569  HIT:   23529460  MISS:        109
L1I RFO       ACCESS:          0  HIT:          0  MISS:          0
L1I PREFETCH  ACCESS:          0  HIT:          0  MISS:          0
L1I WRITEBACK ACCESS:          0  HIT:          0  MISS:          0
L1I PREFETCH  REQUESTED:          0  ISSUED:          0  USEFUL:          0  USELESS:          0
L2C TOTAL     ACCESS:    6881253  HIT:    5718595  MISS:    1162658
L2C LOAD      ACCESS:    3390980  HIT:    2790519  MISS:     600461
L2C RFO       ACCESS:          3  HIT:          0  MISS:          3
L2C PREFETCH  ACCESS:    3007741  HIT:    2445873  MISS:     561868
L2C WRITEBACK ACCESS:     482529  HIT:     482203  MISS:        326
L2C PREFETCH  REQUESTED:   16853175  ISSUED:   16721636  USEFUL:    7628658  USELESS:     842312
LLC TOTAL     ACCESS:    1687637  HIT:     946414  MISS:     741223
LLC LOAD      ACCESS:     595485  HIT:     236692  MISS:     358793
LLC RFO       ACCESS:          3  HIT:          0  MISS:          3
LLC PREFETCH  ACCESS:    1008193  HIT:     634221  MISS:     373972
LLC WRITEBACK ACCESS:      83956  HIT:      75501  MISS:       8455
LLC PREFETCH  REQUESTED:          0  ISSUED:          0  USEFUL:     682713  USELESS:   34131625
Major fault: 0 Minor fault: 113092

Avg Lookahead Depth:	4.25108
TOTAL: 6.0126e+07	L2C: 5.11298e+07	LLC: 8.99627e+06	GOOD_L2C: 3.47555e+07
Printing all the perceptron weights to: perc_weights_0.csv

Avg Lookahead Depth:	4.25108
TOTAL: 6.0126e+07	L2C: 5.11298e+07	LLC: 8.99627e+06	GOOD_L2C: 3.47555e+07
Printing all the perceptron weights to: perc_weights_0.csv

Avg Lookahead Depth:	4.25108
TOTAL: 6.0126e+07	L2C: 5.11298e+07	LLC: 8.99627e+06	GOOD_L2C: 3.47555e+07
Printing all the perceptron weights to: perc_weights_0.csv

Avg Lookahead Depth:	4.25108
TOTAL: 6.0126e+07	L2C: 5.11298e+07	LLC: 8.99627e+06	GOOD_L2C: 3.47555e+07
Printing all the perceptron weights to: perc_weights_0.csv

Avg Lookahead Depth:	4.25108
TOTAL: 6.0126e+07	L2C: 5.11298e+07	LLC: 8.99627e+06	GOOD_L2C: 3.47555e+07
Printing all the perceptron weights to: perc_weights_0.csv

Avg Lookahead Depth:	4.25108
TOTAL: 6.0126e+07	L2C: 5.11298e+07	LLC: 8.99627e+06	GOOD_L2C: 3.47555e+07
Printing all the perceptron weights to: perc_weights_0.csv

Avg Lookahead Depth:	4.25108
TOTAL: 6.0126e+07	L2C: 5.11298e+07	LLC: 8.99627e+06	GOOD_L2C: 3.47555e+07
Printing all the perceptron weights to: perc_weights_0.csv

Avg Lookahead Depth:	4.25108
TOTAL: 6.0126e+07	L2C: 5.11298e+07	LLC: 8.99627e+06	GOOD_L2C: 3.47555e+07
Printing all the perceptron weights to: perc_weights_0.csv

DRAM Statistics
 CHANNEL 0
 RQ ROW_BUFFER_HIT:    6398288  ROW_BUFFER_MISS:   17619907
 DBUS_CONGESTED:   58761776
 WQ ROW_BUFFER_HIT:     590954  ROW_BUFFER_MISS:    8054941  FULL:          0

 CHANNEL 1
 RQ ROW_BUFFER_HIT:    6047277  ROW_BUFFER_MISS:   17446220
 DBUS_CONGESTED:   58761776
 WQ ROW_BUFFER_HIT:     611779  ROW_BUFFER_MISS:    8123774  FULL:          0

 AVG_CONGESTED_CYCLE: 14
