Initialize SIGNATURE TABLE
ST_SET: 1
ST_WAY: 256
ST_TAG_BIT: 16
ST_TAG_MASK: ffff

Initialize PATTERN TABLE
PT_SET: 512
PT_WAY: 4
SIG_DELTA_BIT: 7
C_SIG_BIT: 4
C_DELTA_BIT: 4

Initialize PREFETCH FILTER
FILTER_SET: 1024

Initialize PERCEPTRON
PERC_ENTRIES: 4096
PERC_FEATURES: 9

*** ChampSim Multicore Out-of-Order Simulator ***

Warmup Instructions: 20000000
Simulation Instructions: 100000000
Number of CPUs: 8
LLC sets: 16384
LLC ways: 16
Off-chip DRAM Size: 8192 MB Channels: 2 Width: 64-bit Data Rate: 1600 MT/s

CPU 0 runs /scratch/user/djimenez/champsim-traces/speccpu2006/xz/483.xalancbmk-127B.champsimtrace.xz
CPU 1 runs /scratch/user/djimenez/champsim-traces/speccpu2006/xz/410.bwaves-1963B.champsimtrace.xz
CPU 2 runs /scratch/user/djimenez/champsim-traces/speccpu2006/xz/429.mcf-217B.champsimtrace.xz
CPU 3 runs /scratch/user/djimenez/champsim-traces/speccpu2006/xz/437.leslie3d-265B.champsimtrace.xz
CPU 4 runs /scratch/user/djimenez/champsim-traces/speccpu2006/xz/437.leslie3d-134B.champsimtrace.xz
CPU 5 runs /scratch/user/djimenez/champsim-traces/speccpu2006/xz/450.soplex-247B.champsimtrace.xz
CPU 6 runs /scratch/user/djimenez/champsim-traces/speccpu2006/xz/482.sphinx3-417B.champsimtrace.xz
CPU 7 runs /scratch/user/djimenez/champsim-traces/speccpu2006/xz/482.sphinx3-234B.champsimtrace.xz
Heartbeat CPU 7 instructions: 10000003 cycles: 3863524 heartbeat IPC: 2.58831 cumulative IPC: 2.58831 (Simulation time: 0 hr 2 min 55 sec) 
Heartbeat CPU 6 instructions: 10000000 cycles: 4172826 heartbeat IPC: 2.39646 cumulative IPC: 2.39646 (Simulation time: 0 hr 3 min 9 sec) 
Heartbeat CPU 0 instructions: 10000002 cycles: 4527790 heartbeat IPC: 2.20858 cumulative IPC: 2.20858 (Simulation time: 0 hr 3 min 25 sec) 
Heartbeat CPU 3 instructions: 10000001 cycles: 4937234 heartbeat IPC: 2.02543 cumulative IPC: 2.02543 (Simulation time: 0 hr 3 min 44 sec) 
Heartbeat CPU 4 instructions: 10000000 cycles: 5003360 heartbeat IPC: 1.99866 cumulative IPC: 1.99866 (Simulation time: 0 hr 3 min 47 sec) 
Heartbeat CPU 2 instructions: 10000003 cycles: 5765647 heartbeat IPC: 1.73441 cumulative IPC: 1.73441 (Simulation time: 0 hr 4 min 22 sec) 
Heartbeat CPU 5 instructions: 10000000 cycles: 5992618 heartbeat IPC: 1.66872 cumulative IPC: 1.66872 (Simulation time: 0 hr 4 min 32 sec) 
Heartbeat CPU 1 instructions: 10000002 cycles: 6624341 heartbeat IPC: 1.50958 cumulative IPC: 1.50958 (Simulation time: 0 hr 5 min 2 sec) 
Heartbeat CPU 7 instructions: 20000000 cycles: 7741241 heartbeat IPC: 2.57884 cumulative IPC: 2.58356 (Simulation time: 0 hr 5 min 55 sec) 
Heartbeat CPU 6 instructions: 20000000 cycles: 8223417 heartbeat IPC: 2.46878 cumulative IPC: 2.43208 (Simulation time: 0 hr 6 min 17 sec) 
Heartbeat CPU 0 instructions: 20000000 cycles: 9073382 heartbeat IPC: 2.19993 cumulative IPC: 2.20425 (Simulation time: 0 hr 6 min 58 sec) 
Heartbeat CPU 3 instructions: 20000000 cycles: 9868336 heartbeat IPC: 2.02794 cumulative IPC: 2.02668 (Simulation time: 0 hr 7 min 35 sec) 
Heartbeat CPU 4 instructions: 20000000 cycles: 9997472 heartbeat IPC: 2.00236 cumulative IPC: 2.00051 (Simulation time: 0 hr 7 min 41 sec) 
Heartbeat CPU 5 instructions: 20000000 cycles: 11045955 heartbeat IPC: 1.97889 cumulative IPC: 1.81062 (Simulation time: 0 hr 8 min 31 sec) 
Heartbeat CPU 7 instructions: 30000000 cycles: 11696029 heartbeat IPC: 2.52858 cumulative IPC: 0.854991 (Simulation time: 0 hr 9 min 1 sec) 
Heartbeat CPU 6 instructions: 30000001 cycles: 12071938 heartbeat IPC: 2.5984 cumulative IPC: 0.828367 (Simulation time: 0 hr 9 min 18 sec) 
Heartbeat CPU 2 instructions: 20000000 cycles: 12202889 heartbeat IPC: 1.55346 cumulative IPC: 1.63896 (Simulation time: 0 hr 9 min 24 sec) 
Heartbeat CPU 1 instructions: 20000000 cycles: 13247723 heartbeat IPC: 1.5098 cumulative IPC: 1.50969 (Simulation time: 0 hr 10 min 12 sec) 

Warmup complete CPU 0 instructions: 29094074 cycles: 13247733 (Simulation time: 0 hr 10 min 12 sec) 
Warmup complete CPU 1 instructions: 20000002 cycles: 13247733 (Simulation time: 0 hr 10 min 12 sec) 
Warmup complete CPU 2 instructions: 21753380 cycles: 13247732 (Simulation time: 0 hr 10 min 12 sec) 
Warmup complete CPU 3 instructions: 26842113 cycles: 13247732 (Simulation time: 0 hr 10 min 12 sec) 
Warmup complete CPU 4 instructions: 26489366 cycles: 13247732 (Simulation time: 0 hr 10 min 12 sec) 
Warmup complete CPU 5 instructions: 24474338 cycles: 13247732 (Simulation time: 0 hr 10 min 12 sec) 
Warmup complete CPU 6 instructions: 32974355 cycles: 13247732 (Simulation time: 0 hr 10 min 12 sec) 
Warmup complete CPU 7 instructions: 34172293 cycles: 13247732 (Simulation time: 0 hr 10 min 12 sec) 

Heartbeat CPU 3 instructions: 30000000 cycles: 16078664 heartbeat IPC: 1.61022 cumulative IPC: 1.11549 (Simulation time: 0 hr 11 min 27 sec) 
Heartbeat CPU 4 instructions: 30000000 cycles: 16465145 heartbeat IPC: 1.54615 cumulative IPC: 1.09114 (Simulation time: 0 hr 11 min 37 sec) 
Heartbeat CPU 0 instructions: 30000002 cycles: 16843764 heartbeat IPC: 1.28694 cumulative IPC: 0.251924 (Simulation time: 0 hr 11 min 46 sec) 
Heartbeat CPU 7 instructions: 40000000 cycles: 20406007 heartbeat IPC: 1.14811 cumulative IPC: 0.814122 (Simulation time: 0 hr 13 min 11 sec) 
Heartbeat CPU 1 instructions: 30000000 cycles: 22368002 heartbeat IPC: 1.09646 cumulative IPC: 1.09646 (Simulation time: 0 hr 13 min 54 sec) 
Heartbeat CPU 6 instructions: 40000000 cycles: 23008683 heartbeat IPC: 0.914349 cumulative IPC: 0.719771 (Simulation time: 0 hr 14 min 8 sec) 
Heartbeat CPU 3 instructions: 40000000 cycles: 25274581 heartbeat IPC: 1.08744 cumulative IPC: 1.09404 (Simulation time: 0 hr 15 min 2 sec) 
Heartbeat CPU 4 instructions: 40000000 cycles: 26021984 heartbeat IPC: 1.04637 cumulative IPC: 1.05765 (Simulation time: 0 hr 15 min 18 sec) 
Heartbeat CPU 5 instructions: 30000001 cycles: 29542853 heartbeat IPC: 0.540631 cumulative IPC: 0.339099 (Simulation time: 0 hr 16 min 36 sec) 
Heartbeat CPU 1 instructions: 40000000 cycles: 31563733 heartbeat IPC: 1.08746 cumulative IPC: 1.09194 (Simulation time: 0 hr 17 min 22 sec) 
Heartbeat CPU 7 instructions: 50000001 cycles: 32304432 heartbeat IPC: 0.840447 cumulative IPC: 0.830559 (Simulation time: 0 hr 17 min 38 sec) 
Heartbeat CPU 3 instructions: 50000000 cycles: 34362346 heartbeat IPC: 1.10038 cumulative IPC: 1.09677 (Simulation time: 0 hr 18 min 25 sec) 
Heartbeat CPU 4 instructions: 50000000 cycles: 35334643 heartbeat IPC: 1.07381 cumulative IPC: 1.06446 (Simulation time: 0 hr 18 min 48 sec) 
Heartbeat CPU 6 instructions: 50000001 cycles: 35393682 heartbeat IPC: 0.807428 cumulative IPC: 0.768793 (Simulation time: 0 hr 18 min 49 sec) 
Heartbeat CPU 1 instructions: 50000001 cycles: 40577700 heartbeat IPC: 1.10939 cumulative IPC: 1.0977 (Simulation time: 0 hr 20 min 47 sec) 
Heartbeat CPU 3 instructions: 60000000 cycles: 43412449 heartbeat IPC: 1.10496 cumulative IPC: 1.09923 (Simulation time: 0 hr 21 min 49 sec) 
Heartbeat CPU 7 instructions: 60000000 cycles: 43863707 heartbeat IPC: 0.865106 cumulative IPC: 0.843602 (Simulation time: 0 hr 21 min 59 sec) 
Heartbeat CPU 4 instructions: 60000000 cycles: 44633130 heartbeat IPC: 1.07544 cumulative IPC: 1.06771 (Simulation time: 0 hr 22 min 17 sec) 
Heartbeat CPU 1 instructions: 60000000 cycles: 49831332 heartbeat IPC: 1.08066 cumulative IPC: 1.09339 (Simulation time: 0 hr 24 min 14 sec) 
Heartbeat CPU 6 instructions: 60000000 cycles: 50839751 heartbeat IPC: 0.647414 cumulative IPC: 0.71892 (Simulation time: 0 hr 24 min 39 sec) 
Heartbeat CPU 2 instructions: 30000002 cycles: 50990193 heartbeat IPC: 0.257816 cumulative IPC: 0.218497 (Simulation time: 0 hr 24 min 43 sec) 
Heartbeat CPU 3 instructions: 70000003 cycles: 52570285 heartbeat IPC: 1.09196 cumulative IPC: 1.09754 (Simulation time: 0 hr 25 min 21 sec) 
Heartbeat CPU 4 instructions: 70000000 cycles: 54086931 heartbeat IPC: 1.05778 cumulative IPC: 1.06541 (Simulation time: 0 hr 25 min 59 sec) 
Heartbeat CPU 7 instructions: 70000000 cycles: 55013631 heartbeat IPC: 0.896867 cumulative IPC: 0.857822 (Simulation time: 0 hr 26 min 21 sec) 
Heartbeat CPU 5 instructions: 40000000 cycles: 55813251 heartbeat IPC: 0.380657 cumulative IPC: 0.364747 (Simulation time: 0 hr 26 min 39 sec) 
Heartbeat CPU 1 instructions: 70000003 cycles: 58828694 heartbeat IPC: 1.11144 cumulative IPC: 1.09695 (Simulation time: 0 hr 27 min 52 sec) 
Heartbeat CPU 0 instructions: 40000000 cycles: 61227454 heartbeat IPC: 0.225308 cumulative IPC: 0.227303 (Simulation time: 0 hr 28 min 48 sec) 
Heartbeat CPU 3 instructions: 80000000 cycles: 61623352 heartbeat IPC: 1.1046 cumulative IPC: 1.09886 (Simulation time: 0 hr 28 min 57 sec) 
Heartbeat CPU 4 instructions: 80000000 cycles: 63350898 heartbeat IPC: 1.07945 cumulative IPC: 1.06801 (Simulation time: 0 hr 29 min 40 sec) 
Heartbeat CPU 6 instructions: 70000002 cycles: 65471398 heartbeat IPC: 0.68345 cumulative IPC: 0.708982 (Simulation time: 0 hr 30 min 29 sec) 
Heartbeat CPU 7 instructions: 80000000 cycles: 65677479 heartbeat IPC: 0.937748 cumulative IPC: 0.874078 (Simulation time: 0 hr 30 min 33 sec) 
Heartbeat CPU 1 instructions: 80000000 cycles: 67764667 heartbeat IPC: 1.11907 cumulative IPC: 1.10058 (Simulation time: 0 hr 31 min 22 sec) 
Heartbeat CPU 2 instructions: 40000000 cycles: 68455973 heartbeat IPC: 0.572548 cumulative IPC: 0.330505 (Simulation time: 0 hr 31 min 40 sec) 
Heartbeat CPU 3 instructions: 90000000 cycles: 70712913 heartbeat IPC: 1.10016 cumulative IPC: 1.09906 (Simulation time: 0 hr 32 min 36 sec) 
Heartbeat CPU 4 instructions: 90000002 cycles: 72709022 heartbeat IPC: 1.06859 cumulative IPC: 1.0681 (Simulation time: 0 hr 33 min 26 sec) 
Heartbeat CPU 1 instructions: 90000000 cycles: 77017848 heartbeat IPC: 1.08071 cumulative IPC: 1.09769 (Simulation time: 0 hr 34 min 59 sec) 
Heartbeat CPU 7 instructions: 90000000 cycles: 77142245 heartbeat IPC: 0.872238 cumulative IPC: 0.873748 (Simulation time: 0 hr 35 min 3 sec) 
Heartbeat CPU 3 instructions: 100000000 cycles: 79837770 heartbeat IPC: 1.09591 cumulative IPC: 1.09863 (Simulation time: 0 hr 36 min 7 sec) 
Heartbeat CPU 5 instructions: 50000001 cycles: 81415251 heartbeat IPC: 0.390595 cumulative IPC: 0.374455 (Simulation time: 0 hr 36 min 47 sec) 
Heartbeat CPU 6 instructions: 80000000 cycles: 81809698 heartbeat IPC: 0.612059 cumulative IPC: 0.685885 (Simulation time: 0 hr 36 min 58 sec) 
Heartbeat CPU 4 instructions: 100000000 cycles: 82036084 heartbeat IPC: 1.07215 cumulative IPC: 1.06865 (Simulation time: 0 hr 37 min 3 sec) 
Heartbeat CPU 1 instructions: 100000000 cycles: 86035069 heartbeat IPC: 1.10899 cumulative IPC: 1.09909 (Simulation time: 0 hr 38 min 29 sec) 
Heartbeat CPU 7 instructions: 100000000 cycles: 88591848 heartbeat IPC: 0.873393 cumulative IPC: 0.873694 (Simulation time: 0 hr 39 min 24 sec) 
Heartbeat CPU 3 instructions: 110000001 cycles: 88903439 heartbeat IPC: 1.10306 cumulative IPC: 1.09916 (Simulation time: 0 hr 39 min 30 sec) 
Heartbeat CPU 4 instructions: 110000001 cycles: 91371888 heartbeat IPC: 1.07115 cumulative IPC: 1.06895 (Simulation time: 0 hr 40 min 27 sec) 
Heartbeat CPU 1 instructions: 110000001 cycles: 95097378 heartbeat IPC: 1.10347 cumulative IPC: 1.09958 (Simulation time: 0 hr 41 min 49 sec) 
Heartbeat CPU 3 instructions: 120000000 cycles: 98070614 heartbeat IPC: 1.09085 cumulative IPC: 1.09826 (Simulation time: 0 hr 42 min 52 sec) 
Heartbeat CPU 2 instructions: 50000001 cycles: 100246414 heartbeat IPC: 0.31456 cumulative IPC: 0.324679 (Simulation time: 0 hr 43 min 39 sec) 
Heartbeat CPU 6 instructions: 90000003 cycles: 100514036 heartbeat IPC: 0.534635 cumulative IPC: 0.653467 (Simulation time: 0 hr 43 min 45 sec) 
Heartbeat CPU 7 instructions: 110000003 cycles: 100856508 heartbeat IPC: 0.815351 cumulative IPC: 0.865526 (Simulation time: 0 hr 43 min 53 sec) 
Heartbeat CPU 4 instructions: 120000000 cycles: 100909288 heartbeat IPC: 1.0485 cumulative IPC: 1.06672 (Simulation time: 0 hr 43 min 54 sec) 
Heartbeat CPU 1 instructions: 120000000 cycles: 104290777 heartbeat IPC: 1.08774 cumulative IPC: 1.09838 (Simulation time: 0 hr 45 min 9 sec) 
Finished CPU 1 instructions: 100000001 cycles: 91043086 cumulative IPC: 1.09838 (Simulation time: 0 hr 45 min 9 sec) 
Finished CPU 3 instructions: 100000003 cycles: 91050925 cumulative IPC: 1.09829 (Simulation time: 0 hr 45 min 9 sec) 
Finished CPU 4 instructions: 100000000 cycles: 93715741 cumulative IPC: 1.06706 (Simulation time: 0 hr 46 min 6 sec) 
Heartbeat CPU 3 instructions: 130000000 cycles: 107152106 heartbeat IPC: 1.10114 cumulative IPC: 1.09854 (Simulation time: 0 hr 46 min 11 sec) 
Heartbeat CPU 5 instructions: 60000000 cycles: 107775081 heartbeat IPC: 0.379365 cumulative IPC: 0.375824 (Simulation time: 0 hr 46 min 25 sec) 
Heartbeat CPU 4 instructions: 130000000 cycles: 110258967 heartbeat IPC: 1.06956 cumulative IPC: 1.067 (Simulation time: 0 hr 47 min 19 sec) 
Heartbeat CPU 0 instructions: 50000000 cycles: 110476811 heartbeat IPC: 0.203048 cumulative IPC: 0.215017 (Simulation time: 0 hr 47 min 23 sec) 
Heartbeat CPU 7 instructions: 120000000 cycles: 113160098 heartbeat IPC: 0.812771 cumulative IPC: 0.85903 (Simulation time: 0 hr 48 min 21 sec) 
Heartbeat CPU 1 instructions: 130000001 cycles: 113461334 heartbeat IPC: 1.09045 cumulative IPC: 1.09766 (Simulation time: 0 hr 48 min 28 sec) 
Heartbeat CPU 6 instructions: 100000000 cycles: 116252600 heartbeat IPC: 0.635382 cumulative IPC: 0.650704 (Simulation time: 0 hr 49 min 26 sec) 
Heartbeat CPU 3 instructions: 140000000 cycles: 116664277 heartbeat IPC: 1.05128 cumulative IPC: 1.0942 (Simulation time: 0 hr 49 min 35 sec) 
Heartbeat CPU 4 instructions: 140000000 cycles: 119759331 heartbeat IPC: 1.05259 cumulative IPC: 1.06571 (Simulation time: 0 hr 50 min 43 sec) 
Heartbeat CPU 1 instructions: 140000000 cycles: 122585576 heartbeat IPC: 1.09598 cumulative IPC: 1.09752 (Simulation time: 0 hr 51 min 46 sec) 
Heartbeat CPU 3 instructions: 150000000 cycles: 126367264 heartbeat IPC: 1.03061 cumulative IPC: 1.08874 (Simulation time: 0 hr 53 min 15 sec) 
Heartbeat CPU 7 instructions: 130000003 cycles: 126547340 heartbeat IPC: 0.74698 cumulative IPC: 0.84579 (Simulation time: 0 hr 53 min 19 sec) 
Heartbeat CPU 4 instructions: 150000002 cycles: 130167833 heartbeat IPC: 0.960753 cumulative IPC: 1.05637 (Simulation time: 0 hr 54 min 34 sec) 
Finished CPU 7 instructions: 100000002 cycles: 118433712 cumulative IPC: 0.844354 (Simulation time: 0 hr 55 min 3 sec) 
Heartbeat CPU 1 instructions: 150000002 cycles: 131867470 heartbeat IPC: 1.07737 cumulative IPC: 1.09594 (Simulation time: 0 hr 55 min 7 sec) 
Heartbeat CPU 6 instructions: 110000002 cycles: 134190516 heartbeat IPC: 0.557478 cumulative IPC: 0.636877 (Simulation time: 0 hr 55 min 56 sec) 
Heartbeat CPU 3 instructions: 160000000 cycles: 136114464 heartbeat IPC: 1.02594 cumulative IPC: 1.08376 (Simulation time: 0 hr 56 min 34 sec) 
Heartbeat CPU 5 instructions: 70000000 cycles: 137874898 heartbeat IPC: 0.332228 cumulative IPC: 0.365295 (Simulation time: 0 hr 57 min 9 sec) 
Heartbeat CPU 7 instructions: 140000000 cycles: 139727283 heartbeat IPC: 0.758728 cumulative IPC: 0.836718 (Simulation time: 0 hr 57 min 44 sec) 
Heartbeat CPU 1 instructions: 160000000 cycles: 141402133 heartbeat IPC: 1.0488 cumulative IPC: 1.09243 (Simulation time: 0 hr 58 min 18 sec) 
Heartbeat CPU 4 instructions: 160000000 cycles: 142399954 heartbeat IPC: 0.81752 cumulative IPC: 1.03375 (Simulation time: 0 hr 58 min 38 sec) 
Heartbeat CPU 3 instructions: 170000001 cycles: 145851567 heartbeat IPC: 1.027 cumulative IPC: 1.07959 (Simulation time: 0 hr 59 min 48 sec) 
Heartbeat CPU 1 instructions: 170000000 cycles: 151016159 heartbeat IPC: 1.04015 cumulative IPC: 1.08878 (Simulation time: 1 hr 1 min 29 sec) 
Heartbeat CPU 6 instructions: 120000000 cycles: 154060511 heartbeat IPC: 0.503271 cumulative IPC: 0.618024 (Simulation time: 1 hr 2 min 30 sec) 
Heartbeat CPU 4 instructions: 170000001 cycles: 155014423 heartbeat IPC: 0.792741 cumulative IPC: 1.0123 (Simulation time: 1 hr 2 min 49 sec) 
Heartbeat CPU 7 instructions: 150000001 cycles: 155051556 heartbeat IPC: 0.65256 cumulative IPC: 0.816817 (Simulation time: 1 hr 2 min 50 sec) 
Heartbeat CPU 3 instructions: 180000000 cycles: 155614983 heartbeat IPC: 1.02423 cumulative IPC: 1.07579 (Simulation time: 1 hr 3 min 1 sec) 
Heartbeat CPU 0 instructions: 60000000 cycles: 160612912 heartbeat IPC: 0.199457 cumulative IPC: 0.209723 (Simulation time: 1 hr 4 min 44 sec) 
Heartbeat CPU 1 instructions: 180000000 cycles: 160650642 heartbeat IPC: 1.03794 cumulative IPC: 1.08546 (Simulation time: 1 hr 4 min 44 sec) 
Heartbeat CPU 2 instructions: 60000000 cycles: 161035046 heartbeat IPC: 0.164504 cumulative IPC: 0.258795 (Simulation time: 1 hr 4 min 53 sec) 
Heartbeat CPU 3 instructions: 190000000 cycles: 165333815 heartbeat IPC: 1.02893 cumulative IPC: 1.0728 (Simulation time: 1 hr 6 min 32 sec) 
Heartbeat CPU 4 instructions: 180000000 cycles: 167260627 heartbeat IPC: 0.816579 cumulative IPC: 0.996739 (Simulation time: 1 hr 7 min 10 sec) 
Heartbeat CPU 7 instructions: 160000000 cycles: 168791222 heartbeat IPC: 0.72782 cumulative IPC: 0.808955 (Simulation time: 1 hr 7 min 39 sec) 
Heartbeat CPU 1 instructions: 190000003 cycles: 170005088 heartbeat IPC: 1.06901 cumulative IPC: 1.08448 (Simulation time: 1 hr 8 min 3 sec) 
Heartbeat CPU 5 instructions: 80000000 cycles: 170111489 heartbeat IPC: 0.310207 cumulative IPC: 0.353974 (Simulation time: 1 hr 8 min 5 sec) 
Heartbeat CPU 6 instructions: 130000001 cycles: 172203806 heartbeat IPC: 0.551168 cumulative IPC: 0.610393 (Simulation time: 1 hr 8 min 55 sec) 
Heartbeat CPU 3 instructions: 200000000 cycles: 174778683 heartbeat IPC: 1.05878 cumulative IPC: 1.07198 (Simulation time: 1 hr 9 min 54 sec) 
Finished CPU 6 instructions: 100000003 cycles: 163498285 cumulative IPC: 0.611627 (Simulation time: 1 hr 10 min 31 sec) 
Heartbeat CPU 1 instructions: 200000000 cycles: 179878335 heartbeat IPC: 1.01284 cumulative IPC: 1.08023 (Simulation time: 1 hr 11 min 29 sec) 
Heartbeat CPU 4 instructions: 190000003 cycles: 179937446 heartbeat IPC: 0.788842 cumulative IPC: 0.980928 (Simulation time: 1 hr 11 min 30 sec) 
Heartbeat CPU 7 instructions: 170000001 cycles: 184177971 heartbeat IPC: 0.64991 cumulative IPC: 0.794638 (Simulation time: 1 hr 12 min 52 sec) 
Heartbeat CPU 3 instructions: 210000003 cycles: 184605691 heartbeat IPC: 1.0176 cumulative IPC: 1.06886 (Simulation time: 1 hr 13 min 0 sec) 
Heartbeat CPU 1 instructions: 210000001 cycles: 190487460 heartbeat IPC: 0.942585 cumulative IPC: 1.07199 (Simulation time: 1 hr 14 min 38 sec) 
Heartbeat CPU 6 instructions: 140000000 cycles: 193092339 heartbeat IPC: 0.478732 cumulative IPC: 0.595101 (Simulation time: 1 hr 15 min 29 sec) 
Heartbeat CPU 3 instructions: 220000000 cycles: 194721559 heartbeat IPC: 0.988546 cumulative IPC: 1.06438 (Simulation time: 1 hr 16 min 4 sec) 
Heartbeat CPU 4 instructions: 200000000 cycles: 195185529 heartbeat IPC: 0.65582 cumulative IPC: 0.953681 (Simulation time: 1 hr 16 min 13 sec) 
Heartbeat CPU 2 instructions: 70000001 cycles: 199663316 heartbeat IPC: 0.258878 cumulative IPC: 0.258812 (Simulation time: 1 hr 17 min 40 sec) 
Heartbeat CPU 7 instructions: 180000000 cycles: 200003033 heartbeat IPC: 0.631909 cumulative IPC: 0.780849 (Simulation time: 1 hr 17 min 46 sec) 
Heartbeat CPU 1 instructions: 220000000 cycles: 200528317 heartbeat IPC: 0.995931 cumulative IPC: 1.06792 (Simulation time: 1 hr 17 min 57 sec) 
Heartbeat CPU 4 instructions: 210000003 cycles: 205075141 heartbeat IPC: 1.01116 cumulative IPC: 0.956645 (Simulation time: 1 hr 19 min 30 sec) 
Heartbeat CPU 5 instructions: 90000001 cycles: 206358507 heartbeat IPC: 0.275885 cumulative IPC: 0.339316 (Simulation time: 1 hr 19 min 55 sec) 
Heartbeat CPU 3 instructions: 230000000 cycles: 206927587 heartbeat IPC: 0.819267 cumulative IPC: 1.04894 (Simulation time: 1 hr 20 min 7 sec) 
Heartbeat CPU 1 instructions: 230000002 cycles: 209924418 heartbeat IPC: 1.06427 cumulative IPC: 1.06774 (Simulation time: 1 hr 21 min 10 sec) 
Heartbeat CPU 6 instructions: 150000000 cycles: 211624826 heartbeat IPC: 0.539593 cumulative IPC: 0.589915 (Simulation time: 1 hr 21 min 43 sec) 
Heartbeat CPU 7 instructions: 190000000 cycles: 213251643 heartbeat IPC: 0.754796 cumulative IPC: 0.779123 (Simulation time: 1 hr 22 min 19 sec) 
Heartbeat CPU 4 instructions: 220000000 cycles: 214756141 heartbeat IPC: 1.03295 cumulative IPC: 0.96031 (Simulation time: 1 hr 22 min 51 sec) 
Heartbeat CPU 3 instructions: 240000000 cycles: 219210307 heartbeat IPC: 0.814152 cumulative IPC: 1.03493 (Simulation time: 1 hr 24 min 21 sec) 
Heartbeat CPU 0 instructions: 70000002 cycles: 219283541 heartbeat IPC: 0.170443 cumulative IPC: 0.198538 (Simulation time: 1 hr 24 min 22 sec) 
Heartbeat CPU 1 instructions: 240000000 cycles: 219379714 heartbeat IPC: 1.05761 cumulative IPC: 1.06728 (Simulation time: 1 hr 24 min 24 sec) 
Heartbeat CPU 4 instructions: 230000002 cycles: 224042391 heartbeat IPC: 1.07686 cumulative IPC: 0.965445 (Simulation time: 1 hr 26 min 3 sec) 
Heartbeat CPU 7 instructions: 200000000 cycles: 226066737 heartbeat IPC: 0.78033 cumulative IPC: 0.779196 (Simulation time: 1 hr 26 min 45 sec) 
Heartbeat CPU 1 instructions: 250000001 cycles: 228589745 heartbeat IPC: 1.08577 cumulative IPC: 1.06807 (Simulation time: 1 hr 27 min 36 sec) 
Heartbeat CPU 6 instructions: 160000000 cycles: 229564881 heartbeat IPC: 0.557412 cumulative IPC: 0.587219 (Simulation time: 1 hr 27 min 57 sec) 
Heartbeat CPU 3 instructions: 250000000 cycles: 231234181 heartbeat IPC: 0.831679 cumulative IPC: 1.02372 (Simulation time: 1 hr 28 min 34 sec) 
Heartbeat CPU 4 instructions: 240000000 cycles: 233333574 heartbeat IPC: 1.07629 cumulative IPC: 0.970124 (Simulation time: 1 hr 29 min 18 sec) 
Heartbeat CPU 5 instructions: 100000000 cycles: 233755680 heartbeat IPC: 0.365001 cumulative IPC: 0.342508 (Simulation time: 1 hr 29 min 28 sec) 
Heartbeat CPU 1 instructions: 260000000 cycles: 237730616 heartbeat IPC: 1.09399 cumulative IPC: 1.06912 (Simulation time: 1 hr 30 min 48 sec) 
Heartbeat CPU 7 instructions: 210000003 cycles: 238650301 heartbeat IPC: 0.794688 cumulative IPC: 0.780061 (Simulation time: 1 hr 31 min 8 sec) 
Heartbeat CPU 4 instructions: 250000002 cycles: 242608120 heartbeat IPC: 1.07822 cumulative IPC: 0.974495 (Simulation time: 1 hr 32 min 40 sec) 
Heartbeat CPU 3 instructions: 260000000 cycles: 242747556 heartbeat IPC: 0.868555 cumulative IPC: 1.01594 (Simulation time: 1 hr 32 min 43 sec) 
Heartbeat CPU 6 instructions: 170000002 cycles: 245945522 heartbeat IPC: 0.610477 cumulative IPC: 0.588857 (Simulation time: 1 hr 33 min 58 sec) 
Heartbeat CPU 1 instructions: 270000001 cycles: 246716730 heartbeat IPC: 1.11283 cumulative IPC: 1.07081 (Simulation time: 1 hr 34 min 16 sec) 
Heartbeat CPU 2 instructions: 80000000 cycles: 249868967 heartbeat IPC: 0.199181 cumulative IPC: 0.24616 (Simulation time: 1 hr 35 min 27 sec) 
Heartbeat CPU 7 instructions: 220000000 cycles: 250665914 heartbeat IPC: 0.83225 cumulative IPC: 0.782702 (Simulation time: 1 hr 35 min 46 sec) 
Heartbeat CPU 4 instructions: 260000000 cycles: 251898275 heartbeat IPC: 1.07641 cumulative IPC: 0.978463 (Simulation time: 1 hr 36 min 16 sec) 
Heartbeat CPU 3 instructions: 270000000 cycles: 252194445 heartbeat IPC: 1.05855 cumulative IPC: 1.01762 (Simulation time: 1 hr 36 min 24 sec) 
Heartbeat CPU 1 instructions: 280000000 cycles: 255816072 heartbeat IPC: 1.09898 cumulative IPC: 1.07186 (Simulation time: 1 hr 37 min 47 sec) 
Heartbeat CPU 4 instructions: 270000000 cycles: 261199183 heartbeat IPC: 1.07516 cumulative IPC: 0.98209 (Simulation time: 1 hr 39 min 43 sec) 
Heartbeat CPU 3 instructions: 280000000 cycles: 261609285 heartbeat IPC: 1.06215 cumulative IPC: 1.01931 (Simulation time: 1 hr 39 min 52 sec) 
Heartbeat CPU 7 instructions: 230000001 cycles: 261810233 heartbeat IPC: 0.897318 cumulative IPC: 0.787841 (Simulation time: 1 hr 39 min 56 sec) 
Heartbeat CPU 6 instructions: 180000000 cycles: 262641072 heartbeat IPC: 0.598962 cumulative IPC: 0.589533 (Simulation time: 1 hr 40 min 14 sec) 
Heartbeat CPU 0 instructions: 80000000 cycles: 264932777 heartbeat IPC: 0.219062 cumulative IPC: 0.20226 (Simulation time: 1 hr 41 min 7 sec) 
Heartbeat CPU 1 instructions: 290000001 cycles: 265021293 heartbeat IPC: 1.08634 cumulative IPC: 1.07239 (Simulation time: 1 hr 41 min 10 sec) 
Heartbeat CPU 4 instructions: 280000000 cycles: 270489065 heartbeat IPC: 1.07644 cumulative IPC: 0.985497 (Simulation time: 1 hr 43 min 5 sec) 
Heartbeat CPU 3 instructions: 290000003 cycles: 270941150 heartbeat IPC: 1.0716 cumulative IPC: 1.02121 (Simulation time: 1 hr 43 min 16 sec) 
Heartbeat CPU 7 instructions: 240000000 cycles: 273114058 heartbeat IPC: 0.884656 cumulative IPC: 0.792052 (Simulation time: 1 hr 44 min 4 sec) 
Heartbeat CPU 1 instructions: 300000000 cycles: 274166823 heartbeat IPC: 1.09343 cumulative IPC: 1.07313 (Simulation time: 1 hr 44 min 25 sec) 
Heartbeat CPU 6 instructions: 190000000 cycles: 279128904 heartbeat IPC: 0.606508 cumulative IPC: 0.590586 (Simulation time: 1 hr 46 min 10 sec) 
Heartbeat CPU 4 instructions: 290000002 cycles: 279584260 heartbeat IPC: 1.09948 cumulative IPC: 0.98939 (Simulation time: 1 hr 46 min 19 sec) 
Heartbeat CPU 3 instructions: 300000000 cycles: 280319119 heartbeat IPC: 1.06633 cumulative IPC: 1.02279 (Simulation time: 1 hr 46 min 36 sec) 
Heartbeat CPU 5 instructions: 110000001 cycles: 282788053 heartbeat IPC: 0.203947 cumulative IPC: 0.317302 (Simulation time: 1 hr 47 min 38 sec) 
Heartbeat CPU 1 instructions: 310000000 cycles: 283351350 heartbeat IPC: 1.08879 cumulative IPC: 1.07366 (Simulation time: 1 hr 47 min 51 sec) 
Heartbeat CPU 2 instructions: 90000000 cycles: 284534632 heartbeat IPC: 0.28847 cumulative IPC: 0.251566 (Simulation time: 1 hr 48 min 19 sec) 
Heartbeat CPU 7 instructions: 250000000 cycles: 284720434 heartbeat IPC: 0.861595 cumulative IPC: 0.795025 (Simulation time: 1 hr 48 min 23 sec) 
Heartbeat CPU 4 instructions: 300000000 cycles: 288746442 heartbeat IPC: 1.09144 cumulative IPC: 0.992784 (Simulation time: 1 hr 49 min 54 sec) 
Heartbeat CPU 3 instructions: 310000001 cycles: 289789771 heartbeat IPC: 1.05589 cumulative IPC: 1.02392 (Simulation time: 1 hr 50 min 18 sec) 
Heartbeat CPU 1 instructions: 320000000 cycles: 292873770 heartbeat IPC: 1.05015 cumulative IPC: 1.07286 (Simulation time: 1 hr 51 min 25 sec) 
Heartbeat CPU 6 instructions: 200000000 cycles: 295586586 heartbeat IPC: 0.607619 cumulative IPC: 0.591579 (Simulation time: 1 hr 52 min 21 sec) 
Heartbeat CPU 7 instructions: 260000000 cycles: 296984365 heartbeat IPC: 0.815399 cumulative IPC: 0.795906 (Simulation time: 1 hr 52 min 51 sec) 
Heartbeat CPU 4 instructions: 310000001 cycles: 298838877 heartbeat IPC: 0.990841 cumulative IPC: 0.992715 (Simulation time: 1 hr 53 min 30 sec) 
Heartbeat CPU 3 instructions: 320000000 cycles: 299494692 heartbeat IPC: 1.03041 cumulative IPC: 1.02414 (Simulation time: 1 hr 53 min 44 sec) 
Heartbeat CPU 1 instructions: 330000000 cycles: 302148627 heartbeat IPC: 1.07818 cumulative IPC: 1.07303 (Simulation time: 1 hr 54 min 43 sec) 
Heartbeat CPU 5 instructions: 120000000 cycles: 306772940 heartbeat IPC: 0.416929 cumulative IPC: 0.325443 (Simulation time: 1 hr 56 min 21 sec) 
Heartbeat CPU 3 instructions: 330000000 cycles: 309100136 heartbeat IPC: 1.04108 cumulative IPC: 1.02469 (Simulation time: 1 hr 57 min 12 sec) 
Heartbeat CPU 7 instructions: 270000001 cycles: 309766604 heartbeat IPC: 0.782336 cumulative IPC: 0.795321 (Simulation time: 1 hr 57 min 25 sec) 
Heartbeat CPU 4 instructions: 320000000 cycles: 311095507 heartbeat IPC: 0.815885 cumulative IPC: 0.985438 (Simulation time: 1 hr 57 min 54 sec) 
Heartbeat CPU 1 instructions: 340000000 cycles: 311575153 heartbeat IPC: 1.06084 cumulative IPC: 1.07265 (Simulation time: 1 hr 58 min 5 sec) 
Heartbeat CPU 6 instructions: 210000000 cycles: 312421493 heartbeat IPC: 0.594004 cumulative IPC: 0.591715 (Simulation time: 1 hr 58 min 24 sec) 
Heartbeat CPU 0 instructions: 90000001 cycles: 317165671 heartbeat IPC: 0.19145 cumulative IPC: 0.200403 (Simulation time: 2 hr 0 min 14 sec) 
Heartbeat CPU 3 instructions: 340000000 cycles: 318492956 heartbeat IPC: 1.06464 cumulative IPC: 1.02592 (Simulation time: 2 hr 0 min 39 sec) 
Finished CPU 5 instructions: 100000003 cycles: 305516543 cumulative IPC: 0.327315 (Simulation time: 2 hr 0 min 45 sec) 
Heartbeat CPU 7 instructions: 280000000 cycles: 321472231 heartbeat IPC: 0.85429 cumulative IPC: 0.797561 (Simulation time: 2 hr 1 min 42 sec) 
Heartbeat CPU 2 instructions: 100000000 cycles: 321622515 heartbeat IPC: 0.26963 cumulative IPC: 0.253739 (Simulation time: 2 hr 1 min 46 sec) 
Heartbeat CPU 1 instructions: 350000002 cycles: 322290740 heartbeat IPC: 0.93322 cumulative IPC: 1.06781 (Simulation time: 2 hr 2 min 1 sec) 
Heartbeat CPU 4 instructions: 330000003 cycles: 323199992 heartbeat IPC: 0.82614 cumulative IPC: 0.979217 (Simulation time: 2 hr 2 min 21 sec) 
Heartbeat CPU 6 instructions: 220000000 cycles: 325994539 heartbeat IPC: 0.736754 cumulative IPC: 0.59801 (Simulation time: 2 hr 3 min 22 sec) 
Heartbeat CPU 3 instructions: 350000002 cycles: 327815869 heartbeat IPC: 1.07263 cumulative IPC: 1.02731 (Simulation time: 2 hr 3 min 58 sec) 
Heartbeat CPU 7 instructions: 290000000 cycles: 333690275 heartbeat IPC: 0.818462 cumulative IPC: 0.798357 (Simulation time: 2 hr 5 min 53 sec) 
Heartbeat CPU 1 instructions: 360000000 cycles: 334082776 heartbeat IPC: 0.84803 cumulative IPC: 1.05973 (Simulation time: 2 hr 6 min 1 sec) 
Heartbeat CPU 4 instructions: 340000000 cycles: 335441708 heartbeat IPC: 0.816879 cumulative IPC: 0.973049 (Simulation time: 2 hr 6 min 31 sec) 
Heartbeat CPU 5 instructions: 130000001 cycles: 336896809 heartbeat IPC: 0.331963 cumulative IPC: 0.32605 (Simulation time: 2 hr 7 min 1 sec) 
Heartbeat CPU 3 instructions: 360000000 cycles: 337248721 heartbeat IPC: 1.06012 cumulative IPC: 1.02826 (Simulation time: 2 hr 7 min 9 sec) 
Heartbeat CPU 6 instructions: 230000002 cycles: 340524654 heartbeat IPC: 0.688226 cumulative IPC: 0.602015 (Simulation time: 2 hr 8 min 21 sec) 
Heartbeat CPU 1 instructions: 370000002 cycles: 345501573 heartbeat IPC: 0.875749 cumulative IPC: 1.05341 (Simulation time: 2 hr 9 min 56 sec) 
Heartbeat CPU 7 instructions: 300000000 cycles: 346481428 heartbeat IPC: 0.78179 cumulative IPC: 0.797722 (Simulation time: 2 hr 10 min 15 sec) 
Heartbeat CPU 4 instructions: 350000001 cycles: 346772929 heartbeat IPC: 0.882518 cumulative IPC: 0.969974 (Simulation time: 2 hr 10 min 20 sec) 
Heartbeat CPU 3 instructions: 370000002 cycles: 346780953 heartbeat IPC: 1.04907 cumulative IPC: 1.02886 (Simulation time: 2 hr 10 min 20 sec) 
Heartbeat CPU 2 instructions: 110000002 cycles: 350008472 heartbeat IPC: 0.352287 cumulative IPC: 0.262045 (Simulation time: 2 hr 11 min 28 sec) 
Heartbeat CPU 1 instructions: 380000000 cycles: 355842235 heartbeat IPC: 0.967056 cumulative IPC: 1.0508 (Simulation time: 2 hr 13 min 42 sec) 
Heartbeat CPU 4 instructions: 360000000 cycles: 356071492 heartbeat IPC: 1.07543 cumulative IPC: 0.972834 (Simulation time: 2 hr 13 min 48 sec) 
Heartbeat CPU 3 instructions: 380000000 cycles: 356345470 heartbeat IPC: 1.04553 cumulative IPC: 1.02932 (Simulation time: 2 hr 13 min 54 sec) 
Heartbeat CPU 6 instructions: 240000000 cycles: 357570544 heartbeat IPC: 0.586652 cumulative IPC: 0.601255 (Simulation time: 2 hr 14 min 20 sec) 
Heartbeat CPU 7 instructions: 310000000 cycles: 359839045 heartbeat IPC: 0.748637 cumulative IPC: 0.79583 (Simulation time: 2 hr 15 min 10 sec) 
Heartbeat CPU 5 instructions: 140000000 cycles: 364842937 heartbeat IPC: 0.357831 cumulative IPC: 0.328576 (Simulation time: 2 hr 17 min 9 sec) 
Heartbeat CPU 1 instructions: 390000000 cycles: 365054533 heartbeat IPC: 1.08551 cumulative IPC: 1.05171 (Simulation time: 2 hr 17 min 14 sec) 
Heartbeat CPU 0 instructions: 100000000 cycles: 365125044 heartbeat IPC: 0.20851 cumulative IPC: 0.201508 (Simulation time: 2 hr 17 min 16 sec) 
Heartbeat CPU 4 instructions: 370000003 cycles: 365221190 heartbeat IPC: 1.09293 cumulative IPC: 0.975956 (Simulation time: 2 hr 17 min 18 sec) 
Heartbeat CPU 3 instructions: 390000002 cycles: 365847408 heartbeat IPC: 1.05242 cumulative IPC: 1.02994 (Simulation time: 2 hr 17 min 35 sec) 
Heartbeat CPU 2 instructions: 120000000 cycles: 366024634 heartbeat IPC: 0.624369 cumulative IPC: 0.278495 (Simulation time: 2 hr 17 min 39 sec) 
Heartbeat CPU 7 instructions: 320000000 cycles: 371224957 heartbeat IPC: 0.878278 cumulative IPC: 0.798452 (Simulation time: 2 hr 19 min 29 sec) 
Heartbeat CPU 6 instructions: 250000003 cycles: 372461497 heartbeat IPC: 0.671549 cumulative IPC: 0.604169 (Simulation time: 2 hr 19 min 58 sec) 
Heartbeat CPU 1 instructions: 400000000 cycles: 374221528 heartbeat IPC: 1.09087 cumulative IPC: 1.05271 (Simulation time: 2 hr 20 min 38 sec) 
Heartbeat CPU 4 instructions: 380000000 cycles: 374313876 heartbeat IPC: 1.09978 cumulative IPC: 0.979074 (Simulation time: 2 hr 20 min 41 sec) 
Heartbeat CPU 3 instructions: 400000000 cycles: 375302949 heartbeat IPC: 1.05758 cumulative IPC: 1.03067 (Simulation time: 2 hr 21 min 2 sec) 
Finished CPU 2 instructions: 100000000 cycles: 369622491 cumulative IPC: 0.270546 (Simulation time: 2 hr 23 min 45 sec) 
Heartbeat CPU 4 instructions: 390000003 cycles: 383544030 heartbeat IPC: 1.08341 cumulative IPC: 0.981675 (Simulation time: 2 hr 23 min 58 sec) 
Heartbeat CPU 7 instructions: 330000000 cycles: 383601232 heartbeat IPC: 0.807998 cumulative IPC: 0.798771 (Simulation time: 2 hr 23 min 59 sec) 
Heartbeat CPU 1 instructions: 410000001 cycles: 383607367 heartbeat IPC: 1.06543 cumulative IPC: 1.05303 (Simulation time: 2 hr 23 min 59 sec) 
Heartbeat CPU 3 instructions: 410000000 cycles: 385045964 heartbeat IPC: 1.02638 cumulative IPC: 1.03055 (Simulation time: 2 hr 24 min 32 sec) 
Heartbeat CPU 6 instructions: 260000000 cycles: 387723111 heartbeat IPC: 0.655239 cumulative IPC: 0.60625 (Simulation time: 2 hr 25 min 36 sec) 
Heartbeat CPU 5 instructions: 150000002 cycles: 390587048 heartbeat IPC: 0.388438 cumulative IPC: 0.33266 (Simulation time: 2 hr 26 min 44 sec) 
Heartbeat CPU 4 instructions: 400000000 cycles: 392634541 heartbeat IPC: 1.10005 cumulative IPC: 0.984511 (Simulation time: 2 hr 27 min 26 sec) 
Heartbeat CPU 1 instructions: 420000000 cycles: 392667929 heartbeat IPC: 1.10368 cumulative IPC: 1.05424 (Simulation time: 2 hr 27 min 27 sec) 
Heartbeat CPU 3 instructions: 420000000 cycles: 394930000 heartbeat IPC: 1.01173 cumulative IPC: 1.03007 (Simulation time: 2 hr 28 min 16 sec) 
Heartbeat CPU 7 instructions: 340000000 cycles: 395559888 heartbeat IPC: 0.836214 cumulative IPC: 0.799942 (Simulation time: 2 hr 28 min 30 sec) 
Heartbeat CPU 6 instructions: 270000002 cycles: 401723814 heartbeat IPC: 0.71425 cumulative IPC: 0.610142 (Simulation time: 2 hr 30 min 44 sec) 
Heartbeat CPU 4 instructions: 410000003 cycles: 401768427 heartbeat IPC: 1.09482 cumulative IPC: 0.987105 (Simulation time: 2 hr 30 min 45 sec) 
Heartbeat CPU 1 instructions: 430000002 cycles: 401892876 heartbeat IPC: 1.08402 cumulative IPC: 1.05495 (Simulation time: 2 hr 30 min 48 sec) 
Heartbeat CPU 3 instructions: 430000003 cycles: 404833955 heartbeat IPC: 1.0097 cumulative IPC: 1.02955 (Simulation time: 2 hr 31 min 52 sec) 
Heartbeat CPU 7 instructions: 350000002 cycles: 408088746 heartbeat IPC: 0.798158 cumulative IPC: 0.799886 (Simulation time: 2 hr 33 min 1 sec) 
Heartbeat CPU 2 instructions: 130000000 cycles: 409730432 heartbeat IPC: 0.228803 cumulative IPC: 0.273017 (Simulation time: 2 hr 33 min 41 sec) 
Heartbeat CPU 4 instructions: 420000000 cycles: 410982054 heartbeat IPC: 1.08535 cumulative IPC: 0.989381 (Simulation time: 2 hr 34 min 10 sec) 
Heartbeat CPU 1 instructions: 440000000 cycles: 411178514 heartbeat IPC: 1.07693 cumulative IPC: 1.05546 (Simulation time: 2 hr 34 min 14 sec) 
Heartbeat CPU 3 instructions: 440000000 cycles: 414731323 heartbeat IPC: 1.01037 cumulative IPC: 1.02908 (Simulation time: 2 hr 35 min 38 sec) 
Heartbeat CPU 0 instructions: 110000003 cycles: 416842253 heartbeat IPC: 0.193359 cumulative IPC: 0.200463 (Simulation time: 2 hr 36 min 22 sec) 
Heartbeat CPU 6 instructions: 280000000 cycles: 417246090 heartbeat IPC: 0.644235 cumulative IPC: 0.611452 (Simulation time: 2 hr 36 min 30 sec) 
Heartbeat CPU 5 instructions: 160000000 cycles: 419448796 heartbeat IPC: 0.346479 cumulative IPC: 0.333642 (Simulation time: 2 hr 37 min 21 sec) 
Heartbeat CPU 4 instructions: 430000001 cycles: 420098249 heartbeat IPC: 1.09695 cumulative IPC: 0.991791 (Simulation time: 2 hr 37 min 37 sec) 
Heartbeat CPU 1 instructions: 450000001 cycles: 420276341 heartbeat IPC: 1.09916 cumulative IPC: 1.05644 (Simulation time: 2 hr 37 min 42 sec) 
Heartbeat CPU 7 instructions: 360000000 cycles: 420281993 heartbeat IPC: 0.820126 cumulative IPC: 0.800492 (Simulation time: 2 hr 37 min 42 sec) 
Heartbeat CPU 3 instructions: 450000000 cycles: 424635144 heartbeat IPC: 1.00971 cumulative IPC: 1.02861 (Simulation time: 2 hr 39 min 24 sec) 
Heartbeat CPU 4 instructions: 440000000 cycles: 429280770 heartbeat IPC: 1.08903 cumulative IPC: 0.993937 (Simulation time: 2 hr 41 min 3 sec) 
Heartbeat CPU 1 instructions: 460000000 cycles: 429488178 heartbeat IPC: 1.08556 cumulative IPC: 1.05708 (Simulation time: 2 hr 41 min 8 sec) 
Heartbeat CPU 6 instructions: 290000000 cycles: 432067887 heartbeat IPC: 0.674682 cumulative IPC: 0.61369 (Simulation time: 2 hr 42 min 4 sec) 
Heartbeat CPU 7 instructions: 370000000 cycles: 433296280 heartbeat IPC: 0.768386 cumulative IPC: 0.799497 (Simulation time: 2 hr 42 min 30 sec) 
Heartbeat CPU 3 instructions: 460000000 cycles: 434464383 heartbeat IPC: 1.01737 cumulative IPC: 1.02835 (Simulation time: 2 hr 42 min 54 sec) 
Heartbeat CPU 2 instructions: 140000000 cycles: 435497477 heartbeat IPC: 0.388093 cumulative IPC: 0.28004 (Simulation time: 2 hr 43 min 16 sec) 
Heartbeat CPU 4 instructions: 450000000 cycles: 438502505 heartbeat IPC: 1.08439 cumulative IPC: 0.995899 (Simulation time: 2 hr 44 min 21 sec) 
Heartbeat CPU 1 instructions: 470000000 cycles: 438980252 heartbeat IPC: 1.05351 cumulative IPC: 1.057 (Simulation time: 2 hr 44 min 32 sec) 
Heartbeat CPU 3 instructions: 470000000 cycles: 443620288 heartbeat IPC: 1.09219 cumulative IPC: 1.02971 (Simulation time: 2 hr 46 min 18 sec) 
Heartbeat CPU 7 instructions: 380000000 cycles: 446048718 heartbeat IPC: 0.784164 cumulative IPC: 0.799046 (Simulation time: 2 hr 47 min 13 sec) 
Heartbeat CPU 6 instructions: 300000000 cycles: 446478437 heartbeat IPC: 0.693936 cumulative IPC: 0.616359 (Simulation time: 2 hr 47 min 21 sec) 
Heartbeat CPU 4 instructions: 460000000 cycles: 447730813 heartbeat IPC: 1.08362 cumulative IPC: 0.997762 (Simulation time: 2 hr 47 min 47 sec) 
Heartbeat CPU 1 instructions: 480000000 cycles: 448278139 heartbeat IPC: 1.07551 cumulative IPC: 1.0574 (Simulation time: 2 hr 47 min 58 sec) 
Heartbeat CPU 5 instructions: 170000002 cycles: 448721902 heartbeat IPC: 0.341611 cumulative IPC: 0.334177 (Simulation time: 2 hr 48 min 8 sec) 
Heartbeat CPU 3 instructions: 480000000 cycles: 453231306 heartbeat IPC: 1.04047 cumulative IPC: 1.02994 (Simulation time: 2 hr 49 min 42 sec) 
Heartbeat CPU 4 instructions: 470000000 cycles: 457010797 heartbeat IPC: 1.07759 cumulative IPC: 0.999431 (Simulation time: 2 hr 51 min 2 sec) 
Heartbeat CPU 1 instructions: 490000001 cycles: 457776744 heartbeat IPC: 1.05279 cumulative IPC: 1.0573 (Simulation time: 2 hr 51 min 18 sec) 
Heartbeat CPU 7 instructions: 390000003 cycles: 459871867 heartbeat IPC: 0.723424 cumulative IPC: 0.796705 (Simulation time: 2 hr 52 min 1 sec) 
Heartbeat CPU 6 instructions: 310000003 cycles: 461894706 heartbeat IPC: 0.648666 cumulative IPC: 0.617469 (Simulation time: 2 hr 52 min 43 sec) 
Heartbeat CPU 3 instructions: 490000000 cycles: 465312562 heartbeat IPC: 0.827729 cumulative IPC: 1.02454 (Simulation time: 2 hr 53 min 57 sec) 
Heartbeat CPU 4 instructions: 480000000 cycles: 466127661 heartbeat IPC: 1.09687 cumulative IPC: 1.00139 (Simulation time: 2 hr 54 min 14 sec) 
Heartbeat CPU 1 instructions: 500000000 cycles: 466915489 heartbeat IPC: 1.09424 cumulative IPC: 1.05804 (Simulation time: 2 hr 54 min 30 sec) 
Heartbeat CPU 0 instructions: 120000000 cycles: 470223326 heartbeat IPC: 0.187332 cumulative IPC: 0.19893 (Simulation time: 2 hr 55 min 39 sec) 
Heartbeat CPU 7 instructions: 400000000 cycles: 471019018 heartbeat IPC: 0.89709 cumulative IPC: 0.79915 (Simulation time: 2 hr 55 min 57 sec) 
Heartbeat CPU 4 instructions: 490000001 cycles: 475274018 heartbeat IPC: 1.09333 cumulative IPC: 1.00321 (Simulation time: 2 hr 57 min 26 sec) 
Heartbeat CPU 5 instructions: 180000000 cycles: 475363027 heartbeat IPC: 0.375359 cumulative IPC: 0.336552 (Simulation time: 2 hr 57 min 28 sec) 
Heartbeat CPU 1 instructions: 510000001 cycles: 476023550 heartbeat IPC: 1.09793 cumulative IPC: 1.05883 (Simulation time: 2 hr 57 min 41 sec) 
Heartbeat CPU 3 instructions: 500000000 cycles: 477324740 heartbeat IPC: 0.832488 cumulative IPC: 1.01957 (Simulation time: 2 hr 58 min 8 sec) 
Heartbeat CPU 6 instructions: 320000000 cycles: 477608198 heartbeat IPC: 0.636396 cumulative IPC: 0.61811 (Simulation time: 2 hr 58 min 14 sec) 
Heartbeat CPU 7 instructions: 410000000 cycles: 484090916 heartbeat IPC: 0.765 cumulative IPC: 0.798201 (Simulation time: 3 hr 0 min 26 sec) 
Heartbeat CPU 4 instructions: 500000000 cycles: 484855837 heartbeat IPC: 1.04364 cumulative IPC: 1.00403 (Simulation time: 3 hr 0 min 41 sec) 
Heartbeat CPU 1 instructions: 520000000 cycles: 485469877 heartbeat IPC: 1.05861 cumulative IPC: 1.05882 (Simulation time: 3 hr 0 min 54 sec) 
Heartbeat CPU 2 instructions: 150000000 cycles: 488703301 heartbeat IPC: 0.187949 cumulative IPC: 0.269734 (Simulation time: 3 hr 2 min 8 sec) 
Heartbeat CPU 3 instructions: 510000000 cycles: 489497250 heartbeat IPC: 0.821523 cumulative IPC: 1.01451 (Simulation time: 3 hr 2 min 26 sec) 
Heartbeat CPU 6 instructions: 330000003 cycles: 492988798 heartbeat IPC: 0.65017 cumulative IPC: 0.619137 (Simulation time: 3 hr 3 min 42 sec) 
Heartbeat CPU 4 instructions: 510000000 cycles: 494566458 heartbeat IPC: 1.0298 cumulative IPC: 1.00455 (Simulation time: 3 hr 4 min 19 sec) 
Heartbeat CPU 1 instructions: 530000001 cycles: 494600249 heartbeat IPC: 1.09525 cumulative IPC: 1.05951 (Simulation time: 3 hr 4 min 20 sec) 
Heartbeat CPU 7 instructions: 420000000 cycles: 496718618 heartbeat IPC: 0.79191 cumulative IPC: 0.798037 (Simulation time: 3 hr 5 min 4 sec) 
Heartbeat CPU 3 instructions: 520000000 cycles: 499207611 heartbeat IPC: 1.02983 cumulative IPC: 1.01481 (Simulation time: 3 hr 6 min 6 sec) 
Heartbeat CPU 5 instructions: 190000001 cycles: 502082118 heartbeat IPC: 0.374264 cumulative IPC: 0.338613 (Simulation time: 3 hr 7 min 15 sec) 
Heartbeat CPU 1 instructions: 540000000 cycles: 503676186 heartbeat IPC: 1.10181 cumulative IPC: 1.0603 (Simulation time: 3 hr 7 min 48 sec) 
Heartbeat CPU 4 instructions: 520000000 cycles: 504270295 heartbeat IPC: 1.03052 cumulative IPC: 1.00507 (Simulation time: 3 hr 8 min 0 sec) 
Heartbeat CPU 2 instructions: 160000000 cycles: 507183093 heartbeat IPC: 0.541132 cumulative IPC: 0.279888 (Simulation time: 3 hr 9 min 4 sec) 
Heartbeat CPU 6 instructions: 340000000 cycles: 507310767 heartbeat IPC: 0.698228 cumulative IPC: 0.62143 (Simulation time: 3 hr 9 min 8 sec) 
Heartbeat CPU 3 instructions: 530000001 cycles: 508610158 heartbeat IPC: 1.06354 cumulative IPC: 1.01574 (Simulation time: 3 hr 9 min 40 sec) 
Heartbeat CPU 7 instructions: 430000001 cycles: 509178406 heartbeat IPC: 0.802582 cumulative IPC: 0.798151 (Simulation time: 3 hr 9 min 53 sec) 
Heartbeat CPU 1 instructions: 550000002 cycles: 512697699 heartbeat IPC: 1.10846 cumulative IPC: 1.06117 (Simulation time: 3 hr 11 min 14 sec) 
Heartbeat CPU 4 instructions: 530000001 cycles: 513972771 heartbeat IPC: 1.03066 cumulative IPC: 1.00556 (Simulation time: 3 hr 11 min 42 sec) 
Finished CPU 0 instructions: 100000002 cycles: 503517041 cumulative IPC: 0.198603 (Simulation time: 3 hr 12 min 40 sec) 

CPU 0 Branch Prediction Accuracy: 99.1032% MPKI: 2.12572

CPU 1 Branch Prediction Accuracy: 97.8603% MPKI: 0.734722

CPU 2 Branch Prediction Accuracy: 98.1754% MPKI: 1.96996

CPU 3 Branch Prediction Accuracy: 99.1451% MPKI: 0.200505

CPU 4 Branch Prediction Accuracy: 99.1353% MPKI: 0.231377

CPU 5 Branch Prediction Accuracy: 95.2174% MPKI: 8.35626

CPU 6 Branch Prediction Accuracy: 97.2177% MPKI: 2.50686

CPU 7 Branch Prediction Accuracy: 96.8686% MPKI: 2.70227

ChampSim completed all CPUs

Total Simulation Statistics (not including warmup)

CPU 0 cumulative IPC: 0.198603 instructions: 100000002 cycles: 503517041
L1D TOTAL     ACCESS:   20562340  HIT:   17765905  MISS:    2796435
L1D LOAD      ACCESS:   17199031  HIT:   14421613  MISS:    2777418
L1D RFO       ACCESS:    3363309  HIT:    3344292  MISS:      19017
L1D PREFETCH  ACCESS:          0  HIT:          0  MISS:          0
L1D WRITEBACK ACCESS:          0  HIT:          0  MISS:          0
L1I TOTAL     ACCESS:   32771529  HIT:   32641959  MISS:     129570
L1I LOAD      ACCESS:   32771529  HIT:   32641959  MISS:     129570
L1I RFO       ACCESS:          0  HIT:          0  MISS:          0
L1I PREFETCH  ACCESS:          0  HIT:          0  MISS:          0
L1I WRITEBACK ACCESS:          0  HIT:          0  MISS:          0
L2C TOTAL     ACCESS:    5061851  HIT:    1373969  MISS:    3687882
L2C LOAD      ACCESS:    2906986  HIT:     677971  MISS:    2229015
L2C RFO       ACCESS:      19016  HIT:       8292  MISS:      10724
L2C PREFETCH  ACCESS:    2090881  HIT:     643789  MISS:    1447092
L2C WRITEBACK ACCESS:      44968  HIT:      43917  MISS:       1051

Avg Lookahead Depth:	3.48147
TOTAL: 7.15562e+07	L2C: 5.79692e+07	LLC: 1.3587e+07	GOOD_L2C: 3.51662e+07
Printing all the perceptron weights to: perc_weights_0.csv
LLC TOTAL     ACCESS:    4512062  HIT:     389545  MISS:    4122517
LLC LOAD      ACCESS:    1987426  HIT:     182239  MISS:    1805187
LLC RFO       ACCESS:      10633  HIT:        908  MISS:       9725
LLC PREFETCH  ACCESS:    2492236  HIT:     185178  MISS:    2307058
LLC WRITEBACK ACCESS:      21767  HIT:      21220  MISS:        547

CPU 1 cumulative IPC: 1.06126 instructions: 534361556 cycles: 503517041
L1D TOTAL     ACCESS:  256027697  HIT:  245125794  MISS:   10901903
L1D LOAD      ACCESS:  217624000  HIT:  206993166  MISS:   10630834
L1D RFO       ACCESS:   38403697  HIT:   38132628  MISS:     271069
L1D PREFETCH  ACCESS:          0  HIT:          0  MISS:          0
L1D WRITEBACK ACCESS:          0  HIT:          0  MISS:          0
L1I TOTAL     ACCESS:  124026035  HIT:  124025981  MISS:         54
L1I LOAD      ACCESS:  124026035  HIT:  124025981  MISS:         54
L1I RFO       ACCESS:          0  HIT:          0  MISS:          0
L1I PREFETCH  ACCESS:          0  HIT:          0  MISS:          0
L1I WRITEBACK ACCESS:          0  HIT:          0  MISS:          0
L2C TOTAL     ACCESS:   24425908  HIT:   14524703  MISS:    9901205
L2C LOAD      ACCESS:   10627374  HIT:    9987036  MISS:     640338
L2C RFO       ACCESS:     267620  HIT:      31225  MISS:     236395
L2C PREFETCH  ACCESS:   13039214  HIT:    4016455  MISS:    9022759
L2C WRITEBACK ACCESS:     491700  HIT:     489987  MISS:       1713

Avg Lookahead Depth:	3.48147
TOTAL: 7.15562e+07	L2C: 5.79692e+07	LLC: 1.3587e+07	GOOD_L2C: 3.51662e+07
Printing all the perceptron weights to: perc_weights_0.csv
LLC TOTAL     ACCESS:   10940915  HIT:    1047129  MISS:    9893786
LLC LOAD      ACCESS:     326869  HIT:      12026  MISS:     314843
LLC RFO       ACCESS:     236394  HIT:          0  MISS:     236394
LLC PREFETCH  ACCESS:    9969948  HIT:     627764  MISS:    9342184
LLC WRITEBACK ACCESS:     407704  HIT:     407339  MISS:        365

CPU 2 cumulative IPC: 0.283306 instructions: 142649213 cycles: 503517042
L1D TOTAL     ACCESS:   53534622  HIT:   46677429  MISS:    6857193
L1D LOAD      ACCESS:   23750024  HIT:   16894847  MISS:    6855177
L1D RFO       ACCESS:   29784598  HIT:   29782582  MISS:       2016
L1D PREFETCH  ACCESS:          0  HIT:          0  MISS:          0
L1D WRITEBACK ACCESS:          0  HIT:          0  MISS:          0
L1I TOTAL     ACCESS:   40935587  HIT:   40935587  MISS:          0
L1I LOAD      ACCESS:   40935587  HIT:   40935587  MISS:          0
L1I RFO       ACCESS:          0  HIT:          0  MISS:          0
L1I PREFETCH  ACCESS:          0  HIT:          0  MISS:          0
L1I WRITEBACK ACCESS:          0  HIT:          0  MISS:          0
L2C TOTAL     ACCESS:   12570111  HIT:    5461148  MISS:    7108963
L2C LOAD      ACCESS:    6854727  HIT:    4364414  MISS:    2490313
L2C RFO       ACCESS:       2016  HIT:       1467  MISS:        549
L2C PREFETCH  ACCESS:    5411780  HIT:     795796  MISS:    4615984
L2C WRITEBACK ACCESS:     301588  HIT:     299471  MISS:       2117

Avg Lookahead Depth:	3.48147
TOTAL: 7.15562e+07	L2C: 5.79692e+07	LLC: 1.3587e+07	GOOD_L2C: 3.51662e+07
Printing all the perceptron weights to: perc_weights_0.csv
LLC TOTAL     ACCESS:    7639764  HIT:     455047  MISS:    7184717
LLC LOAD      ACCESS:     535089  HIT:      64102  MISS:     470987
LLC RFO       ACCESS:        533  HIT:        403  MISS:        130
LLC PREFETCH  ACCESS:    6845922  HIT:     133149  MISS:    6712773
LLC WRITEBACK ACCESS:     258220  HIT:     257393  MISS:        827

CPU 3 cumulative IPC: 1.01647 instructions: 511809214 cycles: 503517042
L1D TOTAL     ACCESS:  158173591  HIT:  152583438  MISS:    5590153
L1D LOAD      ACCESS:  146573653  HIT:  142340458  MISS:    4233195
L1D RFO       ACCESS:   11599938  HIT:   10242980  MISS:    1356958
L1D PREFETCH  ACCESS:          0  HIT:          0  MISS:          0
L1D WRITEBACK ACCESS:          0  HIT:          0  MISS:          0
L1I TOTAL     ACCESS:  122142598  HIT:  122142272  MISS:        326
L1I LOAD      ACCESS:  122142598  HIT:  122142272  MISS:        326
L1I RFO       ACCESS:          0  HIT:          0  MISS:          0
L1I PREFETCH  ACCESS:          0  HIT:          0  MISS:          0
L1I WRITEBACK ACCESS:          0  HIT:          0  MISS:          0
L2C TOTAL     ACCESS:   13446263  HIT:    9396655  MISS:    4049608
L2C LOAD      ACCESS:    4233495  HIT:    4070824  MISS:     162671
L2C RFO       ACCESS:    1356700  HIT:     482543  MISS:     874157
L2C PREFETCH  ACCESS:    6113077  HIT:    3100871  MISS:    3012206
L2C WRITEBACK ACCESS:    1742991  HIT:    1742417  MISS:        574

Avg Lookahead Depth:	3.48147
TOTAL: 7.15562e+07	L2C: 5.79692e+07	LLC: 1.3587e+07	GOOD_L2C: 3.51662e+07
Printing all the perceptron weights to: perc_weights_0.csv
LLC TOTAL     ACCESS:    5787961  HIT:    2185114  MISS:    3602847
LLC LOAD      ACCESS:      95280  HIT:      27586  MISS:      67694
LLC RFO       ACCESS:     874153  HIT:      46006  MISS:     828147
LLC PREFETCH  ACCESS:    3763102  HIT:    1060071  MISS:    2703031
LLC WRITEBACK ACCESS:    1055426  HIT:    1051451  MISS:       3975

CPU 4 cumulative IPC: 1.00572 instructions: 506397541 cycles: 503517042
L1D TOTAL     ACCESS:  151347536  HIT:  145826983  MISS:    5520553
L1D LOAD      ACCESS:  136774802  HIT:  132688500  MISS:    4086302
L1D RFO       ACCESS:   14572734  HIT:   13138483  MISS:    1434251
L1D PREFETCH  ACCESS:          0  HIT:          0  MISS:          0
L1D WRITEBACK ACCESS:          0  HIT:          0  MISS:          0
L1I TOTAL     ACCESS:  118218321  HIT:  118217508  MISS:        813
L1I LOAD      ACCESS:  118218321  HIT:  118217508  MISS:        813
L1I RFO       ACCESS:          0  HIT:          0  MISS:          0
L1I PREFETCH  ACCESS:          0  HIT:          0  MISS:          0
L1I WRITEBACK ACCESS:          0  HIT:          0  MISS:          0
L2C TOTAL     ACCESS:   13284569  HIT:    9315662  MISS:    3968907
L2C LOAD      ACCESS:    4087094  HIT:    3825647  MISS:     261447
L2C RFO       ACCESS:    1433739  HIT:     506758  MISS:     926981
L2C PREFETCH  ACCESS:    5860828  HIT:    3082887  MISS:    2777941
L2C WRITEBACK ACCESS:    1902908  HIT:    1900370  MISS:       2538

Avg Lookahead Depth:	3.48147
TOTAL: 7.15562e+07	L2C: 5.79692e+07	LLC: 1.3587e+07	GOOD_L2C: 3.51662e+07
Printing all the perceptron weights to: perc_weights_0.csv
LLC TOTAL     ACCESS:    5873881  HIT:    2449810  MISS:    3424071
LLC LOAD      ACCESS:     153225  HIT:      74357  MISS:      78868
LLC RFO       ACCESS:     926897  HIT:      76123  MISS:     850774
LLC PREFETCH  ACCESS:    3571691  HIT:    1082955  MISS:    2488736
LLC WRITEBACK ACCESS:    1222068  HIT:    1216375  MISS:       5693

CPU 5 cumulative IPC: 0.338576 instructions: 170478827 cycles: 503517042
L1D TOTAL     ACCESS:   36394562  HIT:   27513690  MISS:    8880872
L1D LOAD      ACCESS:   27931478  HIT:   20291485  MISS:    7639993
L1D RFO       ACCESS:    8463084  HIT:    7222205  MISS:    1240879
L1D PREFETCH  ACCESS:          0  HIT:          0  MISS:          0
L1D WRITEBACK ACCESS:          0  HIT:          0  MISS:          0
L1I TOTAL     ACCESS:   39303495  HIT:   39302671  MISS:        824
L1I LOAD      ACCESS:   39303495  HIT:   39302671  MISS:        824
L1I RFO       ACCESS:          0  HIT:          0  MISS:          0
L1I PREFETCH  ACCESS:          0  HIT:          0  MISS:          0
L1I WRITEBACK ACCESS:          0  HIT:          0  MISS:          0
L2C TOTAL     ACCESS:   19237691  HIT:   10473851  MISS:    8763840
L2C LOAD      ACCESS:    7640240  HIT:    4188723  MISS:    3451517
L2C RFO       ACCESS:    1240830  HIT:     122998  MISS:    1117832
L2C PREFETCH  ACCESS:    6430504  HIT:    2236321  MISS:    4194183
L2C WRITEBACK ACCESS:    3926117  HIT:    3925809  MISS:        308

Avg Lookahead Depth:	3.48147
TOTAL: 7.15562e+07	L2C: 5.79692e+07	LLC: 1.3587e+07	GOOD_L2C: 3.51662e+07
Printing all the perceptron weights to: perc_weights_0.csv
LLC TOTAL     ACCESS:   13028506  HIT:    6819076  MISS:    6209430
LLC LOAD      ACCESS:    2851171  HIT:    1483853  MISS:    1367318
LLC RFO       ACCESS:    1117797  HIT:     400301  MISS:     717496
LLC PREFETCH  ACCESS:    6055556  HIT:    1931114  MISS:    4124442
LLC WRITEBACK ACCESS:    3003982  HIT:    3003808  MISS:        174

CPU 6 cumulative IPC: 0.621619 instructions: 312995803 cycles: 503517042
L1D TOTAL     ACCESS:   58393017  HIT:   52481959  MISS:    5911058
L1D LOAD      ACCESS:   50536129  HIT:   44960319  MISS:    5575810
L1D RFO       ACCESS:    7856888  HIT:    7521640  MISS:     335248
L1D PREFETCH  ACCESS:          0  HIT:          0  MISS:          0
L1D WRITEBACK ACCESS:          0  HIT:          0  MISS:          0
L1I TOTAL     ACCESS:   82475442  HIT:   82475068  MISS:        374
L1I LOAD      ACCESS:   82475442  HIT:   82475068  MISS:        374
L1I RFO       ACCESS:          0  HIT:          0  MISS:          0
L1I PREFETCH  ACCESS:          0  HIT:          0  MISS:          0
L1I WRITEBACK ACCESS:          0  HIT:          0  MISS:          0
L2C TOTAL     ACCESS:   11503829  HIT:    6044457  MISS:    5459372
L2C LOAD      ACCESS:    5576182  HIT:    3989025  MISS:    1587157
L2C RFO       ACCESS:     335210  HIT:      59679  MISS:     275531
L2C PREFETCH  ACCESS:    5046144  HIT:    1450372  MISS:    3595772
L2C WRITEBACK ACCESS:     546293  HIT:     545381  MISS:        912

Avg Lookahead Depth:	3.48147
TOTAL: 7.15562e+07	L2C: 5.79692e+07	LLC: 1.3587e+07	GOOD_L2C: 3.51662e+07
Printing all the perceptron weights to: perc_weights_0.csv
LLC TOTAL     ACCESS:    6960433  HIT:    1617555  MISS:    5342878
LLC LOAD      ACCESS:    1265736  HIT:     378893  MISS:     886843
LLC RFO       ACCESS:     275449  HIT:      38804  MISS:     236645
LLC PREFETCH  ACCESS:    4965515  HIT:     748320  MISS:    4217195
LLC WRITEBACK ACCESS:     453733  HIT:     451538  MISS:       2195

CPU 7 cumulative IPC: 0.799149 instructions: 402385289 cycles: 503517042
L1D TOTAL     ACCESS:   69839203  HIT:   63767098  MISS:    6072105
L1D LOAD      ACCESS:   63213209  HIT:   57392319  MISS:    5820890
L1D RFO       ACCESS:    6625994  HIT:    6374779  MISS:     251215
L1D PREFETCH  ACCESS:          0  HIT:          0  MISS:          0
L1D WRITEBACK ACCESS:          0  HIT:          0  MISS:          0
L1I TOTAL     ACCESS:  104918424  HIT:  104918115  MISS:        309
L1I LOAD      ACCESS:  104918424  HIT:  104918115  MISS:        309
L1I RFO       ACCESS:          0  HIT:          0  MISS:          0
L1I PREFETCH  ACCESS:          0  HIT:          0  MISS:          0
L1I WRITEBACK ACCESS:          0  HIT:          0  MISS:          0
L2C TOTAL     ACCESS:   11827262  HIT:    6155784  MISS:    5671478
L2C LOAD      ACCESS:    5821197  HIT:    4474318  MISS:    1346879
L2C RFO       ACCESS:     251198  HIT:      40899  MISS:     210299
L2C PREFETCH  ACCESS:    5376003  HIT:    1262496  MISS:    4113507
L2C WRITEBACK ACCESS:     378864  HIT:     378071  MISS:        793

Avg Lookahead Depth:	3.48147
TOTAL: 7.15562e+07	L2C: 5.79692e+07	LLC: 1.3587e+07	GOOD_L2C: 3.51662e+07
Printing all the perceptron weights to: perc_weights_0.csv
LLC TOTAL     ACCESS:    6751240  HIT:    1390296  MISS:    5360944
LLC LOAD      ACCESS:    1033943  HIT:     448207  MISS:     585736
LLC RFO       ACCESS:     210240  HIT:      34550  MISS:     175690
LLC PREFETCH  ACCESS:    5189011  HIT:     590232  MISS:    4598779
LLC WRITEBACK ACCESS:     318046  HIT:     317307  MISS:        739

Region of Interest Statistics

CPU 0 cumulative IPC: 0.198603 instructions: 100000002 cycles: 503517041
L1D TOTAL     ACCESS:   20562340  HIT:   17765905  MISS:    2796435
L1D LOAD      ACCESS:   17199031  HIT:   14421613  MISS:    2777418
L1D RFO       ACCESS:    3363309  HIT:    3344292  MISS:      19017
L1D PREFETCH  ACCESS:          0  HIT:          0  MISS:          0
L1D WRITEBACK ACCESS:          0  HIT:          0  MISS:          0
L1D PREFETCH  REQUESTED:          0  ISSUED:          0  USEFUL:          0  USELESS:          0
L1I TOTAL     ACCESS:   32771529  HIT:   32641959  MISS:     129570
L1I LOAD      ACCESS:   32771529  HIT:   32641959  MISS:     129570
L1I RFO       ACCESS:          0  HIT:          0  MISS:          0
L1I PREFETCH  ACCESS:          0  HIT:          0  MISS:          0
L1I WRITEBACK ACCESS:          0  HIT:          0  MISS:          0
L1I PREFETCH  REQUESTED:          0  ISSUED:          0  USEFUL:          0  USELESS:          0
L2C TOTAL     ACCESS:    5061851  HIT:    1373969  MISS:    3687882
L2C LOAD      ACCESS:    2906986  HIT:     677971  MISS:    2229015
L2C RFO       ACCESS:      19016  HIT:       8292  MISS:      10724
L2C PREFETCH  ACCESS:    2090881  HIT:     643789  MISS:    1447092
L2C WRITEBACK ACCESS:      44968  HIT:      43917  MISS:       1051
L2C PREFETCH  REQUESTED:    4846489  ISSUED:    4846170  USEFUL:     800149  USELESS:    1141132
LLC TOTAL     ACCESS:    4512062  HIT:     389545  MISS:    4122517
LLC LOAD      ACCESS:    1987426  HIT:     182239  MISS:    1805187
LLC RFO       ACCESS:      10633  HIT:        908  MISS:       9725
LLC PREFETCH  ACCESS:    2492236  HIT:     185178  MISS:    2307058
LLC WRITEBACK ACCESS:      21767  HIT:      21220  MISS:        547
LLC PREFETCH  REQUESTED:          0  ISSUED:          0  USEFUL:    1351043  USELESS:   37848288
Major fault: 0 Minor fault: 21498

CPU 1 cumulative IPC: 1.09838 instructions: 100000001 cycles: 91043086
L1D TOTAL     ACCESS:   49987224  HIT:   47958329  MISS:    2028895
L1D LOAD      ACCESS:   42602221  HIT:   40623997  MISS:    1978224
L1D RFO       ACCESS:    7385003  HIT:    7334332  MISS:      50671
L1D PREFETCH  ACCESS:          0  HIT:          0  MISS:          0
L1D WRITEBACK ACCESS:          0  HIT:          0  MISS:          0
L1D PREFETCH  REQUESTED:          0  ISSUED:          0  USEFUL:          0  USELESS:          0
L1I TOTAL     ACCESS:   23324532  HIT:   23324532  MISS:          0
L1I LOAD      ACCESS:   23324532  HIT:   23324532  MISS:          0
L1I RFO       ACCESS:          0  HIT:          0  MISS:          0
L1I PREFETCH  ACCESS:          0  HIT:          0  MISS:          0
L1I WRITEBACK ACCESS:          0  HIT:          0  MISS:          0
L1I PREFETCH  REQUESTED:          0  ISSUED:          0  USEFUL:          0  USELESS:          0
L2C TOTAL     ACCESS:    4601567  HIT:    2765288  MISS:    1836279
L2C LOAD      ACCESS:    1977601  HIT:    1882300  MISS:      95301
L2C RFO       ACCESS:      50281  HIT:       3228  MISS:      47053
L2C PREFETCH  ACCESS:    2511582  HIT:     817953  MISS:    1693629
L2C WRITEBACK ACCESS:      62103  HIT:      61807  MISS:        296
L2C PREFETCH  REQUESTED:   16041466  ISSUED:   15935439  USEFUL:    9363053  USELESS:       3241
LLC TOTAL     ACCESS:    2011284  HIT:     176035  MISS:    1835249
LLC LOAD      ACCESS:      58393  HIT:       2391  MISS:      56002
LLC RFO       ACCESS:      47053  HIT:          0  MISS:      47053
LLC PREFETCH  ACCESS:    1858442  HIT:     126325  MISS:    1732117
LLC WRITEBACK ACCESS:      47396  HIT:      47319  MISS:         77
LLC PREFETCH  REQUESTED:          0  ISSUED:          0  USEFUL:    1351043  USELESS:   37848288
Major fault: 0 Minor fault: 104283

CPU 2 cumulative IPC: 0.270546 instructions: 100000000 cycles: 369622491
L1D TOTAL     ACCESS:   37588571  HIT:   32504259  MISS:    5084312
L1D LOAD      ACCESS:   16998096  HIT:   11915279  MISS:    5082817
L1D RFO       ACCESS:   20590475  HIT:   20588980  MISS:       1495
L1D PREFETCH  ACCESS:          0  HIT:          0  MISS:          0
L1D WRITEBACK ACCESS:          0  HIT:          0  MISS:          0
L1D PREFETCH  REQUESTED:          0  ISSUED:          0  USEFUL:          0  USELESS:          0
L1I TOTAL     ACCESS:   28928913  HIT:   28928913  MISS:          0
L1I LOAD      ACCESS:   28928913  HIT:   28928913  MISS:          0
L1I RFO       ACCESS:          0  HIT:          0  MISS:          0
L1I PREFETCH  ACCESS:          0  HIT:          0  MISS:          0
L1I WRITEBACK ACCESS:          0  HIT:          0  MISS:          0
L1I PREFETCH  REQUESTED:          0  ISSUED:          0  USEFUL:          0  USELESS:          0
L2C TOTAL     ACCESS:    9294550  HIT:    4022963  MISS:    5271587
L2C LOAD      ACCESS:    5082521  HIT:    3238739  MISS:    1843782
L2C RFO       ACCESS:       1495  HIT:       1078  MISS:        417
L2C PREFETCH  ACCESS:    4004019  HIT:     578120  MISS:    3425899
L2C WRITEBACK ACCESS:     206515  HIT:     205026  MISS:       1489
L2C PREFETCH  REQUESTED:    9807992  ISSUED:    9807992  USEFUL:    5553800  USELESS:     365914
LLC TOTAL     ACCESS:    5640358  HIT:     317055  MISS:    5323303
LLC LOAD      ACCESS:     382689  HIT:      44875  MISS:     337814
LLC RFO       ACCESS:        407  HIT:        317  MISS:         90
LLC PREFETCH  ACCESS:    5081555  HIT:      96751  MISS:    4984804
LLC WRITEBACK ACCESS:     175707  HIT:     175112  MISS:        595
LLC PREFETCH  REQUESTED:          0  ISSUED:          0  USEFUL:    1351043  USELESS:   37848288
Major fault: 0 Minor fault: 14294

CPU 3 cumulative IPC: 1.09829 instructions: 100000003 cycles: 91050925
L1D TOTAL     ACCESS:   30585143  HIT:   29456970  MISS:    1128173
L1D LOAD      ACCESS:   27135276  HIT:   26268295  MISS:     866981
L1D RFO       ACCESS:    3449867  HIT:    3188675  MISS:     261192
L1D PREFETCH  ACCESS:          0  HIT:          0  MISS:          0
L1D WRITEBACK ACCESS:          0  HIT:          0  MISS:          0
L1D PREFETCH  REQUESTED:          0  ISSUED:          0  USEFUL:          0  USELESS:          0
L1I TOTAL     ACCESS:   23939327  HIT:   23939327  MISS:          0
L1I LOAD      ACCESS:   23939327  HIT:   23939327  MISS:          0
L1I RFO       ACCESS:          0  HIT:          0  MISS:          0
L1I PREFETCH  ACCESS:          0  HIT:          0  MISS:          0
L1I WRITEBACK ACCESS:          0  HIT:          0  MISS:          0
L1I PREFETCH  REQUESTED:          0  ISSUED:          0  USEFUL:          0  USELESS:          0
L2C TOTAL     ACCESS:    2829712  HIT:    2264308  MISS:     565404
L2C LOAD      ACCESS:     866974  HIT:     843444  MISS:      23530
L2C RFO       ACCESS:     261185  HIT:     170845  MISS:      90340
L2C PREFETCH  ACCESS:    1343777  HIT:     892294  MISS:     451483
L2C WRITEBACK ACCESS:     357776  HIT:     357725  MISS:         51
L2C PREFETCH  REQUESTED:    7559529  ISSUED:    7556598  USEFUL:    3090596  USELESS:      42112
LLC TOTAL     ACCESS:     801742  HIT:     237189  MISS:     564553
LLC LOAD      ACCESS:      13726  HIT:       2063  MISS:      11663
LLC RFO       ACCESS:      90340  HIT:         65  MISS:      90275
LLC PREFETCH  ACCESS:     607335  HIT:     144829  MISS:     462506
LLC WRITEBACK ACCESS:      90341  HIT:      90232  MISS:        109
LLC PREFETCH  REQUESTED:          0  ISSUED:          0  USEFUL:    1351043  USELESS:   37848288
Major fault: 0 Minor fault: 14687

CPU 4 cumulative IPC: 1.06706 instructions: 100000000 cycles: 93715741
L1D TOTAL     ACCESS:   30419882  HIT:   29007856  MISS:    1412026
L1D LOAD      ACCESS:   26627845  HIT:   25482836  MISS:    1145009
L1D RFO       ACCESS:    3792037  HIT:    3525020  MISS:     267017
L1D PREFETCH  ACCESS:          0  HIT:          0  MISS:          0
L1D WRITEBACK ACCESS:          0  HIT:          0  MISS:          0
L1D PREFETCH  REQUESTED:          0  ISSUED:          0  USEFUL:          0  USELESS:          0
L1I TOTAL     ACCESS:   23525402  HIT:   23525402  MISS:          0
L1I LOAD      ACCESS:   23525402  HIT:   23525402  MISS:          0
L1I RFO       ACCESS:          0  HIT:          0  MISS:          0
L1I PREFETCH  ACCESS:          0  HIT:          0  MISS:          0
L1I WRITEBACK ACCESS:          0  HIT:          0  MISS:          0
L1I PREFETCH  REQUESTED:          0  ISSUED:          0  USEFUL:          0  USELESS:          0
L2C TOTAL     ACCESS:    3481252  HIT:    2669996  MISS:     811256
L2C LOAD      ACCESS:    1144999  HIT:    1059093  MISS:      85906
L2C RFO       ACCESS:     266605  HIT:     211426  MISS:      55179
L2C PREFETCH  ACCESS:    1649322  HIT:     980779  MISS:     668543
L2C WRITEBACK ACCESS:     420326  HIT:     418698  MISS:       1628
L2C PREFETCH  REQUESTED:    7490239  ISSUED:    7488803  USEFUL:    2785786  USELESS:     167497
LLC TOTAL     ACCESS:    1113088  HIT:     749161  MISS:     363927
LLC LOAD      ACCESS:      63514  HIT:      55086  MISS:       8428
LLC RFO       ACCESS:      55178  HIT:      54637  MISS:        541
LLC PREFETCH  ACCESS:     815739  HIT:     464112  MISS:     351627
LLC WRITEBACK ACCESS:     178657  HIT:     175326  MISS:       3331
LLC PREFETCH  REQUESTED:          0  ISSUED:          0  USEFUL:    1351043  USELESS:   37848288
Major fault: 0 Minor fault: 19214

CPU 5 cumulative IPC: 0.327315 instructions: 100000003 cycles: 305516543
L1D TOTAL     ACCESS:   22863338  HIT:   17568708  MISS:    5294630
L1D LOAD      ACCESS:   17345196  HIT:   12824583  MISS:    4520613
L1D RFO       ACCESS:    5518142  HIT:    4744125  MISS:     774017
L1D PREFETCH  ACCESS:          0  HIT:          0  MISS:          0
L1D WRITEBACK ACCESS:          0  HIT:          0  MISS:          0
L1D PREFETCH  REQUESTED:          0  ISSUED:          0  USEFUL:          0  USELESS:          0
L1I TOTAL     ACCESS:   23189980  HIT:   23189403  MISS:        577
L1I LOAD      ACCESS:   23189980  HIT:   23189403  MISS:        577
L1I RFO       ACCESS:          0  HIT:          0  MISS:          0
L1I PREFETCH  ACCESS:          0  HIT:          0  MISS:          0
L1I WRITEBACK ACCESS:          0  HIT:          0  MISS:          0
L1I PREFETCH  REQUESTED:          0  ISSUED:          0  USEFUL:          0  USELESS:          0
L2C TOTAL     ACCESS:   11353481  HIT:    6155622  MISS:    5197859
L2C LOAD      ACCESS:    4520732  HIT:    2404081  MISS:    2116651
L2C RFO       ACCESS:     773983  HIT:      84016  MISS:     689967
L2C PREFETCH  ACCESS:    3664720  HIT:    1273689  MISS:    2391031
L2C WRITEBACK ACCESS:    2394046  HIT:    2393836  MISS:        210
L2C PREFETCH  REQUESTED:   10447851  ISSUED:   10447693  USEFUL:    3266955  USELESS:    1577629
LLC TOTAL     ACCESS:    7811106  HIT:    4187170  MISS:    3623936
LLC LOAD      ACCESS:    1731417  HIT:     897369  MISS:     834048
LLC RFO       ACCESS:     689940  HIT:     312641  MISS:     377299
LLC PREFETCH  ACCESS:    3537520  HIT:    1125080  MISS:    2412440
LLC WRITEBACK ACCESS:    1852229  HIT:    1852080  MISS:        149
LLC PREFETCH  REQUESTED:          0  ISSUED:          0  USEFUL:    1351043  USELESS:   37848288
Major fault: 0 Minor fault: 12935

CPU 6 cumulative IPC: 0.611627 instructions: 100000003 cycles: 163498285
L1D TOTAL     ACCESS:   18797208  HIT:   16860138  MISS:    1937070
L1D LOAD      ACCESS:   16152005  HIT:   14319188  MISS:    1832817
L1D RFO       ACCESS:    2645203  HIT:    2540950  MISS:     104253
L1D PREFETCH  ACCESS:          0  HIT:          0  MISS:          0
L1D WRITEBACK ACCESS:          0  HIT:          0  MISS:          0
L1D PREFETCH  REQUESTED:          0  ISSUED:          0  USEFUL:          0  USELESS:          0
L1I TOTAL     ACCESS:   26175032  HIT:   26174898  MISS:        134
L1I LOAD      ACCESS:   26175032  HIT:   26174898  MISS:        134
L1I RFO       ACCESS:          0  HIT:          0  MISS:          0
L1I PREFETCH  ACCESS:          0  HIT:          0  MISS:          0
L1I WRITEBACK ACCESS:          0  HIT:          0  MISS:          0
L1I PREFETCH  REQUESTED:          0  ISSUED:          0  USEFUL:          0  USELESS:          0
L2C TOTAL     ACCESS:    3775479  HIT:    1980932  MISS:    1794547
L2C LOAD      ACCESS:    1832951  HIT:    1296551  MISS:     536400
L2C RFO       ACCESS:     104241  HIT:      21076  MISS:      83165
L2C PREFETCH  ACCESS:    1659007  HIT:     484310  MISS:    1174697
L2C WRITEBACK ACCESS:     179280  HIT:     178995  MISS:        285
L2C PREFETCH  REQUESTED:    7662827  ISSUED:    7662703  USEFUL:    2999364  USELESS:     982906
LLC TOTAL     ACCESS:    2301051  HIT:     554502  MISS:    1746549
LLC LOAD      ACCESS:     432245  HIT:     137481  MISS:     294764
LLC RFO       ACCESS:      83149  HIT:      11409  MISS:      71740
LLC PREFETCH  ACCESS:    1636324  HIT:     256875  MISS:    1379449
LLC WRITEBACK ACCESS:     149333  HIT:     148737  MISS:        596
LLC PREFETCH  REQUESTED:          0  ISSUED:          0  USEFUL:    1351043  USELESS:   37848288
Major fault: 0 Minor fault: 4324

CPU 7 cumulative IPC: 0.844354 instructions: 100000002 cycles: 118433712
L1D TOTAL     ACCESS:   17251249  HIT:   15770458  MISS:    1480791
L1D LOAD      ACCESS:   15700830  HIT:   14289188  MISS:    1411642
L1D RFO       ACCESS:    1550419  HIT:    1481270  MISS:      69149
L1D PREFETCH  ACCESS:          0  HIT:          0  MISS:          0
L1D WRITEBACK ACCESS:          0  HIT:          0  MISS:          0
L1D PREFETCH  REQUESTED:          0  ISSUED:          0  USEFUL:          0  USELESS:          0
L1I TOTAL     ACCESS:   26267449  HIT:   26267356  MISS:         93
L1I LOAD      ACCESS:   26267449  HIT:   26267356  MISS:         93
L1I RFO       ACCESS:          0  HIT:          0  MISS:          0
L1I PREFETCH  ACCESS:          0  HIT:          0  MISS:          0
L1I WRITEBACK ACCESS:          0  HIT:          0  MISS:          0
L1I PREFETCH  REQUESTED:          0  ISSUED:          0  USEFUL:          0  USELESS:          0
L2C TOTAL     ACCESS:    2931522  HIT:    1531264  MISS:    1400258
L2C LOAD      ACCESS:    1411735  HIT:    1108125  MISS:     303610
L2C RFO       ACCESS:      69144  HIT:       8686  MISS:      60458
L2C PREFETCH  ACCESS:    1359040  HIT:     323067  MISS:    1035973
L2C WRITEBACK ACCESS:      91603  HIT:      91386  MISS:        217
L2C PREFETCH  REQUESTED:    7699814  ISSUED:    7699599  USEFUL:    3869065  USELESS:     611897
LLC TOTAL     ACCESS:    1663489  HIT:     323520  MISS:    1339969
LLC LOAD      ACCESS:     228245  HIT:      91628  MISS:     136617
LLC RFO       ACCESS:      60447  HIT:      10969  MISS:      49478
LLC PREFETCH  ACCESS:    1295589  HIT:     141904  MISS:    1153685
LLC WRITEBACK ACCESS:      79208  HIT:      79019  MISS:        189
LLC PREFETCH  REQUESTED:          0  ISSUED:          0  USEFUL:    1351043  USELESS:   37848288
Major fault: 0 Minor fault: 4377

Avg Lookahead Depth:	3.48147
TOTAL: 7.15562e+07	L2C: 5.79692e+07	LLC: 1.3587e+07	GOOD_L2C: 3.51662e+07
Printing all the perceptron weights to: perc_weights_0.csv

Avg Lookahead Depth:	3.48147
TOTAL: 7.15562e+07	L2C: 5.79692e+07	LLC: 1.3587e+07	GOOD_L2C: 3.51662e+07
Printing all the perceptron weights to: perc_weights_0.csv

Avg Lookahead Depth:	3.48147
TOTAL: 7.15562e+07	L2C: 5.79692e+07	LLC: 1.3587e+07	GOOD_L2C: 3.51662e+07
Printing all the perceptron weights to: perc_weights_0.csv

Avg Lookahead Depth:	3.48147
TOTAL: 7.15562e+07	L2C: 5.79692e+07	LLC: 1.3587e+07	GOOD_L2C: 3.51662e+07
Printing all the perceptron weights to: perc_weights_0.csv

Avg Lookahead Depth:	3.48147
TOTAL: 7.15562e+07	L2C: 5.79692e+07	LLC: 1.3587e+07	GOOD_L2C: 3.51662e+07
Printing all the perceptron weights to: perc_weights_0.csv

Avg Lookahead Depth:	3.48147
TOTAL: 7.15562e+07	L2C: 5.79692e+07	LLC: 1.3587e+07	GOOD_L2C: 3.51662e+07
Printing all the perceptron weights to: perc_weights_0.csv

Avg Lookahead Depth:	3.48147
TOTAL: 7.15562e+07	L2C: 5.79692e+07	LLC: 1.3587e+07	GOOD_L2C: 3.51662e+07
Printing all the perceptron weights to: perc_weights_0.csv

Avg Lookahead Depth:	3.48147
TOTAL: 7.15562e+07	L2C: 5.79692e+07	LLC: 1.3587e+07	GOOD_L2C: 3.51662e+07
Printing all the perceptron weights to: perc_weights_0.csv

DRAM Statistics
 CHANNEL 0
 RQ ROW_BUFFER_HIT:    9535045  ROW_BUFFER_MISS:   13019415
 DBUS_CONGESTED:   42897939
 WQ ROW_BUFFER_HIT:     141488  ROW_BUFFER_MISS:    2510843  FULL:          0

 CHANNEL 1
 RQ ROW_BUFFER_HIT:    9523716  ROW_BUFFER_MISS:   13046056
 DBUS_CONGESTED:   42897939
 WQ ROW_BUFFER_HIT:     140741  ROW_BUFFER_MISS:    2507877  FULL:          0

 AVG_CONGESTED_CYCLE: 14
