Initialize SIGNATURE TABLE
ST_SET: 1
ST_WAY: 256
ST_TAG_BIT: 16
ST_TAG_MASK: ffff

Initialize PATTERN TABLE
PT_SET: 512
PT_WAY: 4
SIG_DELTA_BIT: 7
C_SIG_BIT: 4
C_DELTA_BIT: 4

Initialize PREFETCH FILTER
FILTER_SET: 1024

Initialize PERCEPTRON
PERC_ENTRIES: 4096
PERC_FEATURES: 9

*** ChampSim Multicore Out-of-Order Simulator ***

Warmup Instructions: 20000000
Simulation Instructions: 100000000
Number of CPUs: 8
LLC sets: 16384
LLC ways: 16
Off-chip DRAM Size: 8192 MB Channels: 2 Width: 64-bit Data Rate: 1600 MT/s

CPU 0 runs /scratch/user/djimenez/champsim-traces/speccpu2006/xz/481.wrf-455B.champsimtrace.xz
CPU 1 runs /scratch/user/djimenez/champsim-traces/speccpu2006/xz/437.leslie3d-273B.champsimtrace.xz
CPU 2 runs /scratch/user/djimenez/champsim-traces/speccpu2006/xz/459.GemsFDTD-765B.champsimtrace.xz
CPU 3 runs /scratch/user/djimenez/champsim-traces/speccpu2006/xz/403.gcc-16B.champsimtrace.xz
CPU 4 runs /scratch/user/djimenez/champsim-traces/speccpu2006/xz/473.astar-42B.champsimtrace.xz
CPU 5 runs /scratch/user/djimenez/champsim-traces/speccpu2006/xz/481.wrf-1281B.champsimtrace.xz
CPU 6 runs /scratch/user/djimenez/champsim-traces/speccpu2006/xz/483.xalancbmk-127B.champsimtrace.xz
CPU 7 runs /scratch/user/djimenez/champsim-traces/speccpu2006/xz/437.leslie3d-149B.champsimtrace.xz
Heartbeat CPU 6 instructions: 10000002 cycles: 4511433 heartbeat IPC: 2.21659 cumulative IPC: 2.21659 (Simulation time: 0 hr 3 min 16 sec) 
Heartbeat CPU 1 instructions: 10000002 cycles: 4933638 heartbeat IPC: 2.0269 cumulative IPC: 2.0269 (Simulation time: 0 hr 3 min 34 sec) 
Heartbeat CPU 7 instructions: 10000000 cycles: 5007670 heartbeat IPC: 1.99694 cumulative IPC: 1.99694 (Simulation time: 0 hr 3 min 37 sec) 
Heartbeat CPU 5 instructions: 10000000 cycles: 5700031 heartbeat IPC: 1.75438 cumulative IPC: 1.75438 (Simulation time: 0 hr 4 min 6 sec) 
Heartbeat CPU 0 instructions: 10000001 cycles: 6205532 heartbeat IPC: 1.61147 cumulative IPC: 1.61147 (Simulation time: 0 hr 4 min 28 sec) 
Heartbeat CPU 4 instructions: 10000003 cycles: 7171573 heartbeat IPC: 1.39439 cumulative IPC: 1.39439 (Simulation time: 0 hr 5 min 10 sec) 
Heartbeat CPU 2 instructions: 10000001 cycles: 8131689 heartbeat IPC: 1.22976 cumulative IPC: 1.22976 (Simulation time: 0 hr 5 min 52 sec) 
Heartbeat CPU 3 instructions: 10000001 cycles: 8174535 heartbeat IPC: 1.22331 cumulative IPC: 1.22331 (Simulation time: 0 hr 5 min 54 sec) 
Heartbeat CPU 6 instructions: 20000000 cycles: 9022446 heartbeat IPC: 2.2168 cumulative IPC: 2.21669 (Simulation time: 0 hr 6 min 31 sec) 
Heartbeat CPU 5 instructions: 20000000 cycles: 9610625 heartbeat IPC: 2.55716 cumulative IPC: 2.08103 (Simulation time: 0 hr 6 min 57 sec) 
Heartbeat CPU 1 instructions: 20000000 cycles: 9810633 heartbeat IPC: 2.05044 cumulative IPC: 2.0386 (Simulation time: 0 hr 7 min 5 sec) 
Heartbeat CPU 7 instructions: 20000000 cycles: 10001511 heartbeat IPC: 2.00247 cumulative IPC: 1.9997 (Simulation time: 0 hr 7 min 14 sec) 
Heartbeat CPU 0 instructions: 20000000 cycles: 13080060 heartbeat IPC: 1.45465 cumulative IPC: 1.52904 (Simulation time: 0 hr 9 min 28 sec) 
Heartbeat CPU 6 instructions: 30000002 cycles: 13578259 heartbeat IPC: 2.195 cumulative IPC: 0.736472 (Simulation time: 0 hr 9 min 50 sec) 
Heartbeat CPU 5 instructions: 30000001 cycles: 13950595 heartbeat IPC: 2.30416 cumulative IPC: 0.716815 (Simulation time: 0 hr 10 min 6 sec) 
Heartbeat CPU 4 instructions: 20000000 cycles: 13958933 heartbeat IPC: 1.47333 cumulative IPC: 1.43277 (Simulation time: 0 hr 10 min 6 sec) 
Heartbeat CPU 1 instructions: 30000002 cycles: 14845740 heartbeat IPC: 1.98606 cumulative IPC: 0.673594 (Simulation time: 0 hr 10 min 45 sec) 
Heartbeat CPU 7 instructions: 30000003 cycles: 15001286 heartbeat IPC: 2.00009 cumulative IPC: 0.66661 (Simulation time: 0 hr 10 min 51 sec) 
Heartbeat CPU 2 instructions: 20000000 cycles: 16262802 heartbeat IPC: 1.22984 cumulative IPC: 1.2298 (Simulation time: 0 hr 11 min 46 sec) 
Heartbeat CPU 3 instructions: 20000000 cycles: 16320907 heartbeat IPC: 1.22754 cumulative IPC: 1.22542 (Simulation time: 0 hr 11 min 49 sec) 

Warmup complete CPU 0 instructions: 24725814 cycles: 16320933 (Simulation time: 0 hr 11 min 49 sec) 
Warmup complete CPU 1 instructions: 32930114 cycles: 16320933 (Simulation time: 0 hr 11 min 49 sec) 
Warmup complete CPU 2 instructions: 20071436 cycles: 16320933 (Simulation time: 0 hr 11 min 49 sec) 
Warmup complete CPU 3 instructions: 20000004 cycles: 16320933 (Simulation time: 0 hr 11 min 49 sec) 
Warmup complete CPU 4 instructions: 23521238 cycles: 16320932 (Simulation time: 0 hr 11 min 49 sec) 
Warmup complete CPU 5 instructions: 35665344 cycles: 16320932 (Simulation time: 0 hr 11 min 49 sec) 
Warmup complete CPU 6 instructions: 36166999 cycles: 16320932 (Simulation time: 0 hr 11 min 49 sec) 
Warmup complete CPU 7 instructions: 32639765 cycles: 16320932 (Simulation time: 0 hr 11 min 49 sec) 

Heartbeat CPU 5 instructions: 40000000 cycles: 19974064 heartbeat IPC: 1.66017 cumulative IPC: 1.18656 (Simulation time: 0 hr 13 min 25 sec) 
Heartbeat CPU 0 instructions: 30000003 cycles: 21472282 heartbeat IPC: 1.19158 cumulative IPC: 1.02385 (Simulation time: 0 hr 14 min 5 sec) 
Heartbeat CPU 1 instructions: 40000000 cycles: 23229445 heartbeat IPC: 1.19279 cumulative IPC: 1.02336 (Simulation time: 0 hr 14 min 52 sec) 
Heartbeat CPU 7 instructions: 40000000 cycles: 23686688 heartbeat IPC: 1.15136 cumulative IPC: 0.99925 (Simulation time: 0 hr 15 min 4 sec) 
Heartbeat CPU 3 instructions: 30000003 cycles: 25744168 heartbeat IPC: 1.0612 cumulative IPC: 1.06121 (Simulation time: 0 hr 15 min 58 sec) 
Heartbeat CPU 5 instructions: 50000000 cycles: 28868852 heartbeat IPC: 1.12425 cumulative IPC: 1.14239 (Simulation time: 0 hr 17 min 20 sec) 
Heartbeat CPU 0 instructions: 40000000 cycles: 31364902 heartbeat IPC: 1.01085 cumulative IPC: 1.0153 (Simulation time: 0 hr 18 min 21 sec) 
Heartbeat CPU 6 instructions: 40000000 cycles: 32957536 heartbeat IPC: 0.516015 cumulative IPC: 0.230396 (Simulation time: 0 hr 19 min 1 sec) 
Heartbeat CPU 1 instructions: 50000003 cycles: 33078092 heartbeat IPC: 1.01537 cumulative IPC: 1.01866 (Simulation time: 0 hr 19 min 5 sec) 
Heartbeat CPU 2 instructions: 30000001 cycles: 33130495 heartbeat IPC: 0.592849 cumulative IPC: 0.59065 (Simulation time: 0 hr 19 min 6 sec) 
Heartbeat CPU 7 instructions: 50000000 cycles: 33784167 heartbeat IPC: 0.990346 cumulative IPC: 0.994102 (Simulation time: 0 hr 19 min 23 sec) 
Heartbeat CPU 3 instructions: 40000000 cycles: 35296644 heartbeat IPC: 1.04685 cumulative IPC: 1.05398 (Simulation time: 0 hr 20 min 3 sec) 
Heartbeat CPU 5 instructions: 60000000 cycles: 37598649 heartbeat IPC: 1.1455 cumulative IPC: 1.14367 (Simulation time: 0 hr 21 min 5 sec) 
Heartbeat CPU 4 instructions: 30000000 cycles: 37617018 heartbeat IPC: 0.422688 cumulative IPC: 0.304223 (Simulation time: 0 hr 21 min 5 sec) 
Heartbeat CPU 0 instructions: 50000000 cycles: 41097631 heartbeat IPC: 1.02746 cumulative IPC: 1.02008 (Simulation time: 0 hr 22 min 35 sec) 
Heartbeat CPU 1 instructions: 60000000 cycles: 42879770 heartbeat IPC: 1.02023 cumulative IPC: 1.01924 (Simulation time: 0 hr 23 min 20 sec) 
Heartbeat CPU 3 instructions: 50000000 cycles: 45138182 heartbeat IPC: 1.0161 cumulative IPC: 1.04104 (Simulation time: 0 hr 24 min 17 sec) 
Heartbeat CPU 5 instructions: 70000001 cycles: 45233298 heartbeat IPC: 1.30982 cumulative IPC: 1.18754 (Simulation time: 0 hr 24 min 19 sec) 
Heartbeat CPU 7 instructions: 60000000 cycles: 45439290 heartbeat IPC: 0.857992 cumulative IPC: 0.939622 (Simulation time: 0 hr 24 min 24 sec) 
Heartbeat CPU 0 instructions: 60000000 cycles: 49829113 heartbeat IPC: 1.14528 cumulative IPC: 1.0527 (Simulation time: 0 hr 26 min 9 sec) 
Heartbeat CPU 2 instructions: 40000000 cycles: 50206660 heartbeat IPC: 0.585612 cumulative IPC: 0.588111 (Simulation time: 0 hr 26 min 18 sec) 
Heartbeat CPU 1 instructions: 70000000 cycles: 52706651 heartbeat IPC: 1.01762 cumulative IPC: 1.0188 (Simulation time: 0 hr 27 min 22 sec) 
Heartbeat CPU 5 instructions: 80000000 cycles: 53956284 heartbeat IPC: 1.1464 cumulative IPC: 1.17801 (Simulation time: 0 hr 27 min 54 sec) 
Heartbeat CPU 3 instructions: 60000000 cycles: 54521494 heartbeat IPC: 1.06572 cumulative IPC: 1.0471 (Simulation time: 0 hr 28 min 8 sec) 
Heartbeat CPU 7 instructions: 70000003 cycles: 58354603 heartbeat IPC: 0.774275 cumulative IPC: 0.888817 (Simulation time: 0 hr 29 min 47 sec) 
Heartbeat CPU 0 instructions: 70000000 cycles: 59282814 heartbeat IPC: 1.05779 cumulative IPC: 1.05382 (Simulation time: 0 hr 30 min 11 sec) 
Heartbeat CPU 5 instructions: 90000001 cycles: 61025927 heartbeat IPC: 1.4145 cumulative IPC: 1.2154 (Simulation time: 0 hr 30 min 56 sec) 
Heartbeat CPU 1 instructions: 80000000 cycles: 62431529 heartbeat IPC: 1.02829 cumulative IPC: 1.0208 (Simulation time: 0 hr 31 min 31 sec) 
Heartbeat CPU 3 instructions: 70000000 cycles: 64041913 heartbeat IPC: 1.05037 cumulative IPC: 1.04776 (Simulation time: 0 hr 32 min 7 sec) 
Heartbeat CPU 0 instructions: 80000000 cycles: 69184103 heartbeat IPC: 1.00997 cumulative IPC: 1.04561 (Simulation time: 0 hr 34 min 0 sec) 
Heartbeat CPU 4 instructions: 40000000 cycles: 69487664 heartbeat IPC: 0.313768 cumulative IPC: 0.309945 (Simulation time: 0 hr 34 min 7 sec) 
Heartbeat CPU 5 instructions: 100000000 cycles: 71246084 heartbeat IPC: 0.978458 cumulative IPC: 1.17132 (Simulation time: 0 hr 34 min 48 sec) 
Heartbeat CPU 7 instructions: 80000000 cycles: 71372622 heartbeat IPC: 0.768166 cumulative IPC: 0.860287 (Simulation time: 0 hr 34 min 51 sec) 
Heartbeat CPU 1 instructions: 90000002 cycles: 72068745 heartbeat IPC: 1.03764 cumulative IPC: 1.02372 (Simulation time: 0 hr 35 min 8 sec) 
Heartbeat CPU 3 instructions: 80000000 cycles: 73758934 heartbeat IPC: 1.02912 cumulative IPC: 1.0446 (Simulation time: 0 hr 35 min 47 sec) 
Heartbeat CPU 0 instructions: 90000002 cycles: 79058897 heartbeat IPC: 1.01268 cumulative IPC: 1.04043 (Simulation time: 0 hr 37 min 49 sec) 
Heartbeat CPU 5 instructions: 110000002 cycles: 80548432 heartbeat IPC: 1.075 cumulative IPC: 1.15736 (Simulation time: 0 hr 38 min 24 sec) 
Heartbeat CPU 2 instructions: 50000000 cycles: 81275214 heartbeat IPC: 0.321869 cumulative IPC: 0.460764 (Simulation time: 0 hr 38 min 40 sec) 
Heartbeat CPU 1 instructions: 100000000 cycles: 81753973 heartbeat IPC: 1.0325 cumulative IPC: 1.02502 (Simulation time: 0 hr 38 min 51 sec) 
Heartbeat CPU 3 instructions: 90000000 cycles: 83252330 heartbeat IPC: 1.05336 cumulative IPC: 1.04585 (Simulation time: 0 hr 39 min 25 sec) 
Heartbeat CPU 7 instructions: 90000003 cycles: 84547798 heartbeat IPC: 0.759003 cumulative IPC: 0.840728 (Simulation time: 0 hr 39 min 56 sec) 
Heartbeat CPU 6 instructions: 50000000 cycles: 87181390 heartbeat IPC: 0.184421 cumulative IPC: 0.195215 (Simulation time: 0 hr 40 min 57 sec) 
Heartbeat CPU 0 instructions: 100000000 cycles: 87418497 heartbeat IPC: 1.19623 cumulative IPC: 1.05874 (Simulation time: 0 hr 41 min 2 sec) 
Heartbeat CPU 5 instructions: 120000000 cycles: 90048769 heartbeat IPC: 1.05259 cumulative IPC: 1.14386 (Simulation time: 0 hr 42 min 3 sec) 
Heartbeat CPU 1 instructions: 110000002 cycles: 92100771 heartbeat IPC: 0.966483 cumulative IPC: 1.01702 (Simulation time: 0 hr 42 min 51 sec) 
Heartbeat CPU 3 instructions: 100000000 cycles: 92978247 heartbeat IPC: 1.02818 cumulative IPC: 1.04361 (Simulation time: 0 hr 43 min 11 sec) 
Heartbeat CPU 0 instructions: 110000003 cycles: 95135955 heartbeat IPC: 1.29576 cumulative IPC: 1.08195 (Simulation time: 0 hr 44 min 1 sec) 
Heartbeat CPU 7 instructions: 100000000 cycles: 97553887 heartbeat IPC: 0.76887 cumulative IPC: 0.829223 (Simulation time: 0 hr 44 min 57 sec) 
Heartbeat CPU 5 instructions: 130000001 cycles: 99359482 heartbeat IPC: 1.07403 cumulative IPC: 1.13603 (Simulation time: 0 hr 45 min 37 sec) 
Heartbeat CPU 3 instructions: 110000003 cycles: 102419066 heartbeat IPC: 1.05923 cumulative IPC: 1.04532 (Simulation time: 0 hr 46 min 42 sec) 
Heartbeat CPU 4 instructions: 50000002 cycles: 102519124 heartbeat IPC: 0.302742 cumulative IPC: 0.307185 (Simulation time: 0 hr 46 min 44 sec) 
Heartbeat CPU 1 instructions: 120000000 cycles: 104115931 heartbeat IPC: 0.832282 cumulative IPC: 0.991741 (Simulation time: 0 hr 47 min 20 sec) 
Heartbeat CPU 0 instructions: 120000000 cycles: 104267509 heartbeat IPC: 1.0951 cumulative IPC: 1.08332 (Simulation time: 0 hr 47 min 23 sec) 
Finished CPU 5 instructions: 100000001 cycles: 88392455 cumulative IPC: 1.13132 (Simulation time: 0 hr 47 min 34 sec) 
Finished CPU 0 instructions: 100000003 cycles: 92378194 cumulative IPC: 1.08251 (Simulation time: 0 hr 49 min 8 sec) 
Heartbeat CPU 5 instructions: 140000000 cycles: 108840990 heartbeat IPC: 1.05468 cumulative IPC: 1.1277 (Simulation time: 0 hr 49 min 11 sec) 
Heartbeat CPU 7 instructions: 110000000 cycles: 109562832 heartbeat IPC: 0.832713 cumulative IPC: 0.829672 (Simulation time: 0 hr 49 min 28 sec) 
Heartbeat CPU 3 instructions: 120000000 cycles: 112042399 heartbeat IPC: 1.03914 cumulative IPC: 1.0447 (Simulation time: 0 hr 50 min 26 sec) 
Finished CPU 3 instructions: 100000000 cycles: 95721475 cumulative IPC: 1.0447 (Simulation time: 0 hr 50 min 26 sec) 
Heartbeat CPU 0 instructions: 130000002 cycles: 113275952 heartbeat IPC: 1.11007 cumulative IPC: 1.0858 (Simulation time: 0 hr 50 min 56 sec) 
Heartbeat CPU 1 instructions: 130000003 cycles: 116361028 heartbeat IPC: 0.816654 cumulative IPC: 0.97031 (Simulation time: 0 hr 52 min 10 sec) 
Heartbeat CPU 5 instructions: 150000001 cycles: 118252645 heartbeat IPC: 1.06251 cumulative IPC: 1.12168 (Simulation time: 0 hr 52 min 55 sec) 
Heartbeat CPU 7 instructions: 120000000 cycles: 118778782 heartbeat IPC: 1.08508 cumulative IPC: 0.852646 (Simulation time: 0 hr 53 min 8 sec) 
Finished CPU 1 instructions: 100000000 cycles: 103523126 cumulative IPC: 0.965968 (Simulation time: 0 hr 53 min 34 sec) 
Heartbeat CPU 0 instructions: 140000000 cycles: 120093665 heartbeat IPC: 1.46677 cumulative IPC: 1.11083 (Simulation time: 0 hr 53 min 40 sec) 
Heartbeat CPU 3 instructions: 130000001 cycles: 121443891 heartbeat IPC: 1.06366 cumulative IPC: 1.04639 (Simulation time: 0 hr 54 min 12 sec) 
Heartbeat CPU 5 instructions: 160000000 cycles: 127130723 heartbeat IPC: 1.12637 cumulative IPC: 1.12205 (Simulation time: 0 hr 56 min 31 sec) 
Heartbeat CPU 7 instructions: 130000003 cycles: 128131304 heartbeat IPC: 1.06923 cumulative IPC: 0.870762 (Simulation time: 0 hr 56 min 57 sec) 
Heartbeat CPU 1 instructions: 140000000 cycles: 128194286 heartbeat IPC: 0.845076 cumulative IPC: 0.957063 (Simulation time: 0 hr 56 min 58 sec) 
Heartbeat CPU 0 instructions: 150000000 cycles: 129285319 heartbeat IPC: 1.08794 cumulative IPC: 1.10897 (Simulation time: 0 hr 57 min 27 sec) 
Heartbeat CPU 2 instructions: 60000000 cycles: 130090354 heartbeat IPC: 0.204854 cumulative IPC: 0.35096 (Simulation time: 0 hr 57 min 48 sec) 
Finished CPU 7 instructions: 100000000 cycles: 114302373 cumulative IPC: 0.874872 (Simulation time: 0 hr 58 min 1 sec) 
Heartbeat CPU 3 instructions: 140000000 cycles: 131152616 heartbeat IPC: 1.03 cumulative IPC: 1.04501 (Simulation time: 0 hr 58 min 15 sec) 
Heartbeat CPU 4 instructions: 60000000 cycles: 133246162 heartbeat IPC: 0.325446 cumulative IPC: 0.311984 (Simulation time: 0 hr 59 min 10 sec) 
Heartbeat CPU 6 instructions: 60000000 cycles: 135178679 heartbeat IPC: 0.208345 cumulative IPC: 0.200517 (Simulation time: 1 hr 0 min 1 sec) 
Heartbeat CPU 5 instructions: 170000003 cycles: 135565063 heartbeat IPC: 1.18563 cumulative IPC: 1.12655 (Simulation time: 1 hr 0 min 11 sec) 
Heartbeat CPU 7 instructions: 140000000 cycles: 137513993 heartbeat IPC: 1.06579 cumulative IPC: 0.885861 (Simulation time: 1 hr 1 min 2 sec) 
Heartbeat CPU 0 instructions: 160000000 cycles: 138447955 heartbeat IPC: 1.09139 cumulative IPC: 1.10765 (Simulation time: 1 hr 1 min 27 sec) 
Heartbeat CPU 1 instructions: 150000000 cycles: 138998319 heartbeat IPC: 0.92558 cumulative IPC: 0.954291 (Simulation time: 1 hr 1 min 42 sec) 
Heartbeat CPU 3 instructions: 150000003 cycles: 140607739 heartbeat IPC: 1.05763 cumulative IPC: 1.04597 (Simulation time: 1 hr 2 min 25 sec) 
Heartbeat CPU 5 instructions: 180000000 cycles: 143984940 heartbeat IPC: 1.18767 cumulative IPC: 1.13058 (Simulation time: 1 hr 3 min 54 sec) 
Heartbeat CPU 2 instructions: 70000001 cycles: 146606152 heartbeat IPC: 0.605481 cumulative IPC: 0.383225 (Simulation time: 1 hr 5 min 3 sec) 
Heartbeat CPU 0 instructions: 170000000 cycles: 146642186 heartbeat IPC: 1.22037 cumulative IPC: 1.11474 (Simulation time: 1 hr 5 min 4 sec) 
Heartbeat CPU 7 instructions: 150000003 cycles: 146790338 heartbeat IPC: 1.07801 cumulative IPC: 0.899523 (Simulation time: 1 hr 5 min 8 sec) 
Heartbeat CPU 1 instructions: 160000000 cycles: 148629577 heartbeat IPC: 1.03829 cumulative IPC: 0.960405 (Simulation time: 1 hr 5 min 54 sec) 
Heartbeat CPU 3 instructions: 160000000 cycles: 150770976 heartbeat IPC: 0.983938 cumulative IPC: 1.04128 (Simulation time: 1 hr 6 min 51 sec) 
Heartbeat CPU 5 instructions: 190000001 cycles: 152247791 heartbeat IPC: 1.21024 cumulative IPC: 1.13542 (Simulation time: 1 hr 7 min 31 sec) 
Heartbeat CPU 0 instructions: 180000000 cycles: 154377563 heartbeat IPC: 1.29276 cumulative IPC: 1.12471 (Simulation time: 1 hr 8 min 27 sec) 
Heartbeat CPU 7 instructions: 160000000 cycles: 156099290 heartbeat IPC: 1.07423 cumulative IPC: 0.911158 (Simulation time: 1 hr 9 min 14 sec) 
Heartbeat CPU 1 instructions: 170000001 cycles: 158238657 heartbeat IPC: 1.04068 cumulative IPC: 0.965841 (Simulation time: 1 hr 10 min 10 sec) 
Heartbeat CPU 3 instructions: 170000001 cycles: 160234187 heartbeat IPC: 1.05672 cumulative IPC: 1.04229 (Simulation time: 1 hr 11 min 2 sec) 
Heartbeat CPU 0 instructions: 190000001 cycles: 161861913 heartbeat IPC: 1.33612 cumulative IPC: 1.13559 (Simulation time: 1 hr 11 min 41 sec) 
Heartbeat CPU 5 instructions: 200000000 cycles: 162037841 heartbeat IPC: 1.02145 cumulative IPC: 1.12777 (Simulation time: 1 hr 11 min 46 sec) 
Heartbeat CPU 2 instructions: 80000000 cycles: 163151733 heartbeat IPC: 0.604391 cumulative IPC: 0.408147 (Simulation time: 1 hr 12 min 15 sec) 
Heartbeat CPU 4 instructions: 70000002 cycles: 164957062 heartbeat IPC: 0.315349 cumulative IPC: 0.312702 (Simulation time: 1 hr 13 min 2 sec) 
Heartbeat CPU 7 instructions: 170000001 cycles: 165500941 heartbeat IPC: 1.06364 cumulative IPC: 0.920768 (Simulation time: 1 hr 13 min 17 sec) 
Heartbeat CPU 1 instructions: 180000000 cycles: 167822625 heartbeat IPC: 1.04341 cumulative IPC: 0.970747 (Simulation time: 1 hr 14 min 17 sec) 
Heartbeat CPU 0 instructions: 200000000 cycles: 169213369 heartbeat IPC: 1.36027 cumulative IPC: 1.14639 (Simulation time: 1 hr 14 min 53 sec) 
Heartbeat CPU 3 instructions: 180000000 cycles: 170061151 heartbeat IPC: 1.01761 cumulative IPC: 1.04072 (Simulation time: 1 hr 15 min 15 sec) 
Heartbeat CPU 5 instructions: 210000000 cycles: 173542775 heartbeat IPC: 0.869192 cumulative IPC: 1.10884 (Simulation time: 1 hr 16 min 44 sec) 
Heartbeat CPU 7 instructions: 180000000 cycles: 174757039 heartbeat IPC: 1.08037 cumulative IPC: 0.930093 (Simulation time: 1 hr 17 min 16 sec) 
Heartbeat CPU 0 instructions: 210000002 cycles: 176559673 heartbeat IPC: 1.36123 cumulative IPC: 1.15624 (Simulation time: 1 hr 18 min 2 sec) 
Heartbeat CPU 1 instructions: 190000003 cycles: 177261249 heartbeat IPC: 1.05948 cumulative IPC: 0.975951 (Simulation time: 1 hr 18 min 21 sec) 
Heartbeat CPU 2 instructions: 90000003 cycles: 179422123 heartbeat IPC: 0.614614 cumulative IPC: 0.428743 (Simulation time: 1 hr 19 min 17 sec) 
Heartbeat CPU 3 instructions: 190000000 cycles: 179869843 heartbeat IPC: 1.0195 cumulative IPC: 1.03944 (Simulation time: 1 hr 19 min 29 sec) 
Heartbeat CPU 6 instructions: 70000002 cycles: 181856527 heartbeat IPC: 0.214234 cumulative IPC: 0.204385 (Simulation time: 1 hr 20 min 20 sec) 
Heartbeat CPU 7 instructions: 190000000 cycles: 184103565 heartbeat IPC: 1.06992 cumulative IPC: 0.937882 (Simulation time: 1 hr 21 min 17 sec) 
Heartbeat CPU 0 instructions: 220000000 cycles: 184236424 heartbeat IPC: 1.30263 cumulative IPC: 1.16293 (Simulation time: 1 hr 21 min 20 sec) 
Heartbeat CPU 5 instructions: 220000000 cycles: 185081691 heartbeat IPC: 0.866633 cumulative IPC: 1.09228 (Simulation time: 1 hr 21 min 41 sec) 
Heartbeat CPU 1 instructions: 200000000 cycles: 186976609 heartbeat IPC: 1.0293 cumulative IPC: 0.978988 (Simulation time: 1 hr 22 min 29 sec) 
Heartbeat CPU 3 instructions: 200000000 cycles: 190109032 heartbeat IPC: 0.97664 cumulative IPC: 1.03574 (Simulation time: 1 hr 23 min 48 sec) 
Heartbeat CPU 0 instructions: 230000002 cycles: 192762233 heartbeat IPC: 1.17291 cumulative IPC: 1.16341 (Simulation time: 1 hr 24 min 54 sec) 
Heartbeat CPU 7 instructions: 200000000 cycles: 193695055 heartbeat IPC: 1.04259 cumulative IPC: 0.943544 (Simulation time: 1 hr 25 min 18 sec) 
Heartbeat CPU 2 instructions: 100000000 cycles: 196157763 heartbeat IPC: 0.597527 cumulative IPC: 0.44445 (Simulation time: 1 hr 26 min 21 sec) 
Heartbeat CPU 1 instructions: 210000003 cycles: 196667550 heartbeat IPC: 1.03189 cumulative IPC: 0.981831 (Simulation time: 1 hr 26 min 34 sec) 
Heartbeat CPU 5 instructions: 230000003 cycles: 196766987 heartbeat IPC: 0.855777 cumulative IPC: 1.07697 (Simulation time: 1 hr 26 min 37 sec) 
Heartbeat CPU 3 instructions: 210000000 cycles: 200530886 heartbeat IPC: 0.959522 cumulative IPC: 1.03143 (Simulation time: 1 hr 28 min 13 sec) 
Heartbeat CPU 0 instructions: 240000000 cycles: 200778553 heartbeat IPC: 1.24746 cumulative IPC: 1.16707 (Simulation time: 1 hr 28 min 19 sec) 
Heartbeat CPU 4 instructions: 80000000 cycles: 202409321 heartbeat IPC: 0.267007 cumulative IPC: 0.303505 (Simulation time: 1 hr 29 min 0 sec) 
Heartbeat CPU 7 instructions: 210000003 cycles: 202979501 heartbeat IPC: 1.07707 cumulative IPC: 0.950185 (Simulation time: 1 hr 29 min 14 sec) 
Heartbeat CPU 1 instructions: 220000000 cycles: 206531430 heartbeat IPC: 1.0138 cumulative IPC: 0.983489 (Simulation time: 1 hr 30 min 35 sec) 
Heartbeat CPU 5 instructions: 240000000 cycles: 207493791 heartbeat IPC: 0.932244 cumulative IPC: 1.06885 (Simulation time: 1 hr 30 min 57 sec) 
Heartbeat CPU 3 instructions: 220000000 cycles: 210766331 heartbeat IPC: 0.976997 cumulative IPC: 1.02857 (Simulation time: 1 hr 32 min 12 sec) 
Heartbeat CPU 0 instructions: 250000001 cycles: 212438519 heartbeat IPC: 0.857635 cumulative IPC: 1.14867 (Simulation time: 1 hr 32 min 51 sec) 
Heartbeat CPU 2 instructions: 110000003 cycles: 213277196 heartbeat IPC: 0.584132 cumulative IPC: 0.456592 (Simulation time: 1 hr 33 min 11 sec) 
Heartbeat CPU 7 instructions: 220000000 cycles: 214831040 heartbeat IPC: 0.843772 cumulative IPC: 0.943832 (Simulation time: 1 hr 33 min 49 sec) 
Heartbeat CPU 5 instructions: 250000001 cycles: 215638922 heartbeat IPC: 1.22773 cumulative IPC: 1.07534 (Simulation time: 1 hr 34 min 10 sec) 
Heartbeat CPU 1 instructions: 230000002 cycles: 216796345 heartbeat IPC: 0.974192 cumulative IPC: 0.983013 (Simulation time: 1 hr 34 min 39 sec) 
Heartbeat CPU 3 instructions: 230000002 cycles: 220360747 heartbeat IPC: 1.04227 cumulative IPC: 1.02921 (Simulation time: 1 hr 36 min 10 sec) 
Heartbeat CPU 0 instructions: 260000000 cycles: 222028918 heartbeat IPC: 1.04271 cumulative IPC: 1.14373 (Simulation time: 1 hr 36 min 51 sec) 
Heartbeat CPU 5 instructions: 260000000 cycles: 223175203 heartbeat IPC: 1.32691 cumulative IPC: 1.08451 (Simulation time: 1 hr 37 min 20 sec) 
Heartbeat CPU 1 instructions: 240000000 cycles: 226798159 heartbeat IPC: 0.999818 cumulative IPC: 0.983811 (Simulation time: 1 hr 38 min 52 sec) 
Heartbeat CPU 7 instructions: 230000000 cycles: 226849598 heartbeat IPC: 0.832047 cumulative IPC: 0.937451 (Simulation time: 1 hr 38 min 53 sec) 
Heartbeat CPU 3 instructions: 240000000 cycles: 230078194 heartbeat IPC: 1.02908 cumulative IPC: 1.0292 (Simulation time: 1 hr 40 min 8 sec) 
Heartbeat CPU 2 instructions: 120000000 cycles: 230326862 heartbeat IPC: 0.586522 cumulative IPC: 0.466943 (Simulation time: 1 hr 40 min 14 sec) 
Finished CPU 2 instructions: 100000003 cycles: 214144237 cumulative IPC: 0.466975 (Simulation time: 1 hr 40 min 17 sec) 
Heartbeat CPU 6 instructions: 80000000 cycles: 231334383 heartbeat IPC: 0.202111 cumulative IPC: 0.203862 (Simulation time: 1 hr 40 min 36 sec) 
Heartbeat CPU 5 instructions: 270000002 cycles: 231908405 heartbeat IPC: 1.14506 cumulative IPC: 1.08696 (Simulation time: 1 hr 40 min 49 sec) 
Heartbeat CPU 0 instructions: 270000000 cycles: 232115361 heartbeat IPC: 0.99143 cumulative IPC: 1.13661 (Simulation time: 1 hr 40 min 54 sec) 
Heartbeat CPU 1 instructions: 250000000 cycles: 237988355 heartbeat IPC: 0.893639 cumulative IPC: 0.979259 (Simulation time: 1 hr 43 min 5 sec) 
Heartbeat CPU 7 instructions: 240000000 cycles: 239544340 heartbeat IPC: 0.787728 cumulative IPC: 0.928936 (Simulation time: 1 hr 43 min 41 sec) 
Heartbeat CPU 3 instructions: 250000001 cycles: 239909212 heartbeat IPC: 1.01719 cumulative IPC: 1.02868 (Simulation time: 1 hr 43 min 49 sec) 
Heartbeat CPU 0 instructions: 280000000 cycles: 242081218 heartbeat IPC: 1.00343 cumulative IPC: 1.13073 (Simulation time: 1 hr 44 min 38 sec) 
Heartbeat CPU 4 instructions: 90000001 cycles: 242999790 heartbeat IPC: 0.246363 cumulative IPC: 0.293273 (Simulation time: 1 hr 44 min 59 sec) 
Heartbeat CPU 5 instructions: 280000000 cycles: 247617648 heartbeat IPC: 0.636568 cumulative IPC: 1.05637 (Simulation time: 1 hr 46 min 43 sec) 
Heartbeat CPU 2 instructions: 130000001 cycles: 248317440 heartbeat IPC: 0.555847 cumulative IPC: 0.473837 (Simulation time: 1 hr 46 min 58 sec) 
Heartbeat CPU 1 instructions: 260000000 cycles: 248660052 heartbeat IPC: 0.937058 cumulative IPC: 0.977321 (Simulation time: 1 hr 47 min 5 sec) 
Heartbeat CPU 3 instructions: 260000000 cycles: 249760959 heartbeat IPC: 1.01505 cumulative IPC: 1.0281 (Simulation time: 1 hr 47 min 29 sec) 
Heartbeat CPU 7 instructions: 250000000 cycles: 252127973 heartbeat IPC: 0.794683 cumulative IPC: 0.921772 (Simulation time: 1 hr 48 min 24 sec) 
Heartbeat CPU 0 instructions: 290000003 cycles: 252507529 heartbeat IPC: 0.959112 cumulative IPC: 1.12316 (Simulation time: 1 hr 48 min 33 sec) 
Heartbeat CPU 5 instructions: 290000003 cycles: 258566306 heartbeat IPC: 0.913354 cumulative IPC: 1.04991 (Simulation time: 1 hr 51 min 5 sec) 
Heartbeat CPU 1 instructions: 270000002 cycles: 259315918 heartbeat IPC: 0.93845 cumulative IPC: 0.975616 (Simulation time: 1 hr 51 min 25 sec) 
Heartbeat CPU 3 instructions: 270000002 cycles: 259408613 heartbeat IPC: 1.03652 cumulative IPC: 1.02844 (Simulation time: 1 hr 51 min 27 sec) 
Heartbeat CPU 0 instructions: 300000000 cycles: 260370561 heartbeat IPC: 1.27177 cumulative IPC: 1.12794 (Simulation time: 1 hr 51 min 53 sec) 
Heartbeat CPU 7 instructions: 260000000 cycles: 262160375 heartbeat IPC: 0.99677 cumulative IPC: 0.924832 (Simulation time: 1 hr 52 min 39 sec) 
Heartbeat CPU 2 instructions: 140000000 cycles: 265601706 heartbeat IPC: 0.578561 cumulative IPC: 0.481098 (Simulation time: 1 hr 54 min 6 sec) 
Heartbeat CPU 5 instructions: 300000000 cycles: 268250959 heartbeat IPC: 1.03256 cumulative IPC: 1.04924 (Simulation time: 1 hr 55 min 14 sec) 
Heartbeat CPU 0 instructions: 310000002 cycles: 268973217 heartbeat IPC: 1.16243 cumulative IPC: 1.12912 (Simulation time: 1 hr 55 min 33 sec) 
Heartbeat CPU 1 instructions: 280000000 cycles: 269193301 heartbeat IPC: 1.01241 cumulative IPC: 0.977054 (Simulation time: 1 hr 55 min 38 sec) 
Heartbeat CPU 3 instructions: 280000000 cycles: 269209523 heartbeat IPC: 1.02031 cumulative IPC: 1.02812 (Simulation time: 1 hr 55 min 39 sec) 
Heartbeat CPU 7 instructions: 270000002 cycles: 271630904 heartbeat IPC: 1.05591 cumulative IPC: 0.929694 (Simulation time: 1 hr 56 min 42 sec) 
Heartbeat CPU 0 instructions: 320000000 cycles: 276150536 heartbeat IPC: 1.39328 cumulative IPC: 1.13641 (Simulation time: 1 hr 58 min 41 sec) 
Heartbeat CPU 4 instructions: 100000000 cycles: 276196588 heartbeat IPC: 0.301234 cumulative IPC: 0.29429 (Simulation time: 1 hr 58 min 42 sec) 
Heartbeat CPU 5 instructions: 310000002 cycles: 277854904 heartbeat IPC: 1.04124 cumulative IPC: 1.04894 (Simulation time: 1 hr 59 min 26 sec) 
Heartbeat CPU 3 instructions: 290000002 cycles: 278878615 heartbeat IPC: 1.03422 cumulative IPC: 1.02835 (Simulation time: 1 hr 59 min 53 sec) 
Heartbeat CPU 1 instructions: 290000003 cycles: 278958611 heartbeat IPC: 1.02403 cumulative IPC: 0.9788 (Simulation time: 1 hr 59 min 55 sec) 
Heartbeat CPU 7 instructions: 280000000 cycles: 280906118 heartbeat IPC: 1.07814 cumulative IPC: 0.934898 (Simulation time: 2 hr 0 min 47 sec) 
Heartbeat CPU 2 instructions: 150000001 cycles: 282660897 heartbeat IPC: 0.586194 cumulative IPC: 0.48783 (Simulation time: 2 hr 1 min 30 sec) 
Heartbeat CPU 0 instructions: 330000003 cycles: 284957811 heartbeat IPC: 1.13543 cumulative IPC: 1.13638 (Simulation time: 2 hr 2 min 26 sec) 
Heartbeat CPU 6 instructions: 90000001 cycles: 286693872 heartbeat IPC: 0.180638 cumulative IPC: 0.199106 (Simulation time: 2 hr 3 min 12 sec) 
Heartbeat CPU 5 instructions: 320000000 cycles: 287337789 heartbeat IPC: 1.05453 cumulative IPC: 1.04914 (Simulation time: 2 hr 3 min 29 sec) 
Heartbeat CPU 3 instructions: 300000000 cycles: 288382310 heartbeat IPC: 1.05222 cumulative IPC: 1.02918 (Simulation time: 2 hr 3 min 57 sec) 
Heartbeat CPU 1 instructions: 300000000 cycles: 288845631 heartbeat IPC: 1.01143 cumulative IPC: 0.979984 (Simulation time: 2 hr 4 min 9 sec) 
Heartbeat CPU 7 instructions: 290000001 cycles: 290230045 heartbeat IPC: 1.07251 cumulative IPC: 0.939583 (Simulation time: 2 hr 4 min 45 sec) 
Heartbeat CPU 0 instructions: 340000000 cycles: 293998032 heartbeat IPC: 1.10617 cumulative IPC: 1.1354 (Simulation time: 2 hr 6 min 23 sec) 
Heartbeat CPU 5 instructions: 330000002 cycles: 296683415 heartbeat IPC: 1.07002 cumulative IPC: 1.04984 (Simulation time: 2 hr 7 min 34 sec) 
Heartbeat CPU 3 instructions: 310000000 cycles: 297936745 heartbeat IPC: 1.04663 cumulative IPC: 1.02977 (Simulation time: 2 hr 8 min 7 sec) 
Heartbeat CPU 1 instructions: 310000000 cycles: 298801124 heartbeat IPC: 1.00447 cumulative IPC: 0.980847 (Simulation time: 2 hr 8 min 29 sec) 
Heartbeat CPU 2 instructions: 160000000 cycles: 299132457 heartbeat IPC: 0.607107 cumulative IPC: 0.494777 (Simulation time: 2 hr 8 min 38 sec) 
Heartbeat CPU 7 instructions: 300000000 cycles: 299453544 heartbeat IPC: 1.08419 cumulative IPC: 0.944293 (Simulation time: 2 hr 8 min 46 sec) 
Heartbeat CPU 0 instructions: 350000002 cycles: 303065536 heartbeat IPC: 1.10284 cumulative IPC: 1.13437 (Simulation time: 2 hr 10 min 21 sec) 
Heartbeat CPU 5 instructions: 340000000 cycles: 306029535 heartbeat IPC: 1.06996 cumulative IPC: 1.05049 (Simulation time: 2 hr 11 min 38 sec) 
Heartbeat CPU 3 instructions: 320000000 cycles: 307796620 heartbeat IPC: 1.01421 cumulative IPC: 1.02925 (Simulation time: 2 hr 12 min 25 sec) 
Heartbeat CPU 7 instructions: 310000002 cycles: 308617879 heartbeat IPC: 1.09119 cumulative IPC: 0.948899 (Simulation time: 2 hr 12 min 47 sec) 
Heartbeat CPU 1 instructions: 320000000 cycles: 308701626 heartbeat IPC: 1.01005 cumulative IPC: 0.981836 (Simulation time: 2 hr 12 min 49 sec) 
Heartbeat CPU 4 instructions: 110000000 cycles: 309821522 heartbeat IPC: 0.297398 cumulative IPC: 0.294646 (Simulation time: 2 hr 13 min 18 sec) 
Heartbeat CPU 0 instructions: 360000000 cycles: 312058228 heartbeat IPC: 1.11201 cumulative IPC: 1.13369 (Simulation time: 2 hr 14 min 17 sec) 
Heartbeat CPU 5 instructions: 350000000 cycles: 315313194 heartbeat IPC: 1.07716 cumulative IPC: 1.05131 (Simulation time: 2 hr 15 min 40 sec) 
Heartbeat CPU 2 instructions: 170000001 cycles: 315361241 heartbeat IPC: 0.616189 cumulative IPC: 0.501366 (Simulation time: 2 hr 15 min 41 sec) 
Heartbeat CPU 3 instructions: 330000001 cycles: 317657255 heartbeat IPC: 1.01413 cumulative IPC: 1.02875 (Simulation time: 2 hr 16 min 41 sec) 
Heartbeat CPU 7 instructions: 320000000 cycles: 317820792 heartbeat IPC: 1.08661 cumulative IPC: 0.953102 (Simulation time: 2 hr 16 min 45 sec) 
Heartbeat CPU 1 instructions: 330000001 cycles: 318648960 heartbeat IPC: 1.00529 cumulative IPC: 0.982608 (Simulation time: 2 hr 17 min 6 sec) 
Heartbeat CPU 0 instructions: 370000002 cycles: 321068377 heartbeat IPC: 1.10986 cumulative IPC: 1.13298 (Simulation time: 2 hr 18 min 10 sec) 
Heartbeat CPU 5 instructions: 360000000 cycles: 324568742 heartbeat IPC: 1.08043 cumulative IPC: 1.05219 (Simulation time: 2 hr 19 min 40 sec) 
Heartbeat CPU 6 instructions: 100000000 cycles: 326493376 heartbeat IPC: 0.251259 cumulative IPC: 0.205798 (Simulation time: 2 hr 20 min 30 sec) 
Heartbeat CPU 7 instructions: 330000003 cycles: 326977987 heartbeat IPC: 1.09204 cumulative IPC: 0.957198 (Simulation time: 2 hr 20 min 42 sec) 
Heartbeat CPU 3 instructions: 340000000 cycles: 327495916 heartbeat IPC: 1.0164 cumulative IPC: 1.02836 (Simulation time: 2 hr 20 min 56 sec) 
Heartbeat CPU 1 instructions: 340000000 cycles: 328526250 heartbeat IPC: 1.01242 cumulative IPC: 0.983551 (Simulation time: 2 hr 21 min 22 sec) 
Heartbeat CPU 0 instructions: 380000000 cycles: 330115715 heartbeat IPC: 1.1053 cumulative IPC: 1.13219 (Simulation time: 2 hr 22 min 3 sec) 
Heartbeat CPU 2 instructions: 180000000 cycles: 331639819 heartbeat IPC: 0.614304 cumulative IPC: 0.507196 (Simulation time: 2 hr 22 min 42 sec) 
Heartbeat CPU 5 instructions: 370000003 cycles: 333800755 heartbeat IPC: 1.08319 cumulative IPC: 1.05309 (Simulation time: 2 hr 23 min 38 sec) 
Heartbeat CPU 7 instructions: 340000000 cycles: 336239830 heartbeat IPC: 1.0797 cumulative IPC: 0.960744 (Simulation time: 2 hr 24 min 35 sec) 
Heartbeat CPU 3 instructions: 350000003 cycles: 337098711 heartbeat IPC: 1.04136 cumulative IPC: 1.02875 (Simulation time: 2 hr 24 min 57 sec) 
Heartbeat CPU 1 instructions: 350000002 cycles: 338312490 heartbeat IPC: 1.02184 cumulative IPC: 0.984715 (Simulation time: 2 hr 25 min 28 sec) 
Heartbeat CPU 0 instructions: 390000002 cycles: 339226213 heartbeat IPC: 1.09764 cumulative IPC: 1.13121 (Simulation time: 2 hr 25 min 51 sec) 
Heartbeat CPU 5 instructions: 380000000 cycles: 342664299 heartbeat IPC: 1.12822 cumulative IPC: 1.05513 (Simulation time: 2 hr 27 min 18 sec) 
Heartbeat CPU 7 instructions: 350000001 cycles: 345805376 heartbeat IPC: 1.04542 cumulative IPC: 0.963202 (Simulation time: 2 hr 28 min 37 sec) 
Heartbeat CPU 3 instructions: 360000000 cycles: 346747632 heartbeat IPC: 1.03639 cumulative IPC: 1.02897 (Simulation time: 2 hr 29 min 0 sec) 
Heartbeat CPU 0 instructions: 400000000 cycles: 348084656 heartbeat IPC: 1.12887 cumulative IPC: 1.13115 (Simulation time: 2 hr 29 min 34 sec) 
Heartbeat CPU 1 instructions: 360000000 cycles: 348160324 heartbeat IPC: 1.01545 cumulative IPC: 0.985627 (Simulation time: 2 hr 29 min 36 sec) 
Heartbeat CPU 2 instructions: 190000003 cycles: 348518961 heartbeat IPC: 0.592447 cumulative IPC: 0.511528 (Simulation time: 2 hr 29 min 45 sec) 
Heartbeat CPU 5 instructions: 390000000 cycles: 350909412 heartbeat IPC: 1.21284 cumulative IPC: 1.05902 (Simulation time: 2 hr 30 min 45 sec) 
Heartbeat CPU 7 instructions: 360000000 cycles: 355376144 heartbeat IPC: 1.04485 cumulative IPC: 0.965507 (Simulation time: 2 hr 32 min 31 sec) 
Heartbeat CPU 4 instructions: 120000000 cycles: 356106133 heartbeat IPC: 0.216055 cumulative IPC: 0.28394 (Simulation time: 2 hr 32 min 49 sec) 
Heartbeat CPU 3 instructions: 370000001 cycles: 356397981 heartbeat IPC: 1.03623 cumulative IPC: 1.02918 (Simulation time: 2 hr 32 min 57 sec) 
Heartbeat CPU 0 instructions: 410000001 cycles: 356679512 heartbeat IPC: 1.16349 cumulative IPC: 1.13197 (Simulation time: 2 hr 33 min 4 sec) 
Heartbeat CPU 1 instructions: 370000001 cycles: 358494381 heartbeat IPC: 0.967674 cumulative IPC: 0.985085 (Simulation time: 2 hr 33 min 50 sec) 
Heartbeat CPU 5 instructions: 400000000 cycles: 361085132 heartbeat IPC: 0.982731 cumulative IPC: 1.05676 (Simulation time: 2 hr 34 min 55 sec) 
Heartbeat CPU 7 instructions: 370000000 cycles: 364678461 heartbeat IPC: 1.075 cumulative IPC: 0.968431 (Simulation time: 2 hr 36 min 25 sec) 
Heartbeat CPU 0 instructions: 420000000 cycles: 365124299 heartbeat IPC: 1.18416 cumulative IPC: 1.13323 (Simulation time: 2 hr 36 min 36 sec) 
Heartbeat CPU 2 instructions: 200000000 cycles: 365453896 heartbeat IPC: 0.590495 cumulative IPC: 0.515358 (Simulation time: 2 hr 36 min 44 sec) 
Heartbeat CPU 3 instructions: 380000000 cycles: 366151020 heartbeat IPC: 1.02532 cumulative IPC: 1.02907 (Simulation time: 2 hr 37 min 2 sec) 
Heartbeat CPU 1 instructions: 380000000 cycles: 370086067 heartbeat IPC: 0.862687 cumulative IPC: 0.981074 (Simulation time: 2 hr 38 min 43 sec) 
Heartbeat CPU 5 instructions: 410000000 cycles: 370326221 heartbeat IPC: 1.08212 cumulative IPC: 1.05743 (Simulation time: 2 hr 38 min 49 sec) 
Finished CPU 4 instructions: 100000000 cycles: 357064071 cumulative IPC: 0.280062 (Simulation time: 2 hr 40 min 9 sec) 
Heartbeat CPU 0 instructions: 430000003 cycles: 373462721 heartbeat IPC: 1.19927 cumulative IPC: 1.13477 (Simulation time: 2 hr 40 min 11 sec) 
Heartbeat CPU 7 instructions: 380000000 cycles: 373934278 heartbeat IPC: 1.0804 cumulative IPC: 0.971329 (Simulation time: 2 hr 40 min 23 sec) 
Heartbeat CPU 3 instructions: 390000003 cycles: 375714653 heartbeat IPC: 1.04563 cumulative IPC: 1.02951 (Simulation time: 2 hr 41 min 9 sec) 
Heartbeat CPU 6 instructions: 110000003 cycles: 375895746 heartbeat IPC: 0.20242 cumulative IPC: 0.205334 (Simulation time: 2 hr 41 min 14 sec) 
Heartbeat CPU 2 instructions: 210000001 cycles: 379367068 heartbeat IPC: 0.718743 cumulative IPC: 0.523153 (Simulation time: 2 hr 42 min 40 sec) 
Heartbeat CPU 5 instructions: 420000000 cycles: 379418083 heartbeat IPC: 1.09988 cumulative IPC: 1.05849 (Simulation time: 2 hr 42 min 41 sec) 
Heartbeat CPU 1 instructions: 390000003 cycles: 381506364 heartbeat IPC: 0.875634 cumulative IPC: 0.977777 (Simulation time: 2 hr 43 min 35 sec) 
Heartbeat CPU 7 instructions: 390000001 cycles: 383163227 heartbeat IPC: 1.08355 cumulative IPC: 0.974152 (Simulation time: 2 hr 44 min 17 sec) 
Heartbeat CPU 0 instructions: 440000000 cycles: 384623623 heartbeat IPC: 0.895985 cumulative IPC: 1.12753 (Simulation time: 2 hr 44 min 54 sec) 
Heartbeat CPU 3 instructions: 400000000 cycles: 385436743 heartbeat IPC: 1.02859 cumulative IPC: 1.02949 (Simulation time: 2 hr 45 min 15 sec) 
Heartbeat CPU 5 instructions: 430000001 cycles: 388472677 heartbeat IPC: 1.10441 cumulative IPC: 1.05961 (Simulation time: 2 hr 46 min 32 sec) 
Heartbeat CPU 7 instructions: 400000000 cycles: 392293912 heartbeat IPC: 1.09521 cumulative IPC: 0.977092 (Simulation time: 2 hr 48 min 9 sec) 
Heartbeat CPU 1 instructions: 400000000 cycles: 392570472 heartbeat IPC: 0.903823 cumulative IPC: 0.975602 (Simulation time: 2 hr 48 min 16 sec) 
Heartbeat CPU 2 instructions: 220000000 cycles: 393230902 heartbeat IPC: 0.721301 cumulative IPC: 0.530441 (Simulation time: 2 hr 48 min 33 sec) 
Heartbeat CPU 3 instructions: 410000000 cycles: 395071095 heartbeat IPC: 1.03795 cumulative IPC: 1.0297 (Simulation time: 2 hr 49 min 20 sec) 
Heartbeat CPU 0 instructions: 450000001 cycles: 396070107 heartbeat IPC: 0.873631 cumulative IPC: 1.11988 (Simulation time: 2 hr 49 min 46 sec) 
Heartbeat CPU 5 instructions: 440000000 cycles: 397490298 heartbeat IPC: 1.10894 cumulative IPC: 1.06077 (Simulation time: 2 hr 50 min 22 sec) 
Heartbeat CPU 4 instructions: 130000000 cycles: 401832304 heartbeat IPC: 0.218693 cumulative IPC: 0.276201 (Simulation time: 2 hr 52 min 3 sec) 
Heartbeat CPU 1 instructions: 410000001 cycles: 401932153 heartbeat IPC: 1.06818 cumulative IPC: 0.97785 (Simulation time: 2 hr 52 min 5 sec) 
Heartbeat CPU 7 instructions: 410000002 cycles: 401960384 heartbeat IPC: 1.0345 cumulative IPC: 0.978531 (Simulation time: 2 hr 52 min 6 sec) 
Heartbeat CPU 5 instructions: 450000001 cycles: 406402615 heartbeat IPC: 1.12204 cumulative IPC: 1.06217 (Simulation time: 2 hr 53 min 47 sec) 
Heartbeat CPU 2 instructions: 230000000 cycles: 407073030 heartbeat IPC: 0.722432 cumulative IPC: 0.537242 (Simulation time: 2 hr 54 min 3 sec) 
Heartbeat CPU 0 instructions: 460000000 cycles: 407412331 heartbeat IPC: 0.881661 cumulative IPC: 1.11297 (Simulation time: 2 hr 54 min 11 sec) 
Heartbeat CPU 1 instructions: 420000000 cycles: 411038071 heartbeat IPC: 1.09819 cumulative IPC: 0.980626 (Simulation time: 2 hr 55 min 33 sec) 
Heartbeat CPU 7 instructions: 420000000 cycles: 411641768 heartbeat IPC: 1.03291 cumulative IPC: 0.979863 (Simulation time: 2 hr 55 min 47 sec) 
Heartbeat CPU 5 instructions: 460000000 cycles: 414656680 heartbeat IPC: 1.21152 cumulative IPC: 1.06527 (Simulation time: 2 hr 56 min 58 sec) 
Heartbeat CPU 6 instructions: 120000000 cycles: 418547440 heartbeat IPC: 0.234457 cumulative IPC: 0.208422 (Simulation time: 2 hr 58 min 31 sec) 
Heartbeat CPU 0 instructions: 470000000 cycles: 418601121 heartbeat IPC: 0.893752 cumulative IPC: 1.10688 (Simulation time: 2 hr 58 min 33 sec) 
Heartbeat CPU 1 instructions: 430000001 cycles: 420159983 heartbeat IPC: 1.09626 cumulative IPC: 0.983238 (Simulation time: 2 hr 59 min 8 sec) 
Heartbeat CPU 2 instructions: 240000000 cycles: 420911277 heartbeat IPC: 0.722635 cumulative IPC: 0.543583 (Simulation time: 2 hr 59 min 25 sec) 
Heartbeat CPU 7 instructions: 430000001 cycles: 421347314 heartbeat IPC: 1.03034 cumulative IPC: 0.981072 (Simulation time: 2 hr 59 min 35 sec) 
Heartbeat CPU 5 instructions: 470000001 cycles: 422804292 heartbeat IPC: 1.22735 cumulative IPC: 1.06852 (Simulation time: 3 hr 0 min 8 sec) 
Heartbeat CPU 0 instructions: 480000000 cycles: 426509753 heartbeat IPC: 1.26444 cumulative IPC: 1.10991 (Simulation time: 3 hr 1 min 34 sec) 
Heartbeat CPU 1 instructions: 440000000 cycles: 429340254 heartbeat IPC: 1.08929 cumulative IPC: 0.985595 (Simulation time: 3 hr 2 min 41 sec) 
Heartbeat CPU 5 instructions: 480000000 cycles: 430849594 heartbeat IPC: 1.24296 cumulative IPC: 1.0719 (Simulation time: 3 hr 3 min 16 sec) 
Heartbeat CPU 7 instructions: 440000000 cycles: 431040268 heartbeat IPC: 1.03168 cumulative IPC: 0.982255 (Simulation time: 3 hr 3 min 21 sec) 
Heartbeat CPU 3 instructions: 420000000 cycles: 432331689 heartbeat IPC: 0.26838 cumulative IPC: 0.961514 (Simulation time: 3 hr 3 min 52 sec) 
Heartbeat CPU 0 instructions: 490000000 cycles: 433607300 heartbeat IPC: 1.40894 cumulative IPC: 1.115 (Simulation time: 3 hr 4 min 22 sec) 
Heartbeat CPU 4 instructions: 140000000 cycles: 434280936 heartbeat IPC: 0.308179 cumulative IPC: 0.278684 (Simulation time: 3 hr 4 min 38 sec) 
Heartbeat CPU 2 instructions: 250000000 cycles: 434776948 heartbeat IPC: 0.721206 cumulative IPC: 0.549469 (Simulation time: 3 hr 4 min 50 sec) 
Heartbeat CPU 1 instructions: 450000000 cycles: 438427400 heartbeat IPC: 1.10046 cumulative IPC: 0.988068 (Simulation time: 3 hr 6 min 16 sec) 
Heartbeat CPU 5 instructions: 490000002 cycles: 438770725 heartbeat IPC: 1.26245 cumulative IPC: 1.07548 (Simulation time: 3 hr 6 min 24 sec) 
Heartbeat CPU 0 instructions: 500000000 cycles: 440661965 heartbeat IPC: 1.4175 cumulative IPC: 1.12003 (Simulation time: 3 hr 7 min 9 sec) 
Heartbeat CPU 7 instructions: 450000002 cycles: 440703885 heartbeat IPC: 1.03481 cumulative IPC: 0.983452 (Simulation time: 3 hr 7 min 10 sec) 
Heartbeat CPU 1 instructions: 460000000 cycles: 447582504 heartbeat IPC: 1.09229 cumulative IPC: 0.99028 (Simulation time: 3 hr 9 min 40 sec) 
Heartbeat CPU 5 instructions: 500000000 cycles: 448425933 heartbeat IPC: 1.03571 cumulative IPC: 1.07459 (Simulation time: 3 hr 9 min 58 sec) 
Heartbeat CPU 2 instructions: 260000000 cycles: 448619429 heartbeat IPC: 0.722414 cumulative IPC: 0.555007 (Simulation time: 3 hr 10 min 2 sec) 
Heartbeat CPU 0 instructions: 510000003 cycles: 450318754 heartbeat IPC: 1.03554 cumulative IPC: 1.11815 (Simulation time: 3 hr 10 min 38 sec) 
Heartbeat CPU 7 instructions: 460000000 cycles: 450379335 heartbeat IPC: 1.03354 cumulative IPC: 0.984569 (Simulation time: 3 hr 10 min 39 sec) 
Heartbeat CPU 1 instructions: 470000000 cycles: 456902489 heartbeat IPC: 1.07296 cumulative IPC: 0.992029 (Simulation time: 3 hr 13 min 3 sec) 
Heartbeat CPU 7 instructions: 470000003 cycles: 459367529 heartbeat IPC: 1.11257 cumulative IPC: 0.987165 (Simulation time: 3 hr 13 min 58 sec) 
Heartbeat CPU 5 instructions: 510000000 cycles: 460033851 heartbeat IPC: 0.861481 cumulative IPC: 1.06901 (Simulation time: 3 hr 14 min 15 sec) 
Heartbeat CPU 0 instructions: 520000000 cycles: 461492931 heartbeat IPC: 0.89492 cumulative IPC: 1.11255 (Simulation time: 3 hr 14 min 49 sec) 
Heartbeat CPU 2 instructions: 270000003 cycles: 462594584 heartbeat IPC: 0.715556 cumulative IPC: 0.560034 (Simulation time: 3 hr 15 min 15 sec) 
Heartbeat CPU 4 instructions: 150000001 cycles: 464010070 heartbeat IPC: 0.33637 cumulative IPC: 0.282515 (Simulation time: 3 hr 15 min 49 sec) 
Heartbeat CPU 6 instructions: 130000001 cycles: 464897189 heartbeat IPC: 0.215751 cumulative IPC: 0.20918 (Simulation time: 3 hr 16 min 10 sec) 
Heartbeat CPU 1 instructions: 480000000 cycles: 466186381 heartbeat IPC: 1.07713 cumulative IPC: 0.993786 (Simulation time: 3 hr 16 min 41 sec) 
Heartbeat CPU 3 instructions: 430000000 cycles: 467746339 heartbeat IPC: 0.282369 cumulative IPC: 0.908234 (Simulation time: 3 hr 17 min 18 sec) 
Heartbeat CPU 7 instructions: 480000000 cycles: 468287460 heartbeat IPC: 1.12108 cumulative IPC: 0.989808 (Simulation time: 3 hr 17 min 30 sec) 
Heartbeat CPU 0 instructions: 530000001 cycles: 470738937 heartbeat IPC: 1.08155 cumulative IPC: 1.11191 (Simulation time: 3 hr 18 min 27 sec) 
Heartbeat CPU 5 instructions: 520000000 cycles: 471543863 heartbeat IPC: 0.868809 cumulative IPC: 1.06395 (Simulation time: 3 hr 18 min 45 sec) 
Heartbeat CPU 1 instructions: 490000000 cycles: 475390903 heartbeat IPC: 1.08642 cumulative IPC: 0.995643 (Simulation time: 3 hr 20 min 12 sec) 
Heartbeat CPU 2 instructions: 280000000 cycles: 476482362 heartbeat IPC: 0.720057 cumulative IPC: 0.564864 (Simulation time: 3 hr 20 min 38 sec) 
Heartbeat CPU 7 instructions: 490000003 cycles: 478467460 heartbeat IPC: 0.982319 cumulative IPC: 0.989643 (Simulation time: 3 hr 21 min 23 sec) 
Heartbeat CPU 0 instructions: 540000000 cycles: 479949626 heartbeat IPC: 1.0857 cumulative IPC: 1.11139 (Simulation time: 3 hr 21 min 55 sec) 
Heartbeat CPU 5 instructions: 530000002 cycles: 483099799 heartbeat IPC: 0.865356 cumulative IPC: 1.05903 (Simulation time: 3 hr 23 min 3 sec) 
Heartbeat CPU 1 instructions: 500000000 cycles: 484714896 heartbeat IPC: 1.0725 cumulative IPC: 0.997173 (Simulation time: 3 hr 23 min 39 sec) 
Heartbeat CPU 0 instructions: 550000001 cycles: 489033640 heartbeat IPC: 1.10084 cumulative IPC: 1.11119 (Simulation time: 3 hr 25 min 16 sec) 
Finished CPU 6 instructions: 100000000 cycles: 473138570 cumulative IPC: 0.211355 (Simulation time: 3 hr 25 min 25 sec) 

CPU 0 Branch Prediction Accuracy: 99.2707% MPKI: 0.310757

CPU 1 Branch Prediction Accuracy: 99.1511% MPKI: 0.193411

CPU 2 Branch Prediction Accuracy: 99.7882% MPKI: 0.0115613

CPU 3 Branch Prediction Accuracy: 99.7597% MPKI: 0.465078

CPU 4 Branch Prediction Accuracy: 75.1348% MPKI: 45.7424

CPU 5 Branch Prediction Accuracy: 99.2036% MPKI: 0.340869

CPU 6 Branch Prediction Accuracy: 99.0982% MPKI: 2.00427

CPU 7 Branch Prediction Accuracy: 99.1519% MPKI: 0.21818

ChampSim completed all CPUs

Total Simulation Statistics (not including warmup)

CPU 0 cumulative IPC: 1.11115 instructions: 525730250 cycles: 473138569
L1D TOTAL     ACCESS:  157758143  HIT:  152353002  MISS:    5405141
L1D LOAD      ACCESS:  134525251  HIT:  129943216  MISS:    4582035
L1D RFO       ACCESS:   23232892  HIT:   22409786  MISS:     823106
L1D PREFETCH  ACCESS:          0  HIT:          0  MISS:          0
L1D WRITEBACK ACCESS:          0  HIT:          0  MISS:          0
L1I TOTAL     ACCESS:  122664886  HIT:  122663276  MISS:       1610
L1I LOAD      ACCESS:  122664886  HIT:  122663276  MISS:       1610
L1I RFO       ACCESS:          0  HIT:          0  MISS:          0
L1I PREFETCH  ACCESS:          0  HIT:          0  MISS:          0
L1I WRITEBACK ACCESS:          0  HIT:          0  MISS:          0
L2C TOTAL     ACCESS:   12882364  HIT:    8738690  MISS:    4143674
L2C LOAD      ACCESS:    4583638  HIT:    4282269  MISS:     301369
L2C RFO       ACCESS:     823105  HIT:     190568  MISS:     632537
L2C PREFETCH  ACCESS:    5678801  HIT:    2470009  MISS:    3208792
L2C WRITEBACK ACCESS:    1796820  HIT:    1795844  MISS:        976

Avg Lookahead Depth:	2.98238
TOTAL: 4.02547e+07	L2C: 3.07772e+07	LLC: 9.47747e+06	GOOD_L2C: 1.84342e+07
Printing all the perceptron weights to: perc_weights_0.csv
LLC TOTAL     ACCESS:    6026072  HIT:    2111394  MISS:    3914678
LLC LOAD      ACCESS:     163512  HIT:      33915  MISS:     129597
LLC RFO       ACCESS:     632328  HIT:      38668  MISS:     593660
LLC PREFETCH  ACCESS:    3750285  HIT:     561934  MISS:    3188351
LLC WRITEBACK ACCESS:    1479947  HIT:    1476877  MISS:       3070

CPU 1 cumulative IPC: 0.998112 instructions: 472245041 cycles: 473138569
L1D TOTAL     ACCESS:  146330014  HIT:  140885424  MISS:    5444590
L1D LOAD      ACCESS:  135033999  HIT:  130833155  MISS:    4200844
L1D RFO       ACCESS:   11296015  HIT:   10052269  MISS:    1243746
L1D PREFETCH  ACCESS:          0  HIT:          0  MISS:          0
L1D WRITEBACK ACCESS:          0  HIT:          0  MISS:          0
L1I TOTAL     ACCESS:  112078707  HIT:  112078475  MISS:        232
L1I LOAD      ACCESS:  112078707  HIT:  112078475  MISS:        232
L1I RFO       ACCESS:          0  HIT:          0  MISS:          0
L1I PREFETCH  ACCESS:          0  HIT:          0  MISS:          0
L1I WRITEBACK ACCESS:          0  HIT:          0  MISS:          0
L2C TOTAL     ACCESS:   12616689  HIT:    8612621  MISS:    4004068
L2C LOAD      ACCESS:    4201041  HIT:    3974780  MISS:     226261
L2C RFO       ACCESS:    1243200  HIT:     472063  MISS:     771137
L2C PREFETCH  ACCESS:    5521343  HIT:    2516318  MISS:    3005025
L2C WRITEBACK ACCESS:    1651105  HIT:    1649460  MISS:       1645

Avg Lookahead Depth:	2.98238
TOTAL: 4.02547e+07	L2C: 3.07772e+07	LLC: 9.47747e+06	GOOD_L2C: 1.84342e+07
Printing all the perceptron weights to: perc_weights_0.csv
LLC TOTAL     ACCESS:    5614603  HIT:    2475685  MISS:    3138918
LLC LOAD      ACCESS:     119518  HIT:      64589  MISS:      54929
LLC RFO       ACCESS:     771134  HIT:     113544  MISS:     657590
LLC PREFETCH  ACCESS:    3673220  HIT:    1250869  MISS:    2422351
LLC WRITEBACK ACCESS:    1050731  HIT:    1046683  MISS:       4048

CPU 2 cumulative IPC: 0.569125 instructions: 269274755 cycles: 473138569
L1D TOTAL     ACCESS:  158006506  HIT:  154964774  MISS:    3041732
L1D LOAD      ACCESS:  139376095  HIT:  136334612  MISS:    3041483
L1D RFO       ACCESS:   18630411  HIT:   18630162  MISS:        249
L1D PREFETCH  ACCESS:          0  HIT:          0  MISS:          0
L1D WRITEBACK ACCESS:          0  HIT:          0  MISS:          0
L1I TOTAL     ACCESS:   75702496  HIT:   75702320  MISS:        176
L1I LOAD      ACCESS:   75702496  HIT:   75702320  MISS:        176
L1I RFO       ACCESS:          0  HIT:          0  MISS:          0
L1I PREFETCH  ACCESS:          0  HIT:          0  MISS:          0
L1I WRITEBACK ACCESS:          0  HIT:          0  MISS:          0
L2C TOTAL     ACCESS:    7762218  HIT:    4651520  MISS:    3110698
L2C LOAD      ACCESS:    3041246  HIT:    2141385  MISS:     899861
L2C RFO       ACCESS:        201  HIT:        182  MISS:         19
L2C PREFETCH  ACCESS:    3311985  HIT:    1101249  MISS:    2210736
L2C WRITEBACK ACCESS:    1408786  HIT:    1408704  MISS:         82

Avg Lookahead Depth:	2.98238
TOTAL: 4.02547e+07	L2C: 3.07772e+07	LLC: 9.47747e+06	GOOD_L2C: 1.84342e+07
Printing all the perceptron weights to: perc_weights_0.csv
LLC TOTAL     ACCESS:    5841153  HIT:    2806658  MISS:    3034495
LLC LOAD      ACCESS:     810309  HIT:     233654  MISS:     576655
LLC RFO       ACCESS:         19  HIT:          5  MISS:         14
LLC PREFETCH  ACCESS:    3626791  HIT:    1169017  MISS:    2457774
LLC WRITEBACK ACCESS:    1404034  HIT:    1403982  MISS:         52

CPU 3 cumulative IPC: 0.87477 instructions: 413887527 cycles: 473138569
L1D TOTAL     ACCESS:   33437209  HIT:   13155041  MISS:   20282168
L1D LOAD      ACCESS:    7435285  HIT:    6659551  MISS:     775734
L1D RFO       ACCESS:   26001924  HIT:    6495490  MISS:   19506434
L1D PREFETCH  ACCESS:          0  HIT:          0  MISS:          0
L1D WRITEBACK ACCESS:          0  HIT:          0  MISS:          0
L1I TOTAL     ACCESS:  138494458  HIT:  138471471  MISS:      22987
L1I LOAD      ACCESS:  138494458  HIT:  138471471  MISS:      22987
L1I RFO       ACCESS:          0  HIT:          0  MISS:          0
L1I PREFETCH  ACCESS:          0  HIT:          0  MISS:          0
L1I WRITEBACK ACCESS:          0  HIT:          0  MISS:          0
L2C TOTAL     ACCESS:   40667011  HIT:   20508471  MISS:   20158540
L2C LOAD      ACCESS:     798720  HIT:     337505  MISS:     461215
L2C RFO       ACCESS:   19506434  HIT:     343296  MISS:   19163138
L2C PREFETCH  ACCESS:     694789  HIT:     160640  MISS:     534149
L2C WRITEBACK ACCESS:   19667068  HIT:   19667030  MISS:         38

Avg Lookahead Depth:	2.98238
TOTAL: 4.02547e+07	L2C: 3.07772e+07	LLC: 9.47747e+06	GOOD_L2C: 1.84342e+07
Printing all the perceptron weights to: perc_weights_0.csv
LLC TOTAL     ACCESS:   39762742  HIT:   38681570  MISS:    1081172
LLC LOAD      ACCESS:     435046  HIT:     224722  MISS:     210324
LLC RFO       ACCESS:   19160402  HIT:   18878669  MISS:     281733
LLC PREFETCH  ACCESS:     826630  HIT:     237527  MISS:     589103
LLC WRITEBACK ACCESS:   19340664  HIT:   19340652  MISS:         12

CPU 4 cumulative IPC: 0.28535 instructions: 135009888 cycles: 473138570
L1D TOTAL     ACCESS:   36414497  HIT:   32493991  MISS:    3920506
L1D LOAD      ACCESS:   30678210  HIT:   26809065  MISS:    3869145
L1D RFO       ACCESS:    5736287  HIT:    5684926  MISS:      51361
L1D PREFETCH  ACCESS:          0  HIT:          0  MISS:          0
L1D WRITEBACK ACCESS:          0  HIT:          0  MISS:          0
L1I TOTAL     ACCESS:   32981935  HIT:   32981828  MISS:        107
L1I LOAD      ACCESS:   32981935  HIT:   32981828  MISS:        107
L1I RFO       ACCESS:          0  HIT:          0  MISS:          0
L1I PREFETCH  ACCESS:          0  HIT:          0  MISS:          0
L1I WRITEBACK ACCESS:          0  HIT:          0  MISS:          0
L2C TOTAL     ACCESS:    6353909  HIT:    3267576  MISS:    3086333
L2C LOAD      ACCESS:    3869096  HIT:    1230923  MISS:    2638173
L2C RFO       ACCESS:      51351  HIT:      31963  MISS:      19388
L2C PREFETCH  ACCESS:    1156790  HIT:     730439  MISS:     426351
L2C WRITEBACK ACCESS:    1276672  HIT:    1274251  MISS:       2421

Avg Lookahead Depth:	2.98238
TOTAL: 4.02547e+07	L2C: 3.07772e+07	LLC: 9.47747e+06	GOOD_L2C: 1.84342e+07
Printing all the perceptron weights to: perc_weights_0.csv
LLC TOTAL     ACCESS:    4797352  HIT:    4199094  MISS:     598258
LLC LOAD      ACCESS:    2608124  HIT:    2440746  MISS:     167378
LLC RFO       ACCESS:      19385  HIT:      18829  MISS:        556
LLC PREFETCH  ACCESS:    1236104  HIT:     849197  MISS:     386907
LLC WRITEBACK ACCESS:     933739  HIT:     890322  MISS:      43417

CPU 5 cumulative IPC: 1.05757 instructions: 500377943 cycles: 473138570
L1D TOTAL     ACCESS:  150142017  HIT:  144558278  MISS:    5583739
L1D LOAD      ACCESS:  122779283  HIT:  118117772  MISS:    4661511
L1D RFO       ACCESS:   27362734  HIT:   26440506  MISS:     922228
L1D PREFETCH  ACCESS:          0  HIT:          0  MISS:          0
L1D WRITEBACK ACCESS:          0  HIT:          0  MISS:          0
L1I TOTAL     ACCESS:  120169557  HIT:  120168002  MISS:       1555
L1I LOAD      ACCESS:  120169557  HIT:  120168002  MISS:       1555
L1I RFO       ACCESS:          0  HIT:          0  MISS:          0
L1I PREFETCH  ACCESS:          0  HIT:          0  MISS:          0
L1I WRITEBACK ACCESS:          0  HIT:          0  MISS:          0
L2C TOTAL     ACCESS:   13046380  HIT:    9092915  MISS:    3953465
L2C LOAD      ACCESS:    4663047  HIT:    4281412  MISS:     381635
L2C RFO       ACCESS:     922228  HIT:     317840  MISS:     604388
L2C PREFETCH  ACCESS:    5684959  HIT:    2718127  MISS:    2966832
L2C WRITEBACK ACCESS:    1776146  HIT:    1775536  MISS:        610

Avg Lookahead Depth:	2.98238
TOTAL: 4.02547e+07	L2C: 3.07772e+07	LLC: 9.47747e+06	GOOD_L2C: 1.84342e+07
Printing all the perceptron weights to: perc_weights_0.csv
LLC TOTAL     ACCESS:    5590282  HIT:    2048733  MISS:    3541549
LLC LOAD      ACCESS:     218204  HIT:      54515  MISS:     163689
LLC RFO       ACCESS:     604273  HIT:      80420  MISS:     523853
LLC PREFETCH  ACCESS:    3557345  HIT:     708881  MISS:    2848464
LLC WRITEBACK ACCESS:    1210460  HIT:    1204917  MISS:       5543

CPU 6 cumulative IPC: 0.211355 instructions: 100000000 cycles: 473138570
L1D TOTAL     ACCESS:   20589678  HIT:   17793036  MISS:    2796642
L1D LOAD      ACCESS:   17203035  HIT:   14428497  MISS:    2774538
L1D RFO       ACCESS:    3386643  HIT:    3364539  MISS:      22104
L1D PREFETCH  ACCESS:          0  HIT:          0  MISS:          0
L1D WRITEBACK ACCESS:          0  HIT:          0  MISS:          0
L1I TOTAL     ACCESS:   32732681  HIT:   32598403  MISS:     134278
L1I LOAD      ACCESS:   32732681  HIT:   32598403  MISS:     134278
L1I RFO       ACCESS:          0  HIT:          0  MISS:          0
L1I PREFETCH  ACCESS:          0  HIT:          0  MISS:          0
L1I WRITEBACK ACCESS:          0  HIT:          0  MISS:          0
L2C TOTAL     ACCESS:    5060232  HIT:    1348407  MISS:    3711825
L2C LOAD      ACCESS:    2908811  HIT:     700172  MISS:    2208639
L2C RFO       ACCESS:      22103  HIT:       8486  MISS:      13617
L2C PREFETCH  ACCESS:    2080466  HIT:     592178  MISS:    1488288
L2C WRITEBACK ACCESS:      48852  HIT:      47571  MISS:       1281

Avg Lookahead Depth:	2.98238
TOTAL: 4.02547e+07	L2C: 3.07772e+07	LLC: 9.47747e+06	GOOD_L2C: 1.84342e+07
Printing all the perceptron weights to: perc_weights_0.csv
LLC TOTAL     ACCESS:    4678140  HIT:     637024  MISS:    4041116
LLC LOAD      ACCESS:    1905557  HIT:     269442  MISS:    1636115
LLC RFO       ACCESS:      13511  HIT:       1686  MISS:      11825
LLC PREFETCH  ACCESS:    2733999  HIT:     341082  MISS:    2392917
LLC WRITEBACK ACCESS:      25073  HIT:      24814  MISS:        259

CPU 7 cumulative IPC: 0.985972 instructions: 466501416 cycles: 473138570
L1D TOTAL     ACCESS:  140025976  HIT:  135399212  MISS:    4626764
L1D LOAD      ACCESS:  128852643  HIT:  125586947  MISS:    3265696
L1D RFO       ACCESS:   11173333  HIT:    9812265  MISS:    1361068
L1D PREFETCH  ACCESS:          0  HIT:          0  MISS:          0
L1D WRITEBACK ACCESS:          0  HIT:          0  MISS:          0
L1I TOTAL     ACCESS:  108539704  HIT:  108539254  MISS:        450
L1I LOAD      ACCESS:  108539704  HIT:  108539254  MISS:        450
L1I RFO       ACCESS:          0  HIT:          0  MISS:          0
L1I PREFETCH  ACCESS:          0  HIT:          0  MISS:          0
L1I WRITEBACK ACCESS:          0  HIT:          0  MISS:          0
L2C TOTAL     ACCESS:   10568554  HIT:    6901446  MISS:    3667108
L2C LOAD      ACCESS:    3266131  HIT:    3054100  MISS:     212031
L2C RFO       ACCESS:    1360977  HIT:     300867  MISS:    1060110
L2C PREFETCH  ACCESS:    4261421  HIT:    1867833  MISS:    2393588
L2C WRITEBACK ACCESS:    1680025  HIT:    1678646  MISS:       1379

Avg Lookahead Depth:	2.98238
TOTAL: 4.02547e+07	L2C: 3.07772e+07	LLC: 9.47747e+06	GOOD_L2C: 1.84342e+07
Printing all the perceptron weights to: perc_weights_0.csv
LLC TOTAL     ACCESS:    5476526  HIT:    1958218  MISS:    3518308
LLC LOAD      ACCESS:      91273  HIT:      26071  MISS:      65202
LLC RFO       ACCESS:    1060034  HIT:      44495  MISS:    1015539
LLC PREFETCH  ACCESS:    3089700  HIT:     654097  MISS:    2435603
LLC WRITEBACK ACCESS:    1235519  HIT:    1233555  MISS:       1964

Region of Interest Statistics

CPU 0 cumulative IPC: 1.08251 instructions: 100000003 cycles: 92378194
L1D TOTAL     ACCESS:   37596795  HIT:   36959107  MISS:     637688
L1D LOAD      ACCESS:   34938039  HIT:   34316174  MISS:     621865
L1D RFO       ACCESS:    2658756  HIT:    2642933  MISS:      15823
L1D PREFETCH  ACCESS:          0  HIT:          0  MISS:          0
L1D WRITEBACK ACCESS:          0  HIT:          0  MISS:          0
L1D PREFETCH  REQUESTED:          0  ISSUED:          0  USEFUL:          0  USELESS:          0
L1I TOTAL     ACCESS:   23268956  HIT:   23268807  MISS:        149
L1I LOAD      ACCESS:   23268956  HIT:   23268807  MISS:        149
L1I RFO       ACCESS:          0  HIT:          0  MISS:          0
L1I PREFETCH  ACCESS:          0  HIT:          0  MISS:          0
L1I WRITEBACK ACCESS:          0  HIT:          0  MISS:          0
L1I PREFETCH  REQUESTED:          0  ISSUED:          0  USEFUL:          0  USELESS:          0
L2C TOTAL     ACCESS:    1665414  HIT:    1182433  MISS:     482981
L2C LOAD      ACCESS:     622013  HIT:     599899  MISS:      22114
L2C RFO       ACCESS:      15823  HIT:      15596  MISS:        227
L2C PREFETCH  ACCESS:     857227  HIT:     396653  MISS:     460574
L2C WRITEBACK ACCESS:     170351  HIT:     170285  MISS:         66
L2C PREFETCH  REQUESTED:    6870088  ISSUED:    6869965  USEFUL:    3284924  USELESS:      71229
LLC TOTAL     ACCESS:     755744  HIT:     272334  MISS:     483410
LLC LOAD      ACCESS:      15055  HIT:       1614  MISS:      13441
LLC RFO       ACCESS:        227  HIT:        212  MISS:         15
LLC PREFETCH  ACCESS:     587875  HIT:     118349  MISS:     469526
LLC WRITEBACK ACCESS:     152587  HIT:     152159  MISS:        428
LLC PREFETCH  REQUESTED:          0  ISSUED:          0  USEFUL:     770800  USELESS:   17472333
Major fault: 0 Minor fault: 23961

CPU 1 cumulative IPC: 0.965968 instructions: 100000000 cycles: 103523126
L1D TOTAL     ACCESS:   31345207  HIT:   30539126  MISS:     806081
L1D LOAD      ACCESS:   30471570  HIT:   29949125  MISS:     522445
L1D RFO       ACCESS:     873637  HIT:     590001  MISS:     283636
L1D PREFETCH  ACCESS:          0  HIT:          0  MISS:          0
L1D WRITEBACK ACCESS:          0  HIT:          0  MISS:          0
L1D PREFETCH  REQUESTED:          0  ISSUED:          0  USEFUL:          0  USELESS:          0
L1I TOTAL     ACCESS:   23974625  HIT:   23974599  MISS:         26
L1I LOAD      ACCESS:   23974625  HIT:   23974599  MISS:         26
L1I RFO       ACCESS:          0  HIT:          0  MISS:          0
L1I PREFETCH  ACCESS:          0  HIT:          0  MISS:          0
L1I WRITEBACK ACCESS:          0  HIT:          0  MISS:          0
L1I PREFETCH  REQUESTED:          0  ISSUED:          0  USEFUL:          0  USELESS:          0
L2C TOTAL     ACCESS:    1710196  HIT:     902827  MISS:     807369
L2C LOAD      ACCESS:     522471  HIT:     493469  MISS:      29002
L2C RFO       ACCESS:     283636  HIT:          3  MISS:     283633
L2C PREFETCH  ACCESS:     620334  HIT:     125600  MISS:     494734
L2C WRITEBACK ACCESS:     283755  HIT:     283755  MISS:          0
L2C PREFETCH  REQUESTED:    6797874  ISSUED:    6795643  USEFUL:    3004915  USELESS:     124156
LLC TOTAL     ACCESS:    1187340  HIT:     380381  MISS:     806959
LLC LOAD      ACCESS:      12773  HIT:       1141  MISS:      11632
LLC RFO       ACCESS:     283633  HIT:         14  MISS:     283619
LLC PREFETCH  ACCESS:     606222  HIT:      94514  MISS:     511708
LLC WRITEBACK ACCESS:     284712  HIT:     284712  MISS:          0
LLC PREFETCH  REQUESTED:          0  ISSUED:          0  USEFUL:     770800  USELESS:   17472333
Major fault: 0 Minor fault: 14897

CPU 2 cumulative IPC: 0.466975 instructions: 100000003 cycles: 214144237
L1D TOTAL     ACCESS:   58779682  HIT:   57243507  MISS:    1536175
L1D LOAD      ACCESS:   51548895  HIT:   50012783  MISS:    1536112
L1D RFO       ACCESS:    7230787  HIT:    7230724  MISS:         63
L1D PREFETCH  ACCESS:          0  HIT:          0  MISS:          0
L1D WRITEBACK ACCESS:          0  HIT:          0  MISS:          0
L1D PREFETCH  REQUESTED:          0  ISSUED:          0  USEFUL:          0  USELESS:          0
L1I TOTAL     ACCESS:   28402707  HIT:   28402598  MISS:        109
L1I LOAD      ACCESS:   28402707  HIT:   28402598  MISS:        109
L1I RFO       ACCESS:          0  HIT:          0  MISS:          0
L1I PREFETCH  ACCESS:          0  HIT:          0  MISS:          0
L1I WRITEBACK ACCESS:          0  HIT:          0  MISS:          0
L1I PREFETCH  REQUESTED:          0  ISSUED:          0  USEFUL:          0  USELESS:          0
L2C TOTAL     ACCESS:    3535829  HIT:    1872283  MISS:    1663546
L2C LOAD      ACCESS:    1536084  HIT:     908577  MISS:     627507
L2C RFO       ACCESS:         46  HIT:         35  MISS:         11
L2C PREFETCH  ACCESS:    1294328  HIT:     258358  MISS:    1035970
L2C WRITEBACK ACCESS:     705371  HIT:     705313  MISS:         58
L2C PREFETCH  REQUESTED:    5086830  ISSUED:    5086830  USEFUL:    1894450  USELESS:     475298
LLC TOTAL     ACCESS:    2999356  HIT:    1320147  MISS:    1679209
LLC LOAD      ACCESS:     551069  HIT:     123337  MISS:     427732
LLC RFO       ACCESS:         11  HIT:          3  MISS:          8
LLC PREFETCH  ACCESS:    1744207  HIT:     492766  MISS:    1251441
LLC WRITEBACK ACCESS:     704069  HIT:     704041  MISS:         28
LLC PREFETCH  REQUESTED:          0  ISSUED:          0  USEFUL:     770800  USELESS:   17472333
Major fault: 0 Minor fault: 161764

CPU 3 cumulative IPC: 1.0447 instructions: 100000000 cycles: 95721475
L1D TOTAL     ACCESS:    6717235  HIT:    1709783  MISS:    5007452
L1D LOAD      ACCESS:     795031  HIT:     733981  MISS:      61050
L1D RFO       ACCESS:    5922204  HIT:     975802  MISS:    4946402
L1D PREFETCH  ACCESS:          0  HIT:          0  MISS:          0
L1D WRITEBACK ACCESS:          0  HIT:          0  MISS:          0
L1D PREFETCH  REQUESTED:          0  ISSUED:          0  USEFUL:          0  USELESS:          0
L1I TOTAL     ACCESS:   33939016  HIT:   33934141  MISS:       4875
L1I LOAD      ACCESS:   33939016  HIT:   33934141  MISS:       4875
L1I RFO       ACCESS:          0  HIT:          0  MISS:          0
L1I PREFETCH  ACCESS:          0  HIT:          0  MISS:          0
L1I WRITEBACK ACCESS:          0  HIT:          0  MISS:          0
L1I PREFETCH  REQUESTED:          0  ISSUED:          0  USEFUL:          0  USELESS:          0
L2C TOTAL     ACCESS:   10010203  HIT:    5071322  MISS:    4938881
L2C LOAD      ACCESS:      65925  HIT:       9561  MISS:      56364
L2C RFO       ACCESS:    4946403  HIT:      89609  MISS:    4856794
L2C PREFETCH  ACCESS:      34524  HIT:       8801  MISS:      25723
L2C WRITEBACK ACCESS:    4963351  HIT:    4963351  MISS:          0
L2C PREFETCH  REQUESTED:    1063095  ISSUED:    1063095  USEFUL:     334654  USELESS:     205794
LLC TOTAL     ACCESS:    9839580  HIT:    9810994  MISS:      28586
LLC LOAD      ACCESS:      55415  HIT:      46528  MISS:       8887
LLC RFO       ACCESS:    4856755  HIT:    4855384  MISS:       1371
LLC PREFETCH  ACCESS:      53604  HIT:      35276  MISS:      18328
LLC WRITEBACK ACCESS:    4873806  HIT:    4873806  MISS:          0
LLC PREFETCH  REQUESTED:          0  ISSUED:          0  USEFUL:     770800  USELESS:   17472333
Major fault: 0 Minor fault: 13154

CPU 4 cumulative IPC: 0.280062 instructions: 100000000 cycles: 357064071
L1D TOTAL     ACCESS:   27028905  HIT:   24117293  MISS:    2911612
L1D LOAD      ACCESS:   22784733  HIT:   19911809  MISS:    2872924
L1D RFO       ACCESS:    4244172  HIT:    4205484  MISS:      38688
L1D PREFETCH  ACCESS:          0  HIT:          0  MISS:          0
L1D WRITEBACK ACCESS:          0  HIT:          0  MISS:          0
L1D PREFETCH  REQUESTED:          0  ISSUED:          0  USEFUL:          0  USELESS:          0
L1I TOTAL     ACCESS:   24433142  HIT:   24433037  MISS:        105
L1I LOAD      ACCESS:   24433142  HIT:   24433037  MISS:        105
L1I RFO       ACCESS:          0  HIT:          0  MISS:          0
L1I PREFETCH  ACCESS:          0  HIT:          0  MISS:          0
L1I WRITEBACK ACCESS:          0  HIT:          0  MISS:          0
L1I PREFETCH  REQUESTED:          0  ISSUED:          0  USEFUL:          0  USELESS:          0
L2C TOTAL     ACCESS:    4629263  HIT:    2385605  MISS:    2243658
L2C LOAD      ACCESS:    2872927  HIT:     918322  MISS:    1954605
L2C RFO       ACCESS:      38680  HIT:      24225  MISS:      14455
L2C PREFETCH  ACCESS:     770015  HIT:     497077  MISS:     272938
L2C WRITEBACK ACCESS:     947641  HIT:     945981  MISS:       1660
L2C PREFETCH  REQUESTED:    2387166  ISSUED:    2387166  USEFUL:     150064  USELESS:     368328
LLC TOTAL     ACCESS:    3463882  HIT:    3016639  MISS:     447243
LLC LOAD      ACCESS:    1927921  HIT:    1795171  MISS:     132750
LLC RFO       ACCESS:      14452  HIT:      14074  MISS:        378
LLC PREFETCH  ACCESS:     833856  HIT:     553307  MISS:     280549
LLC WRITEBACK ACCESS:     687653  HIT:     654087  MISS:      33566
LLC PREFETCH  REQUESTED:          0  ISSUED:          0  USEFUL:     770800  USELESS:   17472333
Major fault: 0 Minor fault: 5933

CPU 5 cumulative IPC: 1.13132 instructions: 100000001 cycles: 88392455
L1D TOTAL     ACCESS:   27094317  HIT:   25971492  MISS:    1122825
L1D LOAD      ACCESS:   23283568  HIT:   22478378  MISS:     805190
L1D RFO       ACCESS:    3810749  HIT:    3493114  MISS:     317635
L1D PREFETCH  ACCESS:          0  HIT:          0  MISS:          0
L1D WRITEBACK ACCESS:          0  HIT:          0  MISS:          0
L1D PREFETCH  REQUESTED:          0  ISSUED:          0  USEFUL:          0  USELESS:          0
L1I TOTAL     ACCESS:   22919115  HIT:   22918688  MISS:        427
L1I LOAD      ACCESS:   22919115  HIT:   22918688  MISS:        427
L1I RFO       ACCESS:          0  HIT:          0  MISS:          0
L1I PREFETCH  ACCESS:          0  HIT:          0  MISS:          0
L1I WRITEBACK ACCESS:          0  HIT:          0  MISS:          0
L1I PREFETCH  REQUESTED:          0  ISSUED:          0  USEFUL:          0  USELESS:          0
L2C TOTAL     ACCESS:    2498565  HIT:    1579265  MISS:     919300
L2C LOAD      ACCESS:     805617  HIT:     725795  MISS:      79822
L2C RFO       ACCESS:     317635  HIT:      35429  MISS:     282206
L2C PREFETCH  ACCESS:     898916  HIT:     341694  MISS:     557222
L2C WRITEBACK ACCESS:     476397  HIT:     476347  MISS:         50
L2C PREFETCH  REQUESTED:    6934885  ISSUED:    6934794  USEFUL:    3200661  USELESS:      79923
LLC TOTAL     ACCESS:    1392942  HIT:     488398  MISS:     904544
LLC LOAD      ACCESS:      32687  HIT:       5752  MISS:      26935
LLC RFO       ACCESS:     282150  HIT:       5285  MISS:     276865
LLC PREFETCH  ACCESS:     677313  HIT:      77090  MISS:     600223
LLC WRITEBACK ACCESS:     400792  HIT:     400271  MISS:        521
LLC PREFETCH  REQUESTED:          0  ISSUED:          0  USEFUL:     770800  USELESS:   17472333
Major fault: 0 Minor fault: 20401

CPU 6 cumulative IPC: 0.211355 instructions: 100000000 cycles: 473138570
L1D TOTAL     ACCESS:   20589678  HIT:   17793036  MISS:    2796642
L1D LOAD      ACCESS:   17203035  HIT:   14428497  MISS:    2774538
L1D RFO       ACCESS:    3386643  HIT:    3364539  MISS:      22104
L1D PREFETCH  ACCESS:          0  HIT:          0  MISS:          0
L1D WRITEBACK ACCESS:          0  HIT:          0  MISS:          0
L1D PREFETCH  REQUESTED:          0  ISSUED:          0  USEFUL:          0  USELESS:          0
L1I TOTAL     ACCESS:   32732681  HIT:   32598403  MISS:     134278
L1I LOAD      ACCESS:   32732681  HIT:   32598403  MISS:     134278
L1I RFO       ACCESS:          0  HIT:          0  MISS:          0
L1I PREFETCH  ACCESS:          0  HIT:          0  MISS:          0
L1I WRITEBACK ACCESS:          0  HIT:          0  MISS:          0
L1I PREFETCH  REQUESTED:          0  ISSUED:          0  USEFUL:          0  USELESS:          0
L2C TOTAL     ACCESS:    5060232  HIT:    1348407  MISS:    3711825
L2C LOAD      ACCESS:    2908811  HIT:     700172  MISS:    2208639
L2C RFO       ACCESS:      22103  HIT:       8486  MISS:      13617
L2C PREFETCH  ACCESS:    2080466  HIT:     592178  MISS:    1488288
L2C WRITEBACK ACCESS:      48852  HIT:      47571  MISS:       1281
L2C PREFETCH  REQUESTED:    5317093  ISSUED:    5316518  USEFUL:     938439  USELESS:    1239602
LLC TOTAL     ACCESS:    4678140  HIT:     637024  MISS:    4041116
LLC LOAD      ACCESS:    1905557  HIT:     269442  MISS:    1636115
LLC RFO       ACCESS:      13511  HIT:       1686  MISS:      11825
LLC PREFETCH  ACCESS:    2733999  HIT:     341082  MISS:    2392917
LLC WRITEBACK ACCESS:      25073  HIT:      24814  MISS:        259
LLC PREFETCH  REQUESTED:          0  ISSUED:          0  USEFUL:     770800  USELESS:   17472333
Major fault: 0 Minor fault: 21591

CPU 7 cumulative IPC: 0.874872 instructions: 100000000 cycles: 114302373
L1D TOTAL     ACCESS:   28491961  HIT:   27225944  MISS:    1266017
L1D LOAD      ACCESS:   24503560  HIT:   23599163  MISS:     904397
L1D RFO       ACCESS:    3988401  HIT:    3626781  MISS:     361620
L1D PREFETCH  ACCESS:          0  HIT:          0  MISS:          0
L1D WRITEBACK ACCESS:          0  HIT:          0  MISS:          0
L1D PREFETCH  REQUESTED:          0  ISSUED:          0  USEFUL:          0  USELESS:          0
L1I TOTAL     ACCESS:   22013569  HIT:   22013283  MISS:        286
L1I LOAD      ACCESS:   22013569  HIT:   22013283  MISS:        286
L1I RFO       ACCESS:          0  HIT:          0  MISS:          0
L1I PREFETCH  ACCESS:          0  HIT:          0  MISS:          0
L1I WRITEBACK ACCESS:          0  HIT:          0  MISS:          0
L1I PREFETCH  REQUESTED:          0  ISSUED:          0  USEFUL:          0  USELESS:          0
L2C TOTAL     ACCESS:    2887979  HIT:    1763326  MISS:    1124653
L2C LOAD      ACCESS:     904683  HIT:     779673  MISS:     125010
L2C RFO       ACCESS:     361550  HIT:      52498  MISS:     309052
L2C PREFETCH  ACCESS:    1082139  HIT:     392391  MISS:     689748
L2C WRITEBACK ACCESS:     539607  HIT:     538764  MISS:        843
L2C PREFETCH  REQUESTED:    5797675  ISSUED:    5796591  USEFUL:    2548197  USELESS:      66518
LLC TOTAL     ACCESS:    1780968  HIT:     797140  MISS:     983828
LLC LOAD      ACCESS:      48235  HIT:      22447  MISS:      25788
LLC RFO       ACCESS:     308979  HIT:      43917  MISS:     265062
LLC PREFETCH  ACCESS:     941820  HIT:     249392  MISS:     692428
LLC WRITEBACK ACCESS:     481934  HIT:     481384  MISS:        550
LLC PREFETCH  REQUESTED:          0  ISSUED:          0  USEFUL:     770800  USELESS:   17472333
Major fault: 0 Minor fault: 19121

Avg Lookahead Depth:	2.98238
TOTAL: 4.02547e+07	L2C: 3.07772e+07	LLC: 9.47747e+06	GOOD_L2C: 1.84342e+07
Printing all the perceptron weights to: perc_weights_0.csv

Avg Lookahead Depth:	2.98238
TOTAL: 4.02547e+07	L2C: 3.07772e+07	LLC: 9.47747e+06	GOOD_L2C: 1.84342e+07
Printing all the perceptron weights to: perc_weights_0.csv

Avg Lookahead Depth:	2.98238
TOTAL: 4.02547e+07	L2C: 3.07772e+07	LLC: 9.47747e+06	GOOD_L2C: 1.84342e+07
Printing all the perceptron weights to: perc_weights_0.csv

Avg Lookahead Depth:	2.98238
TOTAL: 4.02547e+07	L2C: 3.07772e+07	LLC: 9.47747e+06	GOOD_L2C: 1.84342e+07
Printing all the perceptron weights to: perc_weights_0.csv

Avg Lookahead Depth:	2.98238
TOTAL: 4.02547e+07	L2C: 3.07772e+07	LLC: 9.47747e+06	GOOD_L2C: 1.84342e+07
Printing all the perceptron weights to: perc_weights_0.csv

Avg Lookahead Depth:	2.98238
TOTAL: 4.02547e+07	L2C: 3.07772e+07	LLC: 9.47747e+06	GOOD_L2C: 1.84342e+07
Printing all the perceptron weights to: perc_weights_0.csv

Avg Lookahead Depth:	2.98238
TOTAL: 4.02547e+07	L2C: 3.07772e+07	LLC: 9.47747e+06	GOOD_L2C: 1.84342e+07
Printing all the perceptron weights to: perc_weights_0.csv

Avg Lookahead Depth:	2.98238
TOTAL: 4.02547e+07	L2C: 3.07772e+07	LLC: 9.47747e+06	GOOD_L2C: 1.84342e+07
Printing all the perceptron weights to: perc_weights_0.csv

DRAM Statistics
 CHANNEL 0
 RQ ROW_BUFFER_HIT:    3047023  ROW_BUFFER_MISS:    8356392
 DBUS_CONGESTED:   20482818
 WQ ROW_BUFFER_HIT:     237561  ROW_BUFFER_MISS:    3074829  FULL:          0

 CHANNEL 1
 RQ ROW_BUFFER_HIT:    3039155  ROW_BUFFER_MISS:    8367309
 DBUS_CONGESTED:   20482818
 WQ ROW_BUFFER_HIT:     238361  ROW_BUFFER_MISS:    3073051  FULL:          0

 AVG_CONGESTED_CYCLE: 13
