Initialize SIGNATURE TABLE
ST_SET: 1
ST_WAY: 256
ST_TAG_BIT: 16
ST_TAG_MASK: ffff

Initialize PATTERN TABLE
PT_SET: 512
PT_WAY: 4
SIG_DELTA_BIT: 7
C_SIG_BIT: 4
C_DELTA_BIT: 4

Initialize PREFETCH FILTER
FILTER_SET: 1024

Initialize PERCEPTRON
PERC_ENTRIES: 4096
PERC_FEATURES: 9

*** ChampSim Multicore Out-of-Order Simulator ***

Warmup Instructions: 20000000
Simulation Instructions: 100000000
Number of CPUs: 8
LLC sets: 16384
LLC ways: 16
Off-chip DRAM Size: 8192 MB Channels: 2 Width: 64-bit Data Rate: 1600 MT/s

CPU 0 runs /scratch/user/djimenez/champsim-traces/speccpu2006/xz/473.astar-153B.champsimtrace.xz
CPU 1 runs /scratch/user/djimenez/champsim-traces/speccpu2006/xz/482.sphinx3-1395B.champsimtrace.xz
CPU 2 runs /scratch/user/djimenez/champsim-traces/speccpu2006/xz/462.libquantum-1343B.champsimtrace.xz
CPU 3 runs /scratch/user/djimenez/champsim-traces/speccpu2006/xz/437.leslie3d-273B.champsimtrace.xz
CPU 4 runs /scratch/user/djimenez/champsim-traces/speccpu2006/xz/481.wrf-1170B.champsimtrace.xz
CPU 5 runs /scratch/user/djimenez/champsim-traces/speccpu2006/xz/459.GemsFDTD-765B.champsimtrace.xz
CPU 6 runs /scratch/user/djimenez/champsim-traces/speccpu2006/xz/450.soplex-247B.champsimtrace.xz
CPU 7 runs /scratch/user/djimenez/champsim-traces/speccpu2006/xz/459.GemsFDTD-1418B.champsimtrace.xz
Heartbeat CPU 1 instructions: 10000001 cycles: 3944585 heartbeat IPC: 2.53512 cumulative IPC: 2.53512 (Simulation time: 0 hr 2 min 40 sec) 
Heartbeat CPU 3 instructions: 10000002 cycles: 4933632 heartbeat IPC: 2.0269 cumulative IPC: 2.0269 (Simulation time: 0 hr 3 min 22 sec) 
Heartbeat CPU 2 instructions: 10000002 cycles: 5183417 heartbeat IPC: 1.92923 cumulative IPC: 1.92923 (Simulation time: 0 hr 3 min 33 sec) 
Heartbeat CPU 0 instructions: 10000002 cycles: 5811345 heartbeat IPC: 1.72077 cumulative IPC: 1.72077 (Simulation time: 0 hr 3 min 59 sec) 
Heartbeat CPU 6 instructions: 10000000 cycles: 5987493 heartbeat IPC: 1.67015 cumulative IPC: 1.67015 (Simulation time: 0 hr 4 min 6 sec) 
Heartbeat CPU 4 instructions: 10000001 cycles: 6135379 heartbeat IPC: 1.62989 cumulative IPC: 1.62989 (Simulation time: 0 hr 4 min 12 sec) 
Heartbeat CPU 7 instructions: 10000003 cycles: 7881106 heartbeat IPC: 1.26886 cumulative IPC: 1.26886 (Simulation time: 0 hr 5 min 24 sec) 
Heartbeat CPU 1 instructions: 20000000 cycles: 7941642 heartbeat IPC: 2.50184 cumulative IPC: 2.51837 (Simulation time: 0 hr 5 min 27 sec) 
Heartbeat CPU 5 instructions: 10000001 cycles: 8131526 heartbeat IPC: 1.22978 cumulative IPC: 1.22978 (Simulation time: 0 hr 5 min 35 sec) 
Heartbeat CPU 3 instructions: 20000000 cycles: 9810590 heartbeat IPC: 2.05046 cumulative IPC: 2.03861 (Simulation time: 0 hr 6 min 44 sec) 
Heartbeat CPU 2 instructions: 20000000 cycles: 10328490 heartbeat IPC: 1.94361 cumulative IPC: 1.93639 (Simulation time: 0 hr 7 min 6 sec) 
Heartbeat CPU 6 instructions: 20000000 cycles: 11028339 heartbeat IPC: 1.98379 cumulative IPC: 1.81351 (Simulation time: 0 hr 7 min 36 sec) 
Heartbeat CPU 0 instructions: 20000000 cycles: 11601871 heartbeat IPC: 1.72696 cumulative IPC: 1.72386 (Simulation time: 0 hr 8 min 1 sec) 
Heartbeat CPU 1 instructions: 30000000 cycles: 11793468 heartbeat IPC: 2.59617 cumulative IPC: 0.847927 (Simulation time: 0 hr 8 min 9 sec) 
Heartbeat CPU 4 instructions: 20000000 cycles: 12264823 heartbeat IPC: 1.63147 cumulative IPC: 1.63068 (Simulation time: 0 hr 8 min 28 sec) 
Heartbeat CPU 3 instructions: 30000002 cycles: 14845711 heartbeat IPC: 1.98605 cumulative IPC: 0.673595 (Simulation time: 0 hr 10 min 17 sec) 
Heartbeat CPU 2 instructions: 30000000 cycles: 15575769 heartbeat IPC: 1.90575 cumulative IPC: 0.642023 (Simulation time: 0 hr 10 min 48 sec) 
Heartbeat CPU 1 instructions: 40000000 cycles: 15607497 heartbeat IPC: 2.6219 cumulative IPC: 1.28144 (Simulation time: 0 hr 10 min 50 sec) 
Heartbeat CPU 7 instructions: 20000000 cycles: 15761133 heartbeat IPC: 1.26903 cumulative IPC: 1.26894 (Simulation time: 0 hr 10 min 56 sec) 
Heartbeat CPU 6 instructions: 30000001 cycles: 16036741 heartbeat IPC: 1.99665 cumulative IPC: 0.623568 (Simulation time: 0 hr 11 min 9 sec) 
Heartbeat CPU 5 instructions: 20000000 cycles: 16262695 heartbeat IPC: 1.22984 cumulative IPC: 1.22981 (Simulation time: 0 hr 11 min 18 sec) 

Warmup complete CPU 0 instructions: 28056533 cycles: 16262696 (Simulation time: 0 hr 11 min 18 sec) 
Warmup complete CPU 1 instructions: 41856258 cycles: 16262696 (Simulation time: 0 hr 11 min 18 sec) 
Warmup complete CPU 2 instructions: 31283166 cycles: 16262696 (Simulation time: 0 hr 11 min 18 sec) 
Warmup complete CPU 3 instructions: 32814410 cycles: 16262696 (Simulation time: 0 hr 11 min 18 sec) 
Warmup complete CPU 4 instructions: 26523482 cycles: 16262696 (Simulation time: 0 hr 11 min 18 sec) 
Warmup complete CPU 5 instructions: 20000001 cycles: 16262696 (Simulation time: 0 hr 11 min 18 sec) 
Warmup complete CPU 6 instructions: 30437519 cycles: 16262695 (Simulation time: 0 hr 11 min 18 sec) 
Warmup complete CPU 7 instructions: 20636580 cycles: 16262695 (Simulation time: 0 hr 11 min 18 sec) 

Heartbeat CPU 0 instructions: 30000000 cycles: 20506594 heartbeat IPC: 1.123 cumulative IPC: 0.457944 (Simulation time: 0 hr 12 min 54 sec) 
Heartbeat CPU 4 instructions: 30000003 cycles: 21605569 heartbeat IPC: 1.07058 cumulative IPC: 0.650684 (Simulation time: 0 hr 13 min 17 sec) 
Heartbeat CPU 3 instructions: 40000000 cycles: 23209849 heartbeat IPC: 1.19558 cumulative IPC: 1.03432 (Simulation time: 0 hr 13 min 53 sec) 
Heartbeat CPU 1 instructions: 50000000 cycles: 24695734 heartbeat IPC: 1.10032 cumulative IPC: 0.965695 (Simulation time: 0 hr 14 min 26 sec) 
Heartbeat CPU 7 instructions: 30000002 cycles: 29243434 heartbeat IPC: 0.741713 cumulative IPC: 0.721332 (Simulation time: 0 hr 16 min 8 sec) 
Heartbeat CPU 3 instructions: 50000003 cycles: 32901641 heartbeat IPC: 1.0318 cumulative IPC: 1.03285 (Simulation time: 0 hr 17 min 30 sec) 
Heartbeat CPU 5 instructions: 30000001 cycles: 33309063 heartbeat IPC: 0.586635 cumulative IPC: 0.586635 (Simulation time: 0 hr 17 min 40 sec) 
Heartbeat CPU 1 instructions: 60000000 cycles: 33528169 heartbeat IPC: 1.13219 cumulative IPC: 1.05087 (Simulation time: 0 hr 17 min 44 sec) 
Heartbeat CPU 4 instructions: 40000000 cycles: 37102064 heartbeat IPC: 0.645307 cumulative IPC: 0.646686 (Simulation time: 0 hr 19 min 2 sec) 
Heartbeat CPU 2 instructions: 40000000 cycles: 37532257 heartbeat IPC: 0.455446 cumulative IPC: 0.409827 (Simulation time: 0 hr 19 min 11 sec) 
Heartbeat CPU 6 instructions: 40000000 cycles: 39935775 heartbeat IPC: 0.418427 cumulative IPC: 0.403939 (Simulation time: 0 hr 20 min 2 sec) 
Heartbeat CPU 3 instructions: 60000000 cycles: 42587950 heartbeat IPC: 1.03238 cumulative IPC: 1.03268 (Simulation time: 0 hr 21 min 1 sec) 
Heartbeat CPU 0 instructions: 40000000 cycles: 43033177 heartbeat IPC: 0.44392 cumulative IPC: 0.446143 (Simulation time: 0 hr 21 min 12 sec) 
Heartbeat CPU 1 instructions: 70000000 cycles: 43100375 heartbeat IPC: 1.04469 cumulative IPC: 1.04867 (Simulation time: 0 hr 21 min 13 sec) 
Heartbeat CPU 7 instructions: 40000000 cycles: 43247237 heartbeat IPC: 0.714092 cumulative IPC: 0.717575 (Simulation time: 0 hr 21 min 17 sec) 
Heartbeat CPU 5 instructions: 40000000 cycles: 50396611 heartbeat IPC: 0.585221 cumulative IPC: 0.585927 (Simulation time: 0 hr 23 min 53 sec) 
Heartbeat CPU 3 instructions: 70000000 cycles: 52293044 heartbeat IPC: 1.03039 cumulative IPC: 1.03206 (Simulation time: 0 hr 24 min 34 sec) 
Heartbeat CPU 4 instructions: 50000001 cycles: 52536402 heartbeat IPC: 0.647906 cumulative IPC: 0.647205 (Simulation time: 0 hr 24 min 39 sec) 
Heartbeat CPU 1 instructions: 80000000 cycles: 53828062 heartbeat IPC: 0.932167 cumulative IPC: 1.0154 (Simulation time: 0 hr 25 min 6 sec) 
Heartbeat CPU 7 instructions: 50000002 cycles: 57445012 heartbeat IPC: 0.704336 cumulative IPC: 0.71301 (Simulation time: 0 hr 26 min 26 sec) 
Heartbeat CPU 2 instructions: 50000001 cycles: 60828114 heartbeat IPC: 0.429261 cumulative IPC: 0.419986 (Simulation time: 0 hr 27 min 42 sec) 
Heartbeat CPU 3 instructions: 80000000 cycles: 62066777 heartbeat IPC: 1.02315 cumulative IPC: 1.03016 (Simulation time: 0 hr 28 min 11 sec) 
Heartbeat CPU 1 instructions: 90000000 cycles: 63084815 heartbeat IPC: 1.08029 cumulative IPC: 1.02823 (Simulation time: 0 hr 28 min 34 sec) 
Heartbeat CPU 0 instructions: 50000000 cycles: 66225226 heartbeat IPC: 0.431182 cumulative IPC: 0.439198 (Simulation time: 0 hr 29 min 41 sec) 
Heartbeat CPU 6 instructions: 50000001 cycles: 66975271 heartbeat IPC: 0.369829 cumulative IPC: 0.385752 (Simulation time: 0 hr 29 min 57 sec) 
Heartbeat CPU 4 instructions: 60000000 cycles: 68137637 heartbeat IPC: 0.640975 cumulative IPC: 0.645331 (Simulation time: 0 hr 30 min 23 sec) 
Heartbeat CPU 1 instructions: 100000000 cycles: 70036343 heartbeat IPC: 1.43853 cumulative IPC: 1.08127 (Simulation time: 0 hr 31 min 3 sec) 
Heartbeat CPU 3 instructions: 90000002 cycles: 71327042 heartbeat IPC: 1.07988 cumulative IPC: 1.03852 (Simulation time: 0 hr 31 min 29 sec) 
Heartbeat CPU 7 instructions: 60000000 cycles: 71637431 heartbeat IPC: 0.704601 cumulative IPC: 0.710855 (Simulation time: 0 hr 31 min 35 sec) 
Heartbeat CPU 3 instructions: 100000000 cycles: 80565148 heartbeat IPC: 1.08247 cumulative IPC: 1.04484 (Simulation time: 0 hr 34 min 29 sec) 
Heartbeat CPU 1 instructions: 110000000 cycles: 81900334 heartbeat IPC: 0.842887 cumulative IPC: 1.03818 (Simulation time: 0 hr 34 min 54 sec) 
Heartbeat CPU 4 instructions: 70000000 cycles: 83833346 heartbeat IPC: 0.637117 cumulative IPC: 0.643423 (Simulation time: 0 hr 35 min 35 sec) 
Heartbeat CPU 5 instructions: 50000000 cycles: 85239503 heartbeat IPC: 0.287003 cumulative IPC: 0.434929 (Simulation time: 0 hr 36 min 1 sec) 
Heartbeat CPU 7 instructions: 70000001 cycles: 86030526 heartbeat IPC: 0.694778 cumulative IPC: 0.707538 (Simulation time: 0 hr 36 min 17 sec) 
Heartbeat CPU 2 instructions: 60000000 cycles: 86511108 heartbeat IPC: 0.389363 cumulative IPC: 0.40879 (Simulation time: 0 hr 36 min 27 sec) 
Heartbeat CPU 0 instructions: 60000000 cycles: 88932273 heartbeat IPC: 0.440392 cumulative IPC: 0.439571 (Simulation time: 0 hr 37 min 16 sec) 
Heartbeat CPU 3 instructions: 110000002 cycles: 90444795 heartbeat IPC: 1.01218 cumulative IPC: 1.04049 (Simulation time: 0 hr 37 min 45 sec) 
Heartbeat CPU 1 instructions: 120000000 cycles: 93153575 heartbeat IPC: 0.888633 cumulative IPC: 1.01629 (Simulation time: 0 hr 38 min 39 sec) 
Heartbeat CPU 6 instructions: 60000000 cycles: 96607161 heartbeat IPC: 0.337474 cumulative IPC: 0.367947 (Simulation time: 0 hr 39 min 55 sec) 
Heartbeat CPU 4 instructions: 80000000 cycles: 99322674 heartbeat IPC: 0.645606 cumulative IPC: 0.64383 (Simulation time: 0 hr 40 min 52 sec) 
Heartbeat CPU 7 instructions: 80000000 cycles: 100239450 heartbeat IPC: 0.703783 cumulative IPC: 0.706903 (Simulation time: 0 hr 41 min 10 sec) 
Heartbeat CPU 1 instructions: 130000001 cycles: 100419618 heartbeat IPC: 1.37627 cumulative IPC: 1.04737 (Simulation time: 0 hr 41 min 13 sec) 
Heartbeat CPU 3 instructions: 120000000 cycles: 102571248 heartbeat IPC: 0.824643 cumulative IPC: 1.01016 (Simulation time: 0 hr 42 min 0 sec) 
Heartbeat CPU 2 instructions: 70000003 cycles: 104210162 heartbeat IPC: 0.565002 cumulative IPC: 0.440227 (Simulation time: 0 hr 42 min 36 sec) 
Heartbeat CPU 1 instructions: 140000000 cycles: 107062667 heartbeat IPC: 1.50533 cumulative IPC: 1.08088 (Simulation time: 0 hr 43 min 39 sec) 
Finished CPU 1 instructions: 100000000 cycles: 92274239 cumulative IPC: 1.08373 (Simulation time: 0 hr 44 min 10 sec) 
Heartbeat CPU 0 instructions: 70000000 cycles: 108996150 heartbeat IPC: 0.498408 cumulative IPC: 0.452301 (Simulation time: 0 hr 44 min 20 sec) 
Heartbeat CPU 7 instructions: 90000003 cycles: 114340708 heartbeat IPC: 0.709157 cumulative IPC: 0.707227 (Simulation time: 0 hr 46 min 15 sec) 
Heartbeat CPU 1 instructions: 150000000 cycles: 114434569 heartbeat IPC: 1.3565 cumulative IPC: 1.10158 (Simulation time: 0 hr 46 min 17 sec) 
Heartbeat CPU 3 instructions: 130000003 cycles: 114768855 heartbeat IPC: 0.819833 cumulative IPC: 0.986594 (Simulation time: 0 hr 46 min 24 sec) 
Heartbeat CPU 4 instructions: 90000001 cycles: 114809757 heartbeat IPC: 0.645699 cumulative IPC: 0.644124 (Simulation time: 0 hr 46 min 25 sec) 
Finished CPU 3 instructions: 100000003 cycles: 101892414 cumulative IPC: 0.981427 (Simulation time: 0 hr 47 min 37 sec) 
Heartbeat CPU 2 instructions: 80000000 cycles: 120739872 heartbeat IPC: 0.604971 cumulative IPC: 0.466292 (Simulation time: 0 hr 48 min 36 sec) 
Heartbeat CPU 1 instructions: 160000000 cycles: 120996461 heartbeat IPC: 1.52395 cumulative IPC: 1.12804 (Simulation time: 0 hr 48 min 41 sec) 
Heartbeat CPU 6 instructions: 70000000 cycles: 122916344 heartbeat IPC: 0.380095 cumulative IPC: 0.370944 (Simulation time: 0 hr 49 min 22 sec) 
Heartbeat CPU 3 instructions: 140000000 cycles: 126804487 heartbeat IPC: 0.830866 cumulative IPC: 0.969639 (Simulation time: 0 hr 50 min 47 sec) 
Heartbeat CPU 1 instructions: 170000003 cycles: 127801028 heartbeat IPC: 1.4696 cumulative IPC: 1.14888 (Simulation time: 0 hr 51 min 9 sec) 
Heartbeat CPU 0 instructions: 80000000 cycles: 128118099 heartbeat IPC: 0.522959 cumulative IPC: 0.464381 (Simulation time: 0 hr 51 min 17 sec) 
Heartbeat CPU 7 instructions: 100000000 cycles: 128414755 heartbeat IPC: 0.710527 cumulative IPC: 0.707641 (Simulation time: 0 hr 51 min 25 sec) 
Heartbeat CPU 4 instructions: 100000000 cycles: 130206875 heartbeat IPC: 0.649472 cumulative IPC: 0.644847 (Simulation time: 0 hr 52 min 8 sec) 
Heartbeat CPU 5 instructions: 60000000 cycles: 132229721 heartbeat IPC: 0.21281 cumulative IPC: 0.344926 (Simulation time: 0 hr 52 min 58 sec) 
Heartbeat CPU 1 instructions: 180000000 cycles: 135851157 heartbeat IPC: 1.24222 cumulative IPC: 1.15516 (Simulation time: 0 hr 54 min 24 sec) 
Heartbeat CPU 2 instructions: 90000001 cycles: 136426945 heartbeat IPC: 0.637468 cumulative IPC: 0.488638 (Simulation time: 0 hr 54 min 38 sec) 
Heartbeat CPU 3 instructions: 150000000 cycles: 137689165 heartbeat IPC: 0.918723 cumulative IPC: 0.965075 (Simulation time: 0 hr 55 min 8 sec) 
Heartbeat CPU 7 instructions: 110000001 cycles: 142529696 heartbeat IPC: 0.708469 cumulative IPC: 0.707734 (Simulation time: 0 hr 57 min 4 sec) 
Heartbeat CPU 1 instructions: 190000003 cycles: 145110826 heartbeat IPC: 1.07995 cumulative IPC: 1.14975 (Simulation time: 0 hr 58 min 6 sec) 
Heartbeat CPU 4 instructions: 110000001 cycles: 145545663 heartbeat IPC: 0.651942 cumulative IPC: 0.645688 (Simulation time: 0 hr 58 min 15 sec) 
Heartbeat CPU 3 instructions: 160000000 cycles: 146844416 heartbeat IPC: 1.09227 cumulative IPC: 0.973992 (Simulation time: 0 hr 58 min 44 sec) 
Heartbeat CPU 0 instructions: 90000000 cycles: 146867328 heartbeat IPC: 0.533355 cumulative IPC: 0.474282 (Simulation time: 0 hr 58 min 44 sec) 
Heartbeat CPU 6 instructions: 80000000 cycles: 147955038 heartbeat IPC: 0.399382 cumulative IPC: 0.376351 (Simulation time: 0 hr 59 min 12 sec) 
Heartbeat CPU 5 instructions: 70000001 cycles: 149081291 heartbeat IPC: 0.593417 cumulative IPC: 0.376453 (Simulation time: 0 hr 59 min 37 sec) 
Heartbeat CPU 2 instructions: 100000000 cycles: 150677123 heartbeat IPC: 0.701746 cumulative IPC: 0.511231 (Simulation time: 1 hr 0 min 14 sec) 
Heartbeat CPU 1 instructions: 200000000 cycles: 155630193 heartbeat IPC: 0.950627 cumulative IPC: 1.13472 (Simulation time: 1 hr 2 min 12 sec) 
Heartbeat CPU 3 instructions: 170000001 cycles: 156103703 heartbeat IPC: 1.08 cumulative IPC: 0.981011 (Simulation time: 1 hr 2 min 23 sec) 
Heartbeat CPU 7 instructions: 120000000 cycles: 156547236 heartbeat IPC: 0.713392 cumulative IPC: 0.708299 (Simulation time: 1 hr 2 min 34 sec) 
Finished CPU 7 instructions: 100000001 cycles: 141174959 cumulative IPC: 0.708341 (Simulation time: 1 hr 2 min 54 sec) 
Heartbeat CPU 4 instructions: 120000000 cycles: 160912311 heartbeat IPC: 0.65076 cumulative IPC: 0.646227 (Simulation time: 1 hr 4 min 15 sec) 
Heartbeat CPU 3 instructions: 180000000 cycles: 165289009 heartbeat IPC: 1.0887 cumulative IPC: 0.987648 (Simulation time: 1 hr 5 min 57 sec) 
Heartbeat CPU 5 instructions: 80000000 cycles: 165883066 heartbeat IPC: 0.595175 cumulative IPC: 0.401015 (Simulation time: 1 hr 6 min 10 sec) 
Heartbeat CPU 0 instructions: 100000000 cycles: 165979123 heartbeat IPC: 0.523237 cumulative IPC: 0.480532 (Simulation time: 1 hr 6 min 13 sec) 
Heartbeat CPU 2 instructions: 110000000 cycles: 166190392 heartbeat IPC: 0.644609 cumulative IPC: 0.525032 (Simulation time: 1 hr 6 min 18 sec) 
Heartbeat CPU 1 instructions: 210000003 cycles: 166653478 heartbeat IPC: 0.907171 cumulative IPC: 1.11805 (Simulation time: 1 hr 6 min 29 sec) 
Heartbeat CPU 7 instructions: 130000003 cycles: 170615871 heartbeat IPC: 0.710801 cumulative IPC: 0.708527 (Simulation time: 1 hr 7 min 59 sec) 
Finished CPU 4 instructions: 100000003 cycles: 154608319 cumulative IPC: 0.646796 (Simulation time: 1 hr 8 min 5 sec) 
Heartbeat CPU 6 instructions: 90000001 cycles: 173913065 heartbeat IPC: 0.385237 cumulative IPC: 0.377814 (Simulation time: 1 hr 9 min 15 sec) 
Heartbeat CPU 3 instructions: 190000003 cycles: 174508209 heartbeat IPC: 1.08469 cumulative IPC: 0.993302 (Simulation time: 1 hr 9 min 30 sec) 
Heartbeat CPU 4 instructions: 130000000 cycles: 176237827 heartbeat IPC: 0.652507 cumulative IPC: 0.646829 (Simulation time: 1 hr 10 min 10 sec) 
Heartbeat CPU 1 instructions: 220000000 cycles: 177435458 heartbeat IPC: 0.927473 cumulative IPC: 1.1053 (Simulation time: 1 hr 10 min 38 sec) 
Heartbeat CPU 7 instructions: 140000000 cycles: 182783793 heartbeat IPC: 0.821833 cumulative IPC: 0.716807 (Simulation time: 1 hr 12 min 43 sec) 
Heartbeat CPU 5 instructions: 90000003 cycles: 182792371 heartbeat IPC: 0.591391 cumulative IPC: 0.420346 (Simulation time: 1 hr 12 min 43 sec) 
Heartbeat CPU 2 instructions: 120000000 cycles: 183263173 heartbeat IPC: 0.585728 cumulative IPC: 0.531237 (Simulation time: 1 hr 12 min 55 sec) 
Heartbeat CPU 3 instructions: 200000000 cycles: 183835764 heartbeat IPC: 1.07209 cumulative IPC: 0.997688 (Simulation time: 1 hr 13 min 9 sec) 
Heartbeat CPU 0 instructions: 110000000 cycles: 184901418 heartbeat IPC: 0.528477 cumulative IPC: 0.485911 (Simulation time: 1 hr 13 min 33 sec) 
Heartbeat CPU 1 instructions: 230000001 cycles: 188954870 heartbeat IPC: 0.8681 cumulative IPC: 1.08947 (Simulation time: 1 hr 15 min 6 sec) 
Heartbeat CPU 4 instructions: 140000000 cycles: 191560214 heartbeat IPC: 0.65264 cumulative IPC: 0.647337 (Simulation time: 1 hr 16 min 5 sec) 
Heartbeat CPU 3 instructions: 210000003 cycles: 193055118 heartbeat IPC: 1.08468 cumulative IPC: 1.00222 (Simulation time: 1 hr 16 min 37 sec) 
Heartbeat CPU 7 instructions: 150000003 cycles: 196078228 heartbeat IPC: 0.752195 cumulative IPC: 0.719423 (Simulation time: 1 hr 17 min 46 sec) 
Heartbeat CPU 6 instructions: 100000000 cycles: 198344166 heartbeat IPC: 0.409314 cumulative IPC: 0.38204 (Simulation time: 1 hr 18 min 38 sec) 
Heartbeat CPU 2 instructions: 130000003 cycles: 199363012 heartbeat IPC: 0.621124 cumulative IPC: 0.539141 (Simulation time: 1 hr 19 min 3 sec) 
Heartbeat CPU 5 instructions: 100000000 cycles: 199588238 heartbeat IPC: 0.595384 cumulative IPC: 0.436382 (Simulation time: 1 hr 19 min 9 sec) 
Finished CPU 2 instructions: 100000000 cycles: 184923351 cumulative IPC: 0.540765 (Simulation time: 1 hr 19 min 44 sec) 
Heartbeat CPU 1 instructions: 240000000 cycles: 201757827 heartbeat IPC: 0.781069 cumulative IPC: 1.06819 (Simulation time: 1 hr 19 min 56 sec) 
Heartbeat CPU 3 instructions: 220000000 cycles: 202246858 heartbeat IPC: 1.08793 cumulative IPC: 1.00646 (Simulation time: 1 hr 20 min 6 sec) 
Heartbeat CPU 0 instructions: 120000000 cycles: 204100737 heartbeat IPC: 0.520852 cumulative IPC: 0.489483 (Simulation time: 1 hr 20 min 48 sec) 
Heartbeat CPU 4 instructions: 150000003 cycles: 206939242 heartbeat IPC: 0.650236 cumulative IPC: 0.647571 (Simulation time: 1 hr 21 min 51 sec) 
Heartbeat CPU 7 instructions: 160000000 cycles: 210106820 heartbeat IPC: 0.71283 cumulative IPC: 0.718946 (Simulation time: 1 hr 23 min 6 sec) 
Heartbeat CPU 3 instructions: 230000002 cycles: 211358003 heartbeat IPC: 1.09756 cumulative IPC: 1.01071 (Simulation time: 1 hr 23 min 34 sec) 
Heartbeat CPU 2 instructions: 140000000 cycles: 213350479 heartbeat IPC: 0.714926 cumulative IPC: 0.551616 (Simulation time: 1 hr 24 min 19 sec) 
Heartbeat CPU 1 instructions: 250000001 cycles: 213572602 heartbeat IPC: 0.846398 cumulative IPC: 1.05491 (Simulation time: 1 hr 24 min 25 sec) 
Heartbeat CPU 5 instructions: 110000003 cycles: 216454827 heartbeat IPC: 0.592888 cumulative IPC: 0.449568 (Simulation time: 1 hr 25 min 29 sec) 
Finished CPU 0 instructions: 100000002 cycles: 203954277 cumulative IPC: 0.490306 (Simulation time: 1 hr 26 min 56 sec) 
Heartbeat CPU 3 instructions: 240000000 cycles: 220500686 heartbeat IPC: 1.09377 cumulative IPC: 1.01443 (Simulation time: 1 hr 27 min 2 sec) 
Heartbeat CPU 4 instructions: 160000000 cycles: 222294554 heartbeat IPC: 0.65124 cumulative IPC: 0.647844 (Simulation time: 1 hr 27 min 43 sec) 
Heartbeat CPU 0 instructions: 130000002 cycles: 223998980 heartbeat IPC: 0.502557 cumulative IPC: 0.490735 (Simulation time: 1 hr 28 min 24 sec) 
Heartbeat CPU 7 instructions: 170000003 cycles: 224153920 heartbeat IPC: 0.711891 cumulative IPC: 0.718469 (Simulation time: 1 hr 28 min 27 sec) 
Heartbeat CPU 1 instructions: 260000000 cycles: 225724180 heartbeat IPC: 0.822938 cumulative IPC: 1.04145 (Simulation time: 1 hr 29 min 2 sec) 
Heartbeat CPU 2 instructions: 150000000 cycles: 227627895 heartbeat IPC: 0.700407 cumulative IPC: 0.561667 (Simulation time: 1 hr 29 min 47 sec) 
Heartbeat CPU 3 instructions: 250000000 cycles: 229601283 heartbeat IPC: 1.09883 cumulative IPC: 1.01803 (Simulation time: 1 hr 30 min 33 sec) 
Heartbeat CPU 5 instructions: 120000000 cycles: 233227707 heartbeat IPC: 0.5962 cumulative IPC: 0.460904 (Simulation time: 1 hr 31 min 57 sec) 
Finished CPU 5 instructions: 100000001 cycles: 216965020 cumulative IPC: 0.460904 (Simulation time: 1 hr 31 min 57 sec) 
Heartbeat CPU 1 instructions: 270000003 cycles: 236135799 heartbeat IPC: 0.960466 cumulative IPC: 1.03762 (Simulation time: 1 hr 33 min 3 sec) 
Heartbeat CPU 4 instructions: 170000001 cycles: 237625312 heartbeat IPC: 0.652284 cumulative IPC: 0.648152 (Simulation time: 1 hr 33 min 38 sec) 
Heartbeat CPU 7 instructions: 180000000 cycles: 238069610 heartbeat IPC: 0.718613 cumulative IPC: 0.718478 (Simulation time: 1 hr 33 min 48 sec) 
Heartbeat CPU 3 instructions: 260000000 cycles: 238684021 heartbeat IPC: 1.10099 cumulative IPC: 1.02142 (Simulation time: 1 hr 34 min 2 sec) 
Heartbeat CPU 6 instructions: 110000001 cycles: 241622925 heartbeat IPC: 0.23106 cumulative IPC: 0.353046 (Simulation time: 1 hr 35 min 11 sec) 
Heartbeat CPU 2 instructions: 160000000 cycles: 242100365 heartbeat IPC: 0.690967 cumulative IPC: 0.569953 (Simulation time: 1 hr 35 min 22 sec) 
Heartbeat CPU 0 instructions: 140000000 cycles: 243065689 heartbeat IPC: 0.524474 cumulative IPC: 0.493571 (Simulation time: 1 hr 35 min 46 sec) 
Heartbeat CPU 1 instructions: 280000000 cycles: 245442998 heartbeat IPC: 1.07444 cumulative IPC: 1.03911 (Simulation time: 1 hr 36 min 42 sec) 
Heartbeat CPU 3 instructions: 270000002 cycles: 247824383 heartbeat IPC: 1.09405 cumulative IPC: 1.02429 (Simulation time: 1 hr 37 min 40 sec) 
Heartbeat CPU 5 instructions: 130000001 cycles: 250075714 heartbeat IPC: 0.593542 cumulative IPC: 0.470461 (Simulation time: 1 hr 38 min 37 sec) 
Heartbeat CPU 7 instructions: 190000003 cycles: 252113914 heartbeat IPC: 0.712033 cumulative IPC: 0.718094 (Simulation time: 1 hr 39 min 24 sec) 
Heartbeat CPU 4 instructions: 180000000 cycles: 253021206 heartbeat IPC: 0.649524 cumulative IPC: 0.648241 (Simulation time: 1 hr 39 min 47 sec) 
Heartbeat CPU 1 instructions: 290000001 cycles: 254386293 heartbeat IPC: 1.11816 cumulative IPC: 1.04208 (Simulation time: 1 hr 40 min 18 sec) 
Heartbeat CPU 3 instructions: 280000000 cycles: 257045958 heartbeat IPC: 1.08441 cumulative IPC: 1.02659 (Simulation time: 1 hr 41 min 20 sec) 
Heartbeat CPU 2 instructions: 170000003 cycles: 258039234 heartbeat IPC: 0.627397 cumulative IPC: 0.57374 (Simulation time: 1 hr 41 min 44 sec) 
Heartbeat CPU 6 instructions: 120000000 cycles: 261835433 heartbeat IPC: 0.494743 cumulative IPC: 0.364709 (Simulation time: 1 hr 43 min 15 sec) 
Heartbeat CPU 0 instructions: 150000001 cycles: 262331355 heartbeat IPC: 0.519058 cumulative IPC: 0.495567 (Simulation time: 1 hr 43 min 27 sec) 
Heartbeat CPU 1 instructions: 300000000 cycles: 263773397 heartbeat IPC: 1.06529 cumulative IPC: 1.04296 (Simulation time: 1 hr 44 min 1 sec) 
Heartbeat CPU 7 instructions: 200000000 cycles: 266217486 heartbeat IPC: 0.70904 cumulative IPC: 0.717583 (Simulation time: 1 hr 44 min 58 sec) 
Heartbeat CPU 3 instructions: 290000003 cycles: 266268381 heartbeat IPC: 1.08431 cumulative IPC: 1.02872 (Simulation time: 1 hr 45 min 0 sec) 
Heartbeat CPU 5 instructions: 140000000 cycles: 267291463 heartbeat IPC: 0.580863 cumulative IPC: 0.478033 (Simulation time: 1 hr 45 min 24 sec) 
Heartbeat CPU 4 instructions: 190000003 cycles: 268449954 heartbeat IPC: 0.648141 cumulative IPC: 0.648235 (Simulation time: 1 hr 45 min 51 sec) 
Heartbeat CPU 1 instructions: 310000001 cycles: 272408386 heartbeat IPC: 1.15808 cumulative IPC: 1.04684 (Simulation time: 1 hr 47 min 27 sec) 
Heartbeat CPU 2 instructions: 180000000 cycles: 273819015 heartbeat IPC: 0.633722 cumulative IPC: 0.577415 (Simulation time: 1 hr 47 min 59 sec) 
Heartbeat CPU 3 instructions: 300000000 cycles: 275945357 heartbeat IPC: 1.03338 cumulative IPC: 1.02889 (Simulation time: 1 hr 48 min 51 sec) 
Heartbeat CPU 7 instructions: 210000000 cycles: 280164391 heartbeat IPC: 0.717005 cumulative IPC: 0.717553 (Simulation time: 1 hr 50 min 27 sec) 
Heartbeat CPU 0 instructions: 160000000 cycles: 281239743 heartbeat IPC: 0.528866 cumulative IPC: 0.497943 (Simulation time: 1 hr 50 min 51 sec) 
Heartbeat CPU 1 instructions: 320000000 cycles: 283673138 heartbeat IPC: 0.887725 cumulative IPC: 1.04014 (Simulation time: 1 hr 51 min 46 sec) 
Heartbeat CPU 4 instructions: 200000000 cycles: 283855565 heartbeat IPC: 0.649114 cumulative IPC: 0.648285 (Simulation time: 1 hr 51 min 50 sec) 
Heartbeat CPU 5 instructions: 150000001 cycles: 284128282 heartbeat IPC: 0.593937 cumulative IPC: 0.485318 (Simulation time: 1 hr 51 min 57 sec) 
Heartbeat CPU 3 instructions: 310000000 cycles: 285809924 heartbeat IPC: 1.01373 cumulative IPC: 1.02834 (Simulation time: 1 hr 52 min 35 sec) 
Heartbeat CPU 6 instructions: 130000000 cycles: 288690444 heartbeat IPC: 0.37237 cumulative IPC: 0.365464 (Simulation time: 1 hr 53 min 36 sec) 
Heartbeat CPU 2 instructions: 190000003 cycles: 289209678 heartbeat IPC: 0.649745 cumulative IPC: 0.581493 (Simulation time: 1 hr 53 min 49 sec) 
Finished CPU 6 instructions: 100000000 cycles: 273256066 cumulative IPC: 0.365957 (Simulation time: 1 hr 53 min 56 sec) 

CPU 0 Branch Prediction Accuracy: 95.9812% MPKI: 3.92249

CPU 1 Branch Prediction Accuracy: 98.2517% MPKI: 1.41692

CPU 2 Branch Prediction Accuracy: 97.0867% MPKI: 4.88494

CPU 3 Branch Prediction Accuracy: 99.1563% MPKI: 0.18963

CPU 4 Branch Prediction Accuracy: 98.8606% MPKI: 1.2716

CPU 5 Branch Prediction Accuracy: 99.9051% MPKI: 0.00551778

CPU 6 Branch Prediction Accuracy: 95.1058% MPKI: 7.68784

CPU 7 Branch Prediction Accuracy: 99.5216% MPKI: 0.0257185

ChampSim completed all CPUs

Total Simulation Statistics (not including warmup)

CPU 0 cumulative IPC: 0.498217 instructions: 136140900 cycles: 273256065
L1D TOTAL     ACCESS:   47056218  HIT:   46574262  MISS:     481956
L1D LOAD      ACCESS:   29372565  HIT:   28969532  MISS:     403033
L1D RFO       ACCESS:   17683653  HIT:   17604730  MISS:      78923
L1D PREFETCH  ACCESS:          0  HIT:          0  MISS:          0
L1D WRITEBACK ACCESS:          0  HIT:          0  MISS:          0
L1I TOTAL     ACCESS:   39393515  HIT:   39393515  MISS:          0
L1I LOAD      ACCESS:   39393515  HIT:   39393515  MISS:          0
L1I RFO       ACCESS:          0  HIT:          0  MISS:          0
L1I PREFETCH  ACCESS:          0  HIT:          0  MISS:          0
L1I WRITEBACK ACCESS:          0  HIT:          0  MISS:          0
L2C TOTAL     ACCESS:     856854  HIT:     566500  MISS:     290354
L2C LOAD      ACCESS:     402953  HIT:     248157  MISS:     154796
L2C RFO       ACCESS:      78922  HIT:       7361  MISS:      71561
L2C PREFETCH  ACCESS:     129843  HIT:      65964  MISS:      63879
L2C WRITEBACK ACCESS:     245136  HIT:     245018  MISS:        118

Avg Lookahead Depth:	3.62297
TOTAL: 3.0161e+07	L2C: 2.37079e+07	LLC: 6.45303e+06	GOOD_L2C: 1.50415e+07
Printing all the perceptron weights to: perc_weights_0.csv
LLC TOTAL     ACCESS:     547568  HIT:     162769  MISS:     384799
LLC LOAD      ACCESS:     154197  HIT:      30650  MISS:     123547
LLC RFO       ACCESS:      71561  HIT:       1220  MISS:      70341
LLC PREFETCH  ACCESS:     142746  HIT:      31047  MISS:     111699
LLC WRITEBACK ACCESS:     179064  HIT:      99852  MISS:      79212

CPU 1 cumulative IPC: 1.03558 instructions: 282977181 cycles: 273256065
L1D TOTAL     ACCESS:   49667473  HIT:   45377322  MISS:    4290151
L1D LOAD      ACCESS:   45049216  HIT:   41112853  MISS:    3936363
L1D RFO       ACCESS:    4618257  HIT:    4264469  MISS:     353788
L1D PREFETCH  ACCESS:          0  HIT:          0  MISS:          0
L1D WRITEBACK ACCESS:          0  HIT:          0  MISS:          0
L1I TOTAL     ACCESS:   77316374  HIT:   77315394  MISS:        980
L1I LOAD      ACCESS:   77316374  HIT:   77315394  MISS:        980
L1I RFO       ACCESS:          0  HIT:          0  MISS:          0
L1I PREFETCH  ACCESS:          0  HIT:          0  MISS:          0
L1I WRITEBACK ACCESS:          0  HIT:          0  MISS:          0
L2C TOTAL     ACCESS:    8719596  HIT:    4702212  MISS:    4017384
L2C LOAD      ACCESS:    3937343  HIT:    3250778  MISS:     686565
L2C RFO       ACCESS:     353782  HIT:      30812  MISS:     322970
L2C PREFETCH  ACCESS:    3999179  HIT:     992173  MISS:    3007006
L2C WRITEBACK ACCESS:     429292  HIT:     428449  MISS:        843

Avg Lookahead Depth:	3.62297
TOTAL: 3.0161e+07	L2C: 2.37079e+07	LLC: 6.45303e+06	GOOD_L2C: 1.50415e+07
Printing all the perceptron weights to: perc_weights_0.csv
LLC TOTAL     ACCESS:    4942434  HIT:    3296283  MISS:    1646151
LLC LOAD      ACCESS:     601842  HIT:     380063  MISS:     221779
LLC RFO       ACCESS:     322966  HIT:     231108  MISS:      91858
LLC PREFETCH  ACCESS:    3631142  HIT:    2298672  MISS:    1332470
LLC WRITEBACK ACCESS:     386484  HIT:     386440  MISS:         44

CPU 2 cumulative IPC: 0.581692 instructions: 158950887 cycles: 273256065
L1D TOTAL     ACCESS:   21151546  HIT:   17321323  MISS:    3830223
L1D LOAD      ACCESS:   18250209  HIT:   14420013  MISS:    3830196
L1D RFO       ACCESS:    2901337  HIT:    2901310  MISS:         27
L1D PREFETCH  ACCESS:          0  HIT:          0  MISS:          0
L1D WRITEBACK ACCESS:          0  HIT:          0  MISS:          0
L1I TOTAL     ACCESS:   46548475  HIT:   46548465  MISS:         10
L1I LOAD      ACCESS:   46548475  HIT:   46548465  MISS:         10
L1I RFO       ACCESS:          0  HIT:          0  MISS:          0
L1I PREFETCH  ACCESS:          0  HIT:          0  MISS:          0
L1I WRITEBACK ACCESS:          0  HIT:          0  MISS:          0
L2C TOTAL     ACCESS:    7951856  HIT:    4121578  MISS:    3830278
L2C LOAD      ACCESS:    3830206  HIT:    2809945  MISS:    1020261
L2C RFO       ACCESS:         27  HIT:          0  MISS:         27
L2C PREFETCH  ACCESS:    2955413  HIT:     145423  MISS:    2809990
L2C WRITEBACK ACCESS:    1166210  HIT:    1166210  MISS:          0

Avg Lookahead Depth:	3.62297
TOTAL: 3.0161e+07	L2C: 2.37079e+07	LLC: 6.45303e+06	GOOD_L2C: 1.50415e+07
Printing all the perceptron weights to: perc_weights_0.csv
LLC TOTAL     ACCESS:    5001523  HIT:    1171230  MISS:    3830293
LLC LOAD      ACCESS:     129854  HIT:         80  MISS:     129774
LLC RFO       ACCESS:         27  HIT:          0  MISS:         27
LLC PREFETCH  ACCESS:    3704284  HIT:       3792  MISS:    3700492
LLC WRITEBACK ACCESS:    1167358  HIT:    1167358  MISS:          0

CPU 3 cumulative IPC: 1.02807 instructions: 280925447 cycles: 273256065
L1D TOTAL     ACCESS:   86626932  HIT:   83592731  MISS:    3034201
L1D LOAD      ACCESS:   80260292  HIT:   77953085  MISS:    2307207
L1D RFO       ACCESS:    6366640  HIT:    5639646  MISS:     726994
L1D PREFETCH  ACCESS:          0  HIT:          0  MISS:          0
L1D WRITEBACK ACCESS:          0  HIT:          0  MISS:          0
L1I TOTAL     ACCESS:   67453595  HIT:   67453454  MISS:        141
L1I LOAD      ACCESS:   67453595  HIT:   67453454  MISS:        141
L1I RFO       ACCESS:          0  HIT:          0  MISS:          0
L1I PREFETCH  ACCESS:          0  HIT:          0  MISS:          0
L1I WRITEBACK ACCESS:          0  HIT:          0  MISS:          0
L2C TOTAL     ACCESS:    7226920  HIT:    4966817  MISS:    2260103
L2C LOAD      ACCESS:    2307332  HIT:    2237474  MISS:      69858
L2C RFO       ACCESS:     726973  HIT:     245319  MISS:     481654
L2C PREFETCH  ACCESS:    3223595  HIT:    1515182  MISS:    1708413
L2C WRITEBACK ACCESS:     969020  HIT:     968842  MISS:        178

Avg Lookahead Depth:	3.62297
TOTAL: 3.0161e+07	L2C: 2.37079e+07	LLC: 6.45303e+06	GOOD_L2C: 1.50415e+07
Printing all the perceptron weights to: perc_weights_0.csv
LLC TOTAL     ACCESS:    3231464  HIT:    1188376  MISS:    2043088
LLC LOAD      ACCESS:      48516  HIT:       7603  MISS:      40913
LLC RFO       ACCESS:     481654  HIT:      50197  MISS:     431457
LLC PREFETCH  ACCESS:    2067912  HIT:     499984  MISS:    1567928
LLC WRITEBACK ACCESS:     633382  HIT:     630592  MISS:       2790

CPU 4 cumulative IPC: 0.648323 instructions: 177158152 cycles: 273256065
L1D TOTAL     ACCESS:   68064168  HIT:   66223843  MISS:    1840325
L1D LOAD      ACCESS:   41025652  HIT:   40100867  MISS:     924785
L1D RFO       ACCESS:   27038516  HIT:   26122976  MISS:     915540
L1D PREFETCH  ACCESS:          0  HIT:          0  MISS:          0
L1D WRITEBACK ACCESS:          0  HIT:          0  MISS:          0
L1I TOTAL     ACCESS:   51276893  HIT:   51052418  MISS:     224475
L1I LOAD      ACCESS:   51276893  HIT:   51052418  MISS:     224475
L1I RFO       ACCESS:          0  HIT:          0  MISS:          0
L1I PREFETCH  ACCESS:          0  HIT:          0  MISS:          0
L1I WRITEBACK ACCESS:          0  HIT:          0  MISS:          0
L2C TOTAL     ACCESS:    4413537  HIT:    4313593  MISS:      99944
L2C LOAD      ACCESS:    1149246  HIT:    1112259  MISS:      36987
L2C RFO       ACCESS:     915497  HIT:     914430  MISS:       1067
L2C PREFETCH  ACCESS:    1391732  HIT:    1330244  MISS:      61488
L2C WRITEBACK ACCESS:     957062  HIT:     956660  MISS:        402

Avg Lookahead Depth:	3.62297
TOTAL: 3.0161e+07	L2C: 2.37079e+07	LLC: 6.45303e+06	GOOD_L2C: 1.50415e+07
Printing all the perceptron weights to: perc_weights_0.csv
LLC TOTAL     ACCESS:     218980  HIT:      75839  MISS:     143141
LLC LOAD      ACCESS:      35899  HIT:       8774  MISS:      27125
LLC RFO       ACCESS:       1067  HIT:        118  MISS:        949
LLC PREFETCH  ACCESS:     141437  HIT:      62759  MISS:      78678
LLC WRITEBACK ACCESS:      40577  HIT:       4188  MISS:      36389

CPU 5 cumulative IPC: 0.487476 instructions: 133205759 cycles: 273256065
L1D TOTAL     ACCESS:   78283398  HIT:   76438662  MISS:    1844736
L1D LOAD      ACCESS:   68506188  HIT:   66661539  MISS:    1844649
L1D RFO       ACCESS:    9777210  HIT:    9777123  MISS:         87
L1D PREFETCH  ACCESS:          0  HIT:          0  MISS:          0
L1D WRITEBACK ACCESS:          0  HIT:          0  MISS:          0
L1I TOTAL     ACCESS:   37914236  HIT:   37914127  MISS:        109
L1I LOAD      ACCESS:   37914236  HIT:   37914127  MISS:        109
L1I RFO       ACCESS:          0  HIT:          0  MISS:          0
L1I PREFETCH  ACCESS:          0  HIT:          0  MISS:          0
L1I WRITEBACK ACCESS:          0  HIT:          0  MISS:          0
L2C TOTAL     ACCESS:    4532390  HIT:    2425287  MISS:    2107103
L2C LOAD      ACCESS:    1844555  HIT:    1144568  MISS:     699987
L2C RFO       ACCESS:         62  HIT:         52  MISS:         10
L2C PREFETCH  ACCESS:    1829917  HIT:     422872  MISS:    1407045
L2C WRITEBACK ACCESS:     857856  HIT:     857795  MISS:         61

Avg Lookahead Depth:	3.62297
TOTAL: 3.0161e+07	L2C: 2.37079e+07	LLC: 6.45303e+06	GOOD_L2C: 1.50415e+07
Printing all the perceptron weights to: perc_weights_0.csv
LLC TOTAL     ACCESS:    3773387  HIT:    1672064  MISS:    2101323
LLC LOAD      ACCESS:     663997  HIT:     146905  MISS:     517092
LLC RFO       ACCESS:         10  HIT:          0  MISS:         10
LLC PREFETCH  ACCESS:    2253060  HIT:     668877  MISS:    1584183
LLC WRITEBACK ACCESS:     856320  HIT:     856282  MISS:         38

CPU 6 cumulative IPC: 0.365957 instructions: 100000000 cycles: 273256066
L1D TOTAL     ACCESS:   22800680  HIT:   17507368  MISS:    5293312
L1D LOAD      ACCESS:   17301002  HIT:   12784089  MISS:    4516913
L1D RFO       ACCESS:    5499678  HIT:    4723279  MISS:     776399
L1D PREFETCH  ACCESS:          0  HIT:          0  MISS:          0
L1D WRITEBACK ACCESS:          0  HIT:          0  MISS:          0
L1I TOTAL     ACCESS:   23178544  HIT:   23177866  MISS:        678
L1I LOAD      ACCESS:   23178544  HIT:   23177866  MISS:        678
L1I RFO       ACCESS:          0  HIT:          0  MISS:          0
L1I PREFETCH  ACCESS:          0  HIT:          0  MISS:          0
L1I WRITEBACK ACCESS:          0  HIT:          0  MISS:          0
L2C TOTAL     ACCESS:   11472126  HIT:    6243809  MISS:    5228317
L2C LOAD      ACCESS:    4517095  HIT:    2572008  MISS:    1945087
L2C RFO       ACCESS:     776365  HIT:      78686  MISS:     697679
L2C PREFETCH  ACCESS:    3805569  HIT:    1220226  MISS:    2585343
L2C WRITEBACK ACCESS:    2373097  HIT:    2372889  MISS:        208

Avg Lookahead Depth:	3.62297
TOTAL: 3.0161e+07	L2C: 2.37079e+07	LLC: 6.45303e+06	GOOD_L2C: 1.50415e+07
Printing all the perceptron weights to: perc_weights_0.csv
LLC TOTAL     ACCESS:    7774169  HIT:    4695253  MISS:    3078916
LLC LOAD      ACCESS:    1691096  HIT:    1003969  MISS:     687127
LLC RFO       ACCESS:     697666  HIT:     350459  MISS:     347207
LLC PREFETCH  ACCESS:    3551245  HIT:    1506687  MISS:    2044558
LLC WRITEBACK ACCESS:    1834162  HIT:    1834138  MISS:         24

CPU 7 cumulative IPC: 0.71739 instructions: 196031213 cycles: 273256066
L1D TOTAL     ACCESS:  114301882  HIT:  112651563  MISS:    1650319
L1D LOAD      ACCESS:  103008045  HIT:  101357874  MISS:    1650171
L1D RFO       ACCESS:   11293837  HIT:   11293689  MISS:        148
L1D PREFETCH  ACCESS:          0  HIT:          0  MISS:          0
L1D WRITEBACK ACCESS:          0  HIT:          0  MISS:          0
L1I TOTAL     ACCESS:   54306336  HIT:   54306208  MISS:        128
L1I LOAD      ACCESS:   54306336  HIT:   54306208  MISS:        128
L1I RFO       ACCESS:          0  HIT:          0  MISS:          0
L1I PREFETCH  ACCESS:          0  HIT:          0  MISS:          0
L1I WRITEBACK ACCESS:          0  HIT:          0  MISS:          0
L2C TOTAL     ACCESS:    5150198  HIT:    3710046  MISS:    1440152
L2C LOAD      ACCESS:    1650041  HIT:    1588619  MISS:      61422
L2C RFO       ACCESS:        125  HIT:         96  MISS:         29
L2C PREFETCH  ACCESS:    2761979  HIT:    1383349  MISS:    1378630
L2C WRITEBACK ACCESS:     738053  HIT:     737982  MISS:         71

Avg Lookahead Depth:	3.62297
TOTAL: 3.0161e+07	L2C: 2.37079e+07	LLC: 6.45303e+06	GOOD_L2C: 1.50415e+07
Printing all the perceptron weights to: perc_weights_0.csv
LLC TOTAL     ACCESS:    3052038  HIT:    1621771  MISS:    1430267
LLC LOAD      ACCESS:      60749  HIT:      18200  MISS:      42549
LLC RFO       ACCESS:         29  HIT:         21  MISS:          8
LLC PREFETCH  ACCESS:    2260904  HIT:     873242  MISS:    1387662
LLC WRITEBACK ACCESS:     730356  HIT:     730308  MISS:         48

Region of Interest Statistics

CPU 0 cumulative IPC: 0.490306 instructions: 100000002 cycles: 203954277
L1D TOTAL     ACCESS:   34583449  HIT:   34244748  MISS:     338701
L1D LOAD      ACCESS:   21580069  HIT:   21295184  MISS:     284885
L1D RFO       ACCESS:   13003380  HIT:   12949564  MISS:      53816
L1D PREFETCH  ACCESS:          0  HIT:          0  MISS:          0
L1D WRITEBACK ACCESS:          0  HIT:          0  MISS:          0
L1D PREFETCH  REQUESTED:          0  ISSUED:          0  USEFUL:          0  USELESS:          0
L1I TOTAL     ACCESS:   28755625  HIT:   28755625  MISS:          0
L1I LOAD      ACCESS:   28755625  HIT:   28755625  MISS:          0
L1I RFO       ACCESS:          0  HIT:          0  MISS:          0
L1I PREFETCH  ACCESS:          0  HIT:          0  MISS:          0
L1I WRITEBACK ACCESS:          0  HIT:          0  MISS:          0
L1I PREFETCH  REQUESTED:          0  ISSUED:          0  USEFUL:          0  USELESS:          0
L2C TOTAL     ACCESS:     615238  HIT:     391668  MISS:     223570
L2C LOAD      ACCESS:     284847  HIT:     163010  MISS:     121837
L2C RFO       ACCESS:      53815  HIT:       4588  MISS:      49227
L2C PREFETCH  ACCESS:     101553  HIT:      49133  MISS:      52420
L2C WRITEBACK ACCESS:     175023  HIT:     174937  MISS:         86
L2C PREFETCH  REQUESTED:     289468  ISSUED:     289468  USEFUL:      57237  USELESS:      36939
LLC TOTAL     ACCESS:     419721  HIT:     121991  MISS:     297730
LLC LOAD      ACCESS:     121328  HIT:      20502  MISS:     100826
LLC RFO       ACCESS:      49227  HIT:       1073  MISS:      48154
LLC PREFETCH  ACCESS:     115171  HIT:      24198  MISS:      90973
LLC WRITEBACK ACCESS:     133995  HIT:      76218  MISS:      57777
LLC PREFETCH  REQUESTED:          0  ISSUED:          0  USEFUL:     657008  USELESS:   12928398
Major fault: 0 Minor fault: 2940

CPU 1 cumulative IPC: 1.08373 instructions: 100000000 cycles: 92274239
L1D TOTAL     ACCESS:   17467257  HIT:   16020922  MISS:    1446335
L1D LOAD      ACCESS:   15892043  HIT:   14569626  MISS:    1322417
L1D RFO       ACCESS:    1575214  HIT:    1451296  MISS:     123918
L1D PREFETCH  ACCESS:          0  HIT:          0  MISS:          0
L1D WRITEBACK ACCESS:          0  HIT:          0  MISS:          0
L1D PREFETCH  REQUESTED:          0  ISSUED:          0  USEFUL:          0  USELESS:          0
L1I TOTAL     ACCESS:   27452029  HIT:   27451870  MISS:        159
L1I LOAD      ACCESS:   27452029  HIT:   27451870  MISS:        159
L1I RFO       ACCESS:          0  HIT:          0  MISS:          0
L1I PREFETCH  ACCESS:          0  HIT:          0  MISS:          0
L1I WRITEBACK ACCESS:          0  HIT:          0  MISS:          0
L1I PREFETCH  REQUESTED:          0  ISSUED:          0  USEFUL:          0  USELESS:          0
L2C TOTAL     ACCESS:    2972098  HIT:    1613756  MISS:    1358342
L2C LOAD      ACCESS:    1322576  HIT:    1118054  MISS:     204522
L2C RFO       ACCESS:     123918  HIT:      10237  MISS:     113681
L2C PREFETCH  ACCESS:    1385847  HIT:     346006  MISS:    1039841
L2C WRITEBACK ACCESS:     139757  HIT:     139459  MISS:        298
L2C PREFETCH  REQUESTED:    5506046  ISSUED:    5506037  USEFUL:    3100778  USELESS:     361633
LLC TOTAL     ACCESS:    1645020  HIT:    1204912  MISS:     440108
LLC LOAD      ACCESS:     174258  HIT:     118746  MISS:      55512
LLC RFO       ACCESS:     113680  HIT:      88942  MISS:      24738
LLC PREFETCH  ACCESS:    1230889  HIT:     871047  MISS:     359842
LLC WRITEBACK ACCESS:     126193  HIT:     126177  MISS:         16
LLC PREFETCH  REQUESTED:          0  ISSUED:          0  USEFUL:     657008  USELESS:   12928398
Major fault: 0 Minor fault: 3202

CPU 2 cumulative IPC: 0.540765 instructions: 100000000 cycles: 184923351
L1D TOTAL     ACCESS:   14384698  HIT:   11884355  MISS:    2500343
L1D LOAD      ACCESS:   11701730  HIT:    9201406  MISS:    2500324
L1D RFO       ACCESS:    2682968  HIT:    2682949  MISS:         19
L1D PREFETCH  ACCESS:          0  HIT:          0  MISS:          0
L1D WRITEBACK ACCESS:          0  HIT:          0  MISS:          0
L1D PREFETCH  REQUESTED:          0  ISSUED:          0  USEFUL:          0  USELESS:          0
L1I TOTAL     ACCESS:   27903881  HIT:   27903872  MISS:          9
L1I LOAD      ACCESS:   27903881  HIT:   27903872  MISS:          9
L1I RFO       ACCESS:          0  HIT:          0  MISS:          0
L1I PREFETCH  ACCESS:          0  HIT:          0  MISS:          0
L1I WRITEBACK ACCESS:          0  HIT:          0  MISS:          0
L1I PREFETCH  REQUESTED:          0  ISSUED:          0  USEFUL:          0  USELESS:          0
L2C TOTAL     ACCESS:    5348658  HIT:    2848275  MISS:    2500383
L2C LOAD      ACCESS:    2500333  HIT:    1785405  MISS:     714928
L2C RFO       ACCESS:         19  HIT:          0  MISS:         19
L2C PREFETCH  ACCESS:    1883442  HIT:      98006  MISS:    1785436
L2C WRITEBACK ACCESS:     964864  HIT:     964864  MISS:          0
L2C PREFETCH  REQUESTED:    4800439  ISSUED:    4800439  USEFUL:    3525769  USELESS:         76
LLC TOTAL     ACCESS:    3469386  HIT:     968988  MISS:    2500398
LLC LOAD      ACCESS:      85445  HIT:         67  MISS:      85378
LLC RFO       ACCESS:         19  HIT:          0  MISS:         19
LLC PREFETCH  ACCESS:    2417754  HIT:       2753  MISS:    2415001
LLC WRITEBACK ACCESS:     966168  HIT:     966168  MISS:          0
LLC PREFETCH  REQUESTED:          0  ISSUED:          0  USEFUL:     657008  USELESS:   12928398
Major fault: 0 Minor fault: 8200

CPU 3 cumulative IPC: 0.981427 instructions: 100000003 cycles: 101892414
L1D TOTAL     ACCESS:   31286429  HIT:   30480764  MISS:     805665
L1D LOAD      ACCESS:   30475832  HIT:   29953909  MISS:     521923
L1D RFO       ACCESS:     810597  HIT:     526855  MISS:     283742
L1D PREFETCH  ACCESS:          0  HIT:          0  MISS:          0
L1D WRITEBACK ACCESS:          0  HIT:          0  MISS:          0
L1D PREFETCH  REQUESTED:          0  ISSUED:          0  USEFUL:          0  USELESS:          0
L1I TOTAL     ACCESS:   23984876  HIT:   23984850  MISS:         26
L1I LOAD      ACCESS:   23984876  HIT:   23984850  MISS:         26
L1I RFO       ACCESS:          0  HIT:          0  MISS:          0
L1I PREFETCH  ACCESS:          0  HIT:          0  MISS:          0
L1I WRITEBACK ACCESS:          0  HIT:          0  MISS:          0
L1I PREFETCH  REQUESTED:          0  ISSUED:          0  USEFUL:          0  USELESS:          0
L2C TOTAL     ACCESS:    1788762  HIT:     981510  MISS:     807252
L2C LOAD      ACCESS:     521948  HIT:     503855  MISS:      18093
L2C RFO       ACCESS:     283742  HIT:          1  MISS:     283741
L2C PREFETCH  ACCESS:     699209  HIT:     193791  MISS:     505418
L2C WRITEBACK ACCESS:     283863  HIT:     283863  MISS:          0
L2C PREFETCH  REQUESTED:    4045592  ISSUED:    4042893  USEFUL:    1821678  USELESS:      10317
LLC TOTAL     ACCESS:    1181787  HIT:     374558  MISS:     807229
LLC LOAD      ACCESS:      14020  HIT:        504  MISS:      13516
LLC RFO       ACCESS:     283741  HIT:         16  MISS:     283725
LLC PREFETCH  ACCESS:     599132  HIT:      89144  MISS:     509988
LLC WRITEBACK ACCESS:     284894  HIT:     284894  MISS:          0
LLC PREFETCH  REQUESTED:          0  ISSUED:          0  USEFUL:     657008  USELESS:   12928398
Major fault: 0 Minor fault: 14536

CPU 4 cumulative IPC: 0.646796 instructions: 100000003 cycles: 154608319
L1D TOTAL     ACCESS:   38420905  HIT:   37382020  MISS:    1038885
L1D LOAD      ACCESS:   23158436  HIT:   22636430  MISS:     522006
L1D RFO       ACCESS:   15262469  HIT:   14745590  MISS:     516879
L1D PREFETCH  ACCESS:          0  HIT:          0  MISS:          0
L1D WRITEBACK ACCESS:          0  HIT:          0  MISS:          0
L1D PREFETCH  REQUESTED:          0  ISSUED:          0  USEFUL:          0  USELESS:          0
L1I TOTAL     ACCESS:   28907432  HIT:   28780736  MISS:     126696
L1I LOAD      ACCESS:   28907432  HIT:   28780736  MISS:     126696
L1I RFO       ACCESS:          0  HIT:          0  MISS:          0
L1I PREFETCH  ACCESS:          0  HIT:          0  MISS:          0
L1I WRITEBACK ACCESS:          0  HIT:          0  MISS:          0
L1I PREFETCH  REQUESTED:          0  ISSUED:          0  USEFUL:          0  USELESS:          0
L2C TOTAL     ACCESS:    2500108  HIT:    2443997  MISS:      56111
L2C LOAD      ACCESS:     648695  HIT:     627367  MISS:      21328
L2C RFO       ACCESS:     516854  HIT:     516236  MISS:        618
L2C PREFETCH  ACCESS:     794321  HIT:     760363  MISS:      33958
L2C WRITEBACK ACCESS:     540238  HIT:     540031  MISS:        207
L2C PREFETCH  REQUESTED:    1731372  ISSUED:    1731372  USEFUL:      54223  USELESS:      17568
LLC TOTAL     ACCESS:     123651  HIT:      43258  MISS:      80393
LLC LOAD      ACCESS:      20753  HIT:       5286  MISS:      15467
LLC RFO       ACCESS:        618  HIT:         84  MISS:        534
LLC PREFETCH  ACCESS:      79513  HIT:      35437  MISS:      44076
LLC WRITEBACK ACCESS:      22767  HIT:       2451  MISS:      20316
LLC PREFETCH  REQUESTED:          0  ISSUED:          0  USEFUL:     657008  USELESS:   12928398
Major fault: 0 Minor fault: 1670

CPU 5 cumulative IPC: 0.460904 instructions: 100000001 cycles: 216965020
L1D TOTAL     ACCESS:   58777869  HIT:   57241648  MISS:    1536221
L1D LOAD      ACCESS:   51547048  HIT:   50010887  MISS:    1536161
L1D RFO       ACCESS:    7230821  HIT:    7230761  MISS:         60
L1D PREFETCH  ACCESS:          0  HIT:          0  MISS:          0
L1D WRITEBACK ACCESS:          0  HIT:          0  MISS:          0
L1D PREFETCH  REQUESTED:          0  ISSUED:          0  USEFUL:          0  USELESS:          0
L1I TOTAL     ACCESS:   28383262  HIT:   28383153  MISS:        109
L1I LOAD      ACCESS:   28383262  HIT:   28383153  MISS:        109
L1I RFO       ACCESS:          0  HIT:          0  MISS:          0
L1I PREFETCH  ACCESS:          0  HIT:          0  MISS:          0
L1I WRITEBACK ACCESS:          0  HIT:          0  MISS:          0
L1I PREFETCH  REQUESTED:          0  ISSUED:          0  USEFUL:          0  USELESS:          0
L2C TOTAL     ACCESS:    3721606  HIT:    1992885  MISS:    1728721
L2C LOAD      ACCESS:    1536131  HIT:     936478  MISS:     599653
L2C RFO       ACCESS:         42  HIT:         32  MISS:         10
L2C PREFETCH  ACCESS:    1480036  HIT:     351037  MISS:    1128999
L2C WRITEBACK ACCESS:     705397  HIT:     705338  MISS:         59
L2C PREFETCH  REQUESTED:    3038732  ISSUED:    3038732  USEFUL:    1124634  USELESS:     446801
LLC TOTAL     ACCESS:    3072114  HIT:    1324168  MISS:    1747946
LLC LOAD      ACCESS:     564856  HIT:     109543  MISS:     455313
LLC RFO       ACCESS:         10  HIT:          0  MISS:         10
LLC PREFETCH  ACCESS:    1802983  HIT:     510396  MISS:    1292587
LLC WRITEBACK ACCESS:     704265  HIT:     704229  MISS:         36
LLC PREFETCH  REQUESTED:          0  ISSUED:          0  USEFUL:     657008  USELESS:   12928398
Major fault: 0 Minor fault: 157253

CPU 6 cumulative IPC: 0.365957 instructions: 100000000 cycles: 273256066
L1D TOTAL     ACCESS:   22800680  HIT:   17507368  MISS:    5293312
L1D LOAD      ACCESS:   17301002  HIT:   12784089  MISS:    4516913
L1D RFO       ACCESS:    5499678  HIT:    4723279  MISS:     776399
L1D PREFETCH  ACCESS:          0  HIT:          0  MISS:          0
L1D WRITEBACK ACCESS:          0  HIT:          0  MISS:          0
L1D PREFETCH  REQUESTED:          0  ISSUED:          0  USEFUL:          0  USELESS:          0
L1I TOTAL     ACCESS:   23178544  HIT:   23177866  MISS:        678
L1I LOAD      ACCESS:   23178544  HIT:   23177866  MISS:        678
L1I RFO       ACCESS:          0  HIT:          0  MISS:          0
L1I PREFETCH  ACCESS:          0  HIT:          0  MISS:          0
L1I WRITEBACK ACCESS:          0  HIT:          0  MISS:          0
L1I PREFETCH  REQUESTED:          0  ISSUED:          0  USEFUL:          0  USELESS:          0
L2C TOTAL     ACCESS:   11472126  HIT:    6243809  MISS:    5228317
L2C LOAD      ACCESS:    4517095  HIT:    2572008  MISS:    1945087
L2C RFO       ACCESS:     776365  HIT:      78686  MISS:     697679
L2C PREFETCH  ACCESS:    3805569  HIT:    1220226  MISS:    2585343
L2C WRITEBACK ACCESS:    2373097  HIT:    2372889  MISS:        208
L2C PREFETCH  REQUESTED:    6693644  ISSUED:    6693139  USEFUL:    2384857  USELESS:    1071141
LLC TOTAL     ACCESS:    7774169  HIT:    4695253  MISS:    3078916
LLC LOAD      ACCESS:    1691096  HIT:    1003969  MISS:     687127
LLC RFO       ACCESS:     697666  HIT:     350459  MISS:     347207
LLC PREFETCH  ACCESS:    3551245  HIT:    1506687  MISS:    2044558
LLC WRITEBACK ACCESS:    1834162  HIT:    1834138  MISS:         24
LLC PREFETCH  REQUESTED:          0  ISSUED:          0  USEFUL:     657008  USELESS:   12928398
Major fault: 0 Minor fault: 12933

CPU 7 cumulative IPC: 0.708341 instructions: 100000001 cycles: 141174959
L1D TOTAL     ACCESS:   58722174  HIT:   57871254  MISS:     850920
L1D LOAD      ACCESS:   52815770  HIT:   51964929  MISS:     850841
L1D RFO       ACCESS:    5906404  HIT:    5906325  MISS:         79
L1D PREFETCH  ACCESS:          0  HIT:          0  MISS:          0
L1D WRITEBACK ACCESS:          0  HIT:          0  MISS:          0
L1D PREFETCH  REQUESTED:          0  ISSUED:          0  USEFUL:          0  USELESS:          0
L1I TOTAL     ACCESS:   28052436  HIT:   28052380  MISS:         56
L1I LOAD      ACCESS:   28052436  HIT:   28052380  MISS:         56
L1I RFO       ACCESS:          0  HIT:          0  MISS:          0
L1I PREFETCH  ACCESS:          0  HIT:          0  MISS:          0
L1I WRITEBACK ACCESS:          0  HIT:          0  MISS:          0
L1I PREFETCH  REQUESTED:          0  ISSUED:          0  USEFUL:          0  USELESS:          0
L2C TOTAL     ACCESS:    2668724  HIT:    1945941  MISS:     722783
L2C LOAD      ACCESS:     850796  HIT:     818852  MISS:      31944
L2C RFO       ACCESS:         73  HIT:         52  MISS:         21
L2C PREFETCH  ACCESS:    1440905  HIT:     750101  MISS:     690804
L2C WRITEBACK ACCESS:     376950  HIT:     376936  MISS:         14
L2C PREFETCH  REQUESTED:    4055661  ISSUED:    4055651  USEFUL:    1416646  USELESS:      85518
LLC TOTAL     ACCESS:    1569862  HIT:     853422  MISS:     716440
LLC LOAD      ACCESS:      31633  HIT:       9619  MISS:      22014
LLC RFO       ACCESS:         21  HIT:         18  MISS:          3
LLC PREFETCH  ACCESS:    1165085  HIT:     470677  MISS:     694408
LLC WRITEBACK ACCESS:     373123  HIT:     373108  MISS:         15
LLC PREFETCH  REQUESTED:          0  ISSUED:          0  USEFUL:     657008  USELESS:   12928398
Major fault: 0 Minor fault: 21095

Avg Lookahead Depth:	3.62297
TOTAL: 3.0161e+07	L2C: 2.37079e+07	LLC: 6.45303e+06	GOOD_L2C: 1.50415e+07
Printing all the perceptron weights to: perc_weights_0.csv

Avg Lookahead Depth:	3.62297
TOTAL: 3.0161e+07	L2C: 2.37079e+07	LLC: 6.45303e+06	GOOD_L2C: 1.50415e+07
Printing all the perceptron weights to: perc_weights_0.csv

Avg Lookahead Depth:	3.62297
TOTAL: 3.0161e+07	L2C: 2.37079e+07	LLC: 6.45303e+06	GOOD_L2C: 1.50415e+07
Printing all the perceptron weights to: perc_weights_0.csv

Avg Lookahead Depth:	3.62297
TOTAL: 3.0161e+07	L2C: 2.37079e+07	LLC: 6.45303e+06	GOOD_L2C: 1.50415e+07
Printing all the perceptron weights to: perc_weights_0.csv

Avg Lookahead Depth:	3.62297
TOTAL: 3.0161e+07	L2C: 2.37079e+07	LLC: 6.45303e+06	GOOD_L2C: 1.50415e+07
Printing all the perceptron weights to: perc_weights_0.csv

Avg Lookahead Depth:	3.62297
TOTAL: 3.0161e+07	L2C: 2.37079e+07	LLC: 6.45303e+06	GOOD_L2C: 1.50415e+07
Printing all the perceptron weights to: perc_weights_0.csv

Avg Lookahead Depth:	3.62297
TOTAL: 3.0161e+07	L2C: 2.37079e+07	LLC: 6.45303e+06	GOOD_L2C: 1.50415e+07
Printing all the perceptron weights to: perc_weights_0.csv

Avg Lookahead Depth:	3.62297
TOTAL: 3.0161e+07	L2C: 2.37079e+07	LLC: 6.45303e+06	GOOD_L2C: 1.50415e+07
Printing all the perceptron weights to: perc_weights_0.csv

DRAM Statistics
 CHANNEL 0
 RQ ROW_BUFFER_HIT:    2692716  ROW_BUFFER_MISS:    4566253
 DBUS_CONGESTED:   13603070
 WQ ROW_BUFFER_HIT:     202545  ROW_BUFFER_MISS:    2112258  FULL:          0

 CHANNEL 1
 RQ ROW_BUFFER_HIT:    2694878  ROW_BUFFER_MISS:    4584776
 DBUS_CONGESTED:   13603070
 WQ ROW_BUFFER_HIT:     201471  ROW_BUFFER_MISS:    2115658  FULL:          0

 AVG_CONGESTED_CYCLE: 13
