Initialize SIGNATURE TABLE
ST_SET: 1
ST_WAY: 256
ST_TAG_BIT: 16
ST_TAG_MASK: ffff

Initialize PATTERN TABLE
PT_SET: 512
PT_WAY: 4
SIG_DELTA_BIT: 7
C_SIG_BIT: 4
C_DELTA_BIT: 4

Initialize PREFETCH FILTER
FILTER_SET: 1024

Initialize PERCEPTRON
PERC_ENTRIES: 4096
PERC_FEATURES: 9

*** ChampSim Multicore Out-of-Order Simulator ***

Warmup Instructions: 20000000
Simulation Instructions: 100000000
Number of CPUs: 8
LLC sets: 16384
LLC ways: 16
Off-chip DRAM Size: 8192 MB Channels: 2 Width: 64-bit Data Rate: 1600 MT/s

CPU 0 runs /scratch/user/djimenez/champsim-traces/speccpu2006/xz/483.xalancbmk-127B.champsimtrace.xz
CPU 1 runs /scratch/user/djimenez/champsim-traces/speccpu2006/xz/473.astar-153B.champsimtrace.xz
CPU 2 runs /scratch/user/djimenez/champsim-traces/speccpu2006/xz/434.zeusmp-10B.champsimtrace.xz
CPU 3 runs /scratch/user/djimenez/champsim-traces/speccpu2006/xz/410.bwaves-2097B.champsimtrace.xz
CPU 4 runs /scratch/user/djimenez/champsim-traces/speccpu2006/xz/459.GemsFDTD-765B.champsimtrace.xz
CPU 5 runs /scratch/user/djimenez/champsim-traces/speccpu2006/xz/459.GemsFDTD-1320B.champsimtrace.xz
CPU 6 runs /scratch/user/djimenez/champsim-traces/speccpu2006/xz/410.bwaves-1963B.champsimtrace.xz
CPU 7 runs /scratch/user/djimenez/champsim-traces/speccpu2006/xz/450.soplex-247B.champsimtrace.xz
Heartbeat CPU 2 instructions: 10000003 cycles: 4296948 heartbeat IPC: 2.32723 cumulative IPC: 2.32723 (Simulation time: 0 hr 3 min 14 sec) 
Heartbeat CPU 0 instructions: 10000002 cycles: 4522047 heartbeat IPC: 2.21139 cumulative IPC: 2.21139 (Simulation time: 0 hr 3 min 24 sec) 
Heartbeat CPU 1 instructions: 10000002 cycles: 5811952 heartbeat IPC: 1.72059 cumulative IPC: 1.72059 (Simulation time: 0 hr 4 min 22 sec) 
Heartbeat CPU 7 instructions: 10000000 cycles: 5992618 heartbeat IPC: 1.66872 cumulative IPC: 1.66872 (Simulation time: 0 hr 4 min 30 sec) 
Heartbeat CPU 3 instructions: 10000000 cycles: 6590937 heartbeat IPC: 1.51723 cumulative IPC: 1.51723 (Simulation time: 0 hr 4 min 57 sec) 
Heartbeat CPU 6 instructions: 10000002 cycles: 6624453 heartbeat IPC: 1.50956 cumulative IPC: 1.50956 (Simulation time: 0 hr 4 min 58 sec) 
Heartbeat CPU 5 instructions: 10000000 cycles: 6688703 heartbeat IPC: 1.49506 cumulative IPC: 1.49506 (Simulation time: 0 hr 5 min 1 sec) 
Heartbeat CPU 4 instructions: 10000001 cycles: 8131380 heartbeat IPC: 1.2298 cumulative IPC: 1.2298 (Simulation time: 0 hr 6 min 4 sec) 
Heartbeat CPU 2 instructions: 20000000 cycles: 8667580 heartbeat IPC: 2.288 cumulative IPC: 2.30745 (Simulation time: 0 hr 6 min 28 sec) 
Heartbeat CPU 0 instructions: 20000000 cycles: 9040235 heartbeat IPC: 2.21328 cumulative IPC: 2.21233 (Simulation time: 0 hr 6 min 45 sec) 
Heartbeat CPU 7 instructions: 20000000 cycles: 11039144 heartbeat IPC: 1.98156 cumulative IPC: 1.81173 (Simulation time: 0 hr 8 min 16 sec) 
Heartbeat CPU 1 instructions: 20000000 cycles: 11602937 heartbeat IPC: 1.72682 cumulative IPC: 1.7237 (Simulation time: 0 hr 8 min 42 sec) 
Heartbeat CPU 2 instructions: 30000001 cycles: 13037241 heartbeat IPC: 2.28851 cumulative IPC: 0.767034 (Simulation time: 0 hr 9 min 44 sec) 
Heartbeat CPU 3 instructions: 20000000 cycles: 13182100 heartbeat IPC: 1.51718 cumulative IPC: 1.51721 (Simulation time: 0 hr 9 min 50 sec) 
Heartbeat CPU 6 instructions: 20000000 cycles: 13247636 heartbeat IPC: 1.50985 cumulative IPC: 1.5097 (Simulation time: 0 hr 9 min 53 sec) 
Heartbeat CPU 5 instructions: 20000000 cycles: 13427260 heartbeat IPC: 1.484 cumulative IPC: 1.48951 (Simulation time: 0 hr 10 min 2 sec) 
Heartbeat CPU 0 instructions: 30000002 cycles: 13602620 heartbeat IPC: 2.19184 cumulative IPC: 0.735153 (Simulation time: 0 hr 10 min 10 sec) 
Heartbeat CPU 7 instructions: 30000001 cycles: 16053995 heartbeat IPC: 1.99408 cumulative IPC: 0.622898 (Simulation time: 0 hr 12 min 1 sec) 
Heartbeat CPU 4 instructions: 20000000 cycles: 16262192 heartbeat IPC: 1.22989 cumulative IPC: 1.22985 (Simulation time: 0 hr 12 min 10 sec) 

Warmup complete CPU 0 instructions: 35969592 cycles: 16262193 (Simulation time: 0 hr 12 min 10 sec) 
Warmup complete CPU 1 instructions: 28052971 cycles: 16262193 (Simulation time: 0 hr 12 min 10 sec) 
Warmup complete CPU 2 instructions: 37425195 cycles: 16262193 (Simulation time: 0 hr 12 min 10 sec) 
Warmup complete CPU 3 instructions: 24673885 cycles: 16262193 (Simulation time: 0 hr 12 min 10 sec) 
Warmup complete CPU 4 instructions: 20000001 cycles: 16262193 (Simulation time: 0 hr 12 min 10 sec) 
Warmup complete CPU 5 instructions: 24197398 cycles: 16262192 (Simulation time: 0 hr 12 min 10 sec) 
Warmup complete CPU 6 instructions: 24551261 cycles: 16262192 (Simulation time: 0 hr 12 min 10 sec) 
Warmup complete CPU 7 instructions: 30404478 cycles: 16262192 (Simulation time: 0 hr 12 min 10 sec) 

Heartbeat CPU 2 instructions: 40000000 cycles: 18639323 heartbeat IPC: 1.78505 cumulative IPC: 1.08316 (Simulation time: 0 hr 13 min 13 sec) 
Heartbeat CPU 1 instructions: 30000000 cycles: 20537770 heartbeat IPC: 1.11922 cumulative IPC: 0.455384 (Simulation time: 0 hr 14 min 1 sec) 
Heartbeat CPU 3 instructions: 30000002 cycles: 21008716 heartbeat IPC: 1.27769 cumulative IPC: 1.12211 (Simulation time: 0 hr 14 min 12 sec) 
Heartbeat CPU 6 instructions: 30000000 cycles: 21139304 heartbeat IPC: 1.26716 cumulative IPC: 1.11721 (Simulation time: 0 hr 14 min 15 sec) 
Heartbeat CPU 5 instructions: 30000000 cycles: 23988930 heartbeat IPC: 0.94682 cumulative IPC: 0.750977 (Simulation time: 0 hr 15 min 26 sec) 
Heartbeat CPU 2 instructions: 50000003 cycles: 29128021 heartbeat IPC: 0.953407 cumulative IPC: 0.97738 (Simulation time: 0 hr 17 min 39 sec) 
Heartbeat CPU 3 instructions: 40000000 cycles: 29951655 heartbeat IPC: 1.1182 cumulative IPC: 1.11956 (Simulation time: 0 hr 18 min 0 sec) 
Heartbeat CPU 6 instructions: 40000000 cycles: 30104414 heartbeat IPC: 1.11544 cumulative IPC: 1.11606 (Simulation time: 0 hr 18 min 4 sec) 
Heartbeat CPU 0 instructions: 40000000 cycles: 32630496 heartbeat IPC: 0.525545 cumulative IPC: 0.246232 (Simulation time: 0 hr 19 min 9 sec) 
Heartbeat CPU 4 instructions: 30000001 cycles: 33288873 heartbeat IPC: 0.587314 cumulative IPC: 0.587314 (Simulation time: 0 hr 19 min 26 sec) 
Heartbeat CPU 5 instructions: 40000000 cycles: 36959867 heartbeat IPC: 0.770954 cumulative IPC: 0.763496 (Simulation time: 0 hr 20 min 59 sec) 
Heartbeat CPU 3 instructions: 50000000 cycles: 39026663 heartbeat IPC: 1.10193 cumulative IPC: 1.11253 (Simulation time: 0 hr 21 min 52 sec) 
Heartbeat CPU 6 instructions: 50000001 cycles: 39170280 heartbeat IPC: 1.10304 cumulative IPC: 1.11091 (Simulation time: 0 hr 21 min 56 sec) 
Heartbeat CPU 2 instructions: 60000000 cycles: 39668970 heartbeat IPC: 0.948681 cumulative IPC: 0.964456 (Simulation time: 0 hr 22 min 8 sec) 
Heartbeat CPU 7 instructions: 40000000 cycles: 40826758 heartbeat IPC: 0.403669 cumulative IPC: 0.390625 (Simulation time: 0 hr 22 min 39 sec) 
Heartbeat CPU 1 instructions: 40000000 cycles: 42734748 heartbeat IPC: 0.450512 cumulative IPC: 0.451299 (Simulation time: 0 hr 23 min 24 sec) 
Heartbeat CPU 3 instructions: 60000000 cycles: 47928313 heartbeat IPC: 1.12339 cumulative IPC: 1.11558 (Simulation time: 0 hr 25 min 25 sec) 
Heartbeat CPU 6 instructions: 60000000 cycles: 48117599 heartbeat IPC: 1.11765 cumulative IPC: 1.1128 (Simulation time: 0 hr 25 min 30 sec) 
Heartbeat CPU 2 instructions: 70000000 cycles: 49666989 heartbeat IPC: 1.0002 cumulative IPC: 0.975154 (Simulation time: 0 hr 26 min 8 sec) 
Heartbeat CPU 4 instructions: 40000000 cycles: 50150318 heartbeat IPC: 0.593069 cumulative IPC: 0.590177 (Simulation time: 0 hr 26 min 19 sec) 
Heartbeat CPU 3 instructions: 70000001 cycles: 56884760 heartbeat IPC: 1.11651 cumulative IPC: 1.11579 (Simulation time: 0 hr 28 min 56 sec) 
Heartbeat CPU 6 instructions: 70000003 cycles: 57105572 heartbeat IPC: 1.1126 cumulative IPC: 1.11276 (Simulation time: 0 hr 29 min 1 sec) 
Heartbeat CPU 2 instructions: 80000000 cycles: 60541159 heartbeat IPC: 0.91961 cumulative IPC: 0.961513 (Simulation time: 0 hr 30 min 20 sec) 
Heartbeat CPU 1 instructions: 50000000 cycles: 64603377 heartbeat IPC: 0.457276 cumulative IPC: 0.454003 (Simulation time: 0 hr 31 min 49 sec) 
Heartbeat CPU 3 instructions: 80000000 cycles: 65911244 heartbeat IPC: 1.10785 cumulative IPC: 1.11434 (Simulation time: 0 hr 32 min 17 sec) 
Heartbeat CPU 5 instructions: 50000000 cycles: 65956882 heartbeat IPC: 0.344863 cumulative IPC: 0.519222 (Simulation time: 0 hr 32 min 18 sec) 
Heartbeat CPU 6 instructions: 80000000 cycles: 66151235 heartbeat IPC: 1.1055 cumulative IPC: 1.11144 (Simulation time: 0 hr 32 min 22 sec) 
Heartbeat CPU 7 instructions: 50000001 cycles: 66245812 heartbeat IPC: 0.393406 cumulative IPC: 0.392039 (Simulation time: 0 hr 32 min 24 sec) 
Heartbeat CPU 2 instructions: 90000003 cycles: 71676501 heartbeat IPC: 0.898042 cumulative IPC: 0.948759 (Simulation time: 0 hr 34 min 16 sec) 
Heartbeat CPU 3 instructions: 90000001 cycles: 75039069 heartbeat IPC: 1.09555 cumulative IPC: 1.11143 (Simulation time: 0 hr 35 min 29 sec) 
Heartbeat CPU 6 instructions: 90000000 cycles: 75358868 heartbeat IPC: 1.08606 cumulative IPC: 1.10749 (Simulation time: 0 hr 35 min 36 sec) 
Heartbeat CPU 4 instructions: 50000000 cycles: 80183569 heartbeat IPC: 0.332964 cumulative IPC: 0.469327 (Simulation time: 0 hr 37 min 19 sec) 
Heartbeat CPU 0 instructions: 50000000 cycles: 81525314 heartbeat IPC: 0.204521 cumulative IPC: 0.214982 (Simulation time: 0 hr 37 min 48 sec) 
Heartbeat CPU 2 instructions: 100000000 cycles: 82399862 heartbeat IPC: 0.932543 cumulative IPC: 0.94613 (Simulation time: 0 hr 38 min 7 sec) 
Heartbeat CPU 3 instructions: 100000000 cycles: 84386115 heartbeat IPC: 1.06986 cumulative IPC: 1.10572 (Simulation time: 0 hr 38 min 51 sec) 
Heartbeat CPU 6 instructions: 100000000 cycles: 84702000 heartbeat IPC: 1.0703 cumulative IPC: 1.10241 (Simulation time: 0 hr 38 min 57 sec) 
Heartbeat CPU 1 instructions: 60000000 cycles: 85900589 heartbeat IPC: 0.469545 cumulative IPC: 0.458756 (Simulation time: 0 hr 39 min 23 sec) 
Heartbeat CPU 3 instructions: 110000001 cycles: 93564065 heartbeat IPC: 1.08957 cumulative IPC: 1.1038 (Simulation time: 0 hr 42 min 7 sec) 
Heartbeat CPU 2 instructions: 110000001 cycles: 93598814 heartbeat IPC: 0.892941 cumulative IPC: 0.938427 (Simulation time: 0 hr 42 min 8 sec) 
Heartbeat CPU 6 instructions: 110000001 cycles: 93917102 heartbeat IPC: 1.08518 cumulative IPC: 1.10036 (Simulation time: 0 hr 42 min 15 sec) 
Heartbeat CPU 7 instructions: 60000000 cycles: 94083749 heartbeat IPC: 0.359222 cumulative IPC: 0.3803 (Simulation time: 0 hr 42 min 19 sec) 
Heartbeat CPU 3 instructions: 120000000 cycles: 102641360 heartbeat IPC: 1.10165 cumulative IPC: 1.10358 (Simulation time: 0 hr 45 min 22 sec) 
Heartbeat CPU 6 instructions: 120000000 cycles: 103017323 heartbeat IPC: 1.09887 cumulative IPC: 1.10021 (Simulation time: 0 hr 45 min 30 sec) 
Heartbeat CPU 5 instructions: 60000000 cycles: 103871617 heartbeat IPC: 0.26375 cumulative IPC: 0.408662 (Simulation time: 0 hr 45 min 49 sec) 
Heartbeat CPU 2 instructions: 120000000 cycles: 104556981 heartbeat IPC: 0.912561 cumulative IPC: 0.935217 (Simulation time: 0 hr 46 min 4 sec) 
Heartbeat CPU 1 instructions: 70000000 cycles: 105802642 heartbeat IPC: 0.502461 cumulative IPC: 0.46847 (Simulation time: 0 hr 46 min 31 sec) 
Finished CPU 3 instructions: 100000000 cycles: 90715048 cumulative IPC: 1.10235 (Simulation time: 0 hr 46 min 57 sec) 
Finished CPU 6 instructions: 100000001 cycles: 91026175 cumulative IPC: 1.09859 (Simulation time: 0 hr 47 min 3 sec) 
Heartbeat CPU 3 instructions: 130000000 cycles: 111890839 heartbeat IPC: 1.08114 cumulative IPC: 1.10141 (Simulation time: 0 hr 48 min 43 sec) 
Heartbeat CPU 6 instructions: 130000001 cycles: 112362360 heartbeat IPC: 1.07009 cumulative IPC: 1.09728 (Simulation time: 0 hr 48 min 52 sec) 
Heartbeat CPU 2 instructions: 130000001 cycles: 115280065 heartbeat IPC: 0.932568 cumulative IPC: 0.93493 (Simulation time: 0 hr 49 min 56 sec) 
Heartbeat CPU 3 instructions: 140000000 cycles: 120938801 heartbeat IPC: 1.10522 cumulative IPC: 1.10174 (Simulation time: 0 hr 51 min 59 sec) 
Heartbeat CPU 6 instructions: 140000000 cycles: 121503314 heartbeat IPC: 1.09398 cumulative IPC: 1.09699 (Simulation time: 0 hr 52 min 11 sec) 
Heartbeat CPU 7 instructions: 70000000 cycles: 123196954 heartbeat IPC: 0.343487 cumulative IPC: 0.370277 (Simulation time: 0 hr 52 min 49 sec) 
Finished CPU 2 instructions: 100000001 cycles: 107012856 cumulative IPC: 0.934467 (Simulation time: 0 hr 52 min 50 sec) 
Heartbeat CPU 1 instructions: 80000000 cycles: 124927726 heartbeat IPC: 0.522874 cumulative IPC: 0.478045 (Simulation time: 0 hr 53 min 29 sec) 
Heartbeat CPU 2 instructions: 140000000 cycles: 126060629 heartbeat IPC: 0.927595 cumulative IPC: 0.93421 (Simulation time: 0 hr 53 min 58 sec) 
Heartbeat CPU 0 instructions: 60000000 cycles: 126772956 heartbeat IPC: 0.221006 cumulative IPC: 0.217449 (Simulation time: 0 hr 54 min 15 sec) 
Heartbeat CPU 4 instructions: 60000000 cycles: 127786558 heartbeat IPC: 0.210071 cumulative IPC: 0.358666 (Simulation time: 0 hr 54 min 40 sec) 
Heartbeat CPU 3 instructions: 150000002 cycles: 129888519 heartbeat IPC: 1.11735 cumulative IPC: 1.10297 (Simulation time: 0 hr 55 min 31 sec) 
Heartbeat CPU 6 instructions: 150000002 cycles: 130494165 heartbeat IPC: 1.11224 cumulative IPC: 1.09819 (Simulation time: 0 hr 55 min 46 sec) 
Heartbeat CPU 5 instructions: 70000003 cycles: 134928168 heartbeat IPC: 0.321993 cumulative IPC: 0.385979 (Simulation time: 0 hr 57 min 41 sec) 
Heartbeat CPU 2 instructions: 150000000 cycles: 137170131 heartbeat IPC: 0.90013 cumulative IPC: 0.931079 (Simulation time: 0 hr 58 min 37 sec) 
Heartbeat CPU 3 instructions: 160000000 cycles: 138981138 heartbeat IPC: 1.09979 cumulative IPC: 1.10273 (Simulation time: 0 hr 59 min 23 sec) 
Heartbeat CPU 6 instructions: 160000000 cycles: 139591083 heartbeat IPC: 1.09927 cumulative IPC: 1.09827 (Simulation time: 0 hr 59 min 39 sec) 
Heartbeat CPU 1 instructions: 90000000 cycles: 143549472 heartbeat IPC: 0.537007 cumulative IPC: 0.486671 (Simulation time: 1 hr 1 min 18 sec) 
Heartbeat CPU 4 instructions: 70000001 cycles: 144860701 heartbeat IPC: 0.585681 cumulative IPC: 0.388807 (Simulation time: 1 hr 1 min 51 sec) 
Heartbeat CPU 2 instructions: 160000000 cycles: 147737622 heartbeat IPC: 0.946298 cumulative IPC: 0.932302 (Simulation time: 1 hr 3 min 2 sec) 
Heartbeat CPU 3 instructions: 170000000 cycles: 147904305 heartbeat IPC: 1.12068 cumulative IPC: 1.10395 (Simulation time: 1 hr 3 min 6 sec) 
Heartbeat CPU 6 instructions: 170000000 cycles: 148501979 heartbeat IPC: 1.12222 cumulative IPC: 1.09989 (Simulation time: 1 hr 3 min 21 sec) 
Heartbeat CPU 7 instructions: 80000000 cycles: 149362381 heartbeat IPC: 0.382184 cumulative IPC: 0.372618 (Simulation time: 1 hr 3 min 44 sec) 
Heartbeat CPU 5 instructions: 80000000 cycles: 151055018 heartbeat IPC: 0.620084 cumulative IPC: 0.413988 (Simulation time: 1 hr 4 min 26 sec) 
Heartbeat CPU 3 instructions: 180000000 cycles: 156842085 heartbeat IPC: 1.11885 cumulative IPC: 1.1049 (Simulation time: 1 hr 6 min 54 sec) 
Heartbeat CPU 6 instructions: 180000000 cycles: 157495460 heartbeat IPC: 1.11192 cumulative IPC: 1.10065 (Simulation time: 1 hr 7 min 11 sec) 
Heartbeat CPU 2 instructions: 170000001 cycles: 158752442 heartbeat IPC: 0.907868 cumulative IPC: 0.930413 (Simulation time: 1 hr 7 min 44 sec) 
Heartbeat CPU 4 instructions: 80000000 cycles: 161946326 heartbeat IPC: 0.585287 cumulative IPC: 0.41185 (Simulation time: 1 hr 9 min 4 sec) 
Heartbeat CPU 1 instructions: 100000000 cycles: 162588265 heartbeat IPC: 0.525243 cumulative IPC: 0.49169 (Simulation time: 1 hr 9 min 21 sec) 
Heartbeat CPU 3 instructions: 190000003 cycles: 165867189 heartbeat IPC: 1.10802 cumulative IPC: 1.10508 (Simulation time: 1 hr 10 min 45 sec) 
Heartbeat CPU 6 instructions: 190000003 cycles: 166520911 heartbeat IPC: 1.10798 cumulative IPC: 1.10109 (Simulation time: 1 hr 11 min 2 sec) 
Heartbeat CPU 5 instructions: 90000000 cycles: 167205084 heartbeat IPC: 0.619193 cumulative IPC: 0.435944 (Simulation time: 1 hr 11 min 19 sec) 
Heartbeat CPU 2 instructions: 180000000 cycles: 169206387 heartbeat IPC: 0.956577 cumulative IPC: 0.932202 (Simulation time: 1 hr 12 min 10 sec) 
Heartbeat CPU 0 instructions: 70000002 cycles: 173451937 heartbeat IPC: 0.214229 cumulative IPC: 0.216493 (Simulation time: 1 hr 14 min 0 sec) 
Heartbeat CPU 3 instructions: 200000000 cycles: 174776085 heartbeat IPC: 1.12247 cumulative IPC: 1.10606 (Simulation time: 1 hr 14 min 35 sec) 
Heartbeat CPU 6 instructions: 200000000 cycles: 175455441 heartbeat IPC: 1.11925 cumulative IPC: 1.10211 (Simulation time: 1 hr 14 min 53 sec) 
Heartbeat CPU 7 instructions: 90000000 cycles: 176154924 heartbeat IPC: 0.373238 cumulative IPC: 0.372722 (Simulation time: 1 hr 15 min 11 sec) 
Heartbeat CPU 4 instructions: 90000003 cycles: 178788695 heartbeat IPC: 0.593741 cumulative IPC: 0.430699 (Simulation time: 1 hr 16 min 21 sec) 
Heartbeat CPU 2 instructions: 190000003 cycles: 179411810 heartbeat IPC: 0.979872 cumulative IPC: 0.935183 (Simulation time: 1 hr 16 min 38 sec) 
Heartbeat CPU 5 instructions: 100000000 cycles: 180703392 heartbeat IPC: 0.740834 cumulative IPC: 0.460971 (Simulation time: 1 hr 17 min 11 sec) 
Heartbeat CPU 1 instructions: 110000000 cycles: 181362291 heartbeat IPC: 0.532651 cumulative IPC: 0.496348 (Simulation time: 1 hr 17 min 28 sec) 
Heartbeat CPU 3 instructions: 210000000 cycles: 183869023 heartbeat IPC: 1.09975 cumulative IPC: 1.10572 (Simulation time: 1 hr 18 min 34 sec) 
Heartbeat CPU 6 instructions: 210000001 cycles: 184583320 heartbeat IPC: 1.09554 cumulative IPC: 1.10176 (Simulation time: 1 hr 18 min 53 sec) 
Heartbeat CPU 2 instructions: 200000000 cycles: 189926684 heartbeat IPC: 0.951033 cumulative IPC: 0.936143 (Simulation time: 1 hr 21 min 14 sec) 
Heartbeat CPU 3 instructions: 220000000 cycles: 192731612 heartbeat IPC: 1.12834 cumulative IPC: 1.10686 (Simulation time: 1 hr 22 min 28 sec) 
Heartbeat CPU 6 instructions: 220000000 cycles: 193496366 heartbeat IPC: 1.12195 cumulative IPC: 1.10277 (Simulation time: 1 hr 22 min 48 sec) 
Heartbeat CPU 5 instructions: 110000002 cycles: 193619239 heartbeat IPC: 0.774243 cumulative IPC: 0.483785 (Simulation time: 1 hr 22 min 51 sec) 
Heartbeat CPU 4 instructions: 100000000 cycles: 195782796 heartbeat IPC: 0.588439 cumulative IPC: 0.445631 (Simulation time: 1 hr 23 min 47 sec) 
Heartbeat CPU 2 instructions: 210000000 cycles: 200219923 heartbeat IPC: 0.971511 cumulative IPC: 0.938122 (Simulation time: 1 hr 25 min 46 sec) 
Heartbeat CPU 1 instructions: 120000000 cycles: 200431241 heartbeat IPC: 0.524413 cumulative IPC: 0.499253 (Simulation time: 1 hr 25 min 52 sec) 
Heartbeat CPU 7 instructions: 100000000 cycles: 200719962 heartbeat IPC: 0.407083 cumulative IPC: 0.377298 (Simulation time: 1 hr 26 min 0 sec) 
Heartbeat CPU 3 instructions: 230000001 cycles: 201589111 heartbeat IPC: 1.12899 cumulative IPC: 1.10791 (Simulation time: 1 hr 26 min 24 sec) 
Heartbeat CPU 6 instructions: 230000002 cycles: 202397158 heartbeat IPC: 1.1235 cumulative IPC: 1.10376 (Simulation time: 1 hr 26 min 45 sec) 
Heartbeat CPU 5 instructions: 120000000 cycles: 206362482 heartbeat IPC: 0.784729 cumulative IPC: 0.503958 (Simulation time: 1 hr 28 min 24 sec) 
Heartbeat CPU 2 instructions: 220000000 cycles: 210137654 heartbeat IPC: 1.0083 cumulative IPC: 0.941712 (Simulation time: 1 hr 30 min 1 sec) 
Heartbeat CPU 3 instructions: 240000000 cycles: 210436379 heartbeat IPC: 1.13029 cumulative IPC: 1.10893 (Simulation time: 1 hr 30 min 8 sec) 
Finished CPU 5 instructions: 100000003 cycles: 194712378 cumulative IPC: 0.513578 (Simulation time: 1 hr 30 min 22 sec) 
Heartbeat CPU 6 instructions: 240000000 cycles: 211300190 heartbeat IPC: 1.12321 cumulative IPC: 1.10465 (Simulation time: 1 hr 30 min 31 sec) 
Heartbeat CPU 4 instructions: 110000003 cycles: 212444402 heartbeat IPC: 0.600182 cumulative IPC: 0.458757 (Simulation time: 1 hr 31 min 2 sec) 
Heartbeat CPU 0 instructions: 80000000 cycles: 215346868 heartbeat IPC: 0.238692 cumulative IPC: 0.221164 (Simulation time: 1 hr 32 min 14 sec) 
Finished CPU 1 instructions: 100000000 cycles: 200366835 cumulative IPC: 0.499085 (Simulation time: 1 hr 32 min 45 sec) 
Heartbeat CPU 5 instructions: 130000003 cycles: 216748387 heartbeat IPC: 0.962844 cumulative IPC: 0.52773 (Simulation time: 1 hr 32 min 48 sec) 
Heartbeat CPU 3 instructions: 250000003 cycles: 220255952 heartbeat IPC: 1.01837 cumulative IPC: 1.10457 (Simulation time: 1 hr 34 min 17 sec) 
Heartbeat CPU 1 instructions: 130000002 cycles: 220515059 heartbeat IPC: 0.497913 cumulative IPC: 0.499122 (Simulation time: 1 hr 34 min 23 sec) 
Heartbeat CPU 6 instructions: 250000001 cycles: 221183974 heartbeat IPC: 1.01176 cumulative IPC: 1.10017 (Simulation time: 1 hr 34 min 40 sec) 
Heartbeat CPU 2 instructions: 230000001 cycles: 221184742 heartbeat IPC: 0.905216 cumulative IPC: 0.939744 (Simulation time: 1 hr 34 min 40 sec) 
Heartbeat CPU 5 instructions: 140000000 cycles: 226105046 heartbeat IPC: 1.06876 cumulative IPC: 0.551854 (Simulation time: 1 hr 36 min 45 sec) 
Heartbeat CPU 4 instructions: 120000000 cycles: 229670840 heartbeat IPC: 0.580503 cumulative IPC: 0.468585 (Simulation time: 1 hr 38 min 15 sec) 
Finished CPU 4 instructions: 100000001 cycles: 213408656 cumulative IPC: 0.468585 (Simulation time: 1 hr 38 min 15 sec) 
Heartbeat CPU 3 instructions: 260000000 cycles: 229875133 heartbeat IPC: 1.03959 cumulative IPC: 1.10165 (Simulation time: 1 hr 38 min 20 sec) 
Heartbeat CPU 6 instructions: 260000000 cycles: 230812972 heartbeat IPC: 1.03853 cumulative IPC: 1.0974 (Simulation time: 1 hr 38 min 44 sec) 
Heartbeat CPU 2 instructions: 240000000 cycles: 232208755 heartbeat IPC: 0.907111 cumulative IPC: 0.938078 (Simulation time: 1 hr 39 min 19 sec) 
Heartbeat CPU 5 instructions: 150000002 cycles: 235605800 heartbeat IPC: 1.05255 cumulative IPC: 0.573541 (Simulation time: 1 hr 40 min 45 sec) 
Heartbeat CPU 3 instructions: 270000003 cycles: 239543178 heartbeat IPC: 1.03434 cumulative IPC: 1.09873 (Simulation time: 1 hr 42 min 25 sec) 
Heartbeat CPU 1 instructions: 140000000 cycles: 239961519 heartbeat IPC: 0.514232 cumulative IPC: 0.500435 (Simulation time: 1 hr 42 min 36 sec) 
Heartbeat CPU 6 instructions: 270000001 cycles: 240434165 heartbeat IPC: 1.03937 cumulative IPC: 1.09491 (Simulation time: 1 hr 42 min 48 sec) 
Heartbeat CPU 2 instructions: 250000003 cycles: 242859404 heartbeat IPC: 0.93891 cumulative IPC: 0.938118 (Simulation time: 1 hr 43 min 49 sec) 
Heartbeat CPU 5 instructions: 160000000 cycles: 244745844 heartbeat IPC: 1.09409 cumulative IPC: 0.594365 (Simulation time: 1 hr 44 min 36 sec) 
Heartbeat CPU 4 instructions: 130000001 cycles: 246763880 heartbeat IPC: 0.585033 cumulative IPC: 0.47722 (Simulation time: 1 hr 45 min 27 sec) 
Heartbeat CPU 3 instructions: 280000000 cycles: 248999134 heartbeat IPC: 1.05753 cumulative IPC: 1.09706 (Simulation time: 1 hr 46 min 24 sec) 
Heartbeat CPU 6 instructions: 280000000 cycles: 249955487 heartbeat IPC: 1.05027 cumulative IPC: 1.09309 (Simulation time: 1 hr 46 min 49 sec) 
Heartbeat CPU 7 instructions: 110000001 cycles: 253305389 heartbeat IPC: 0.190167 cumulative IPC: 0.335785 (Simulation time: 1 hr 48 min 14 sec) 
Heartbeat CPU 5 instructions: 170000003 cycles: 253967842 heartbeat IPC: 1.08436 cumulative IPC: 0.613375 (Simulation time: 1 hr 48 min 31 sec) 
Heartbeat CPU 2 instructions: 260000000 cycles: 254003942 heartbeat IPC: 0.8973 cumulative IPC: 0.936204 (Simulation time: 1 hr 48 min 32 sec) 
Heartbeat CPU 3 instructions: 290000003 cycles: 258546102 heartbeat IPC: 1.04745 cumulative IPC: 1.0951 (Simulation time: 1 hr 50 min 29 sec) 
Heartbeat CPU 6 instructions: 290000001 cycles: 259512935 heartbeat IPC: 1.0463 cumulative IPC: 1.09126 (Simulation time: 1 hr 50 min 54 sec) 
Heartbeat CPU 1 instructions: 150000001 cycles: 259560924 heartbeat IPC: 0.51022 cumulative IPC: 0.501223 (Simulation time: 1 hr 50 min 55 sec) 
Heartbeat CPU 5 instructions: 180000000 cycles: 263544743 heartbeat IPC: 1.04418 cumulative IPC: 0.630059 (Simulation time: 1 hr 52 min 38 sec) 
Heartbeat CPU 4 instructions: 140000000 cycles: 263869870 heartbeat IPC: 0.58459 cumulative IPC: 0.484638 (Simulation time: 1 hr 52 min 46 sec) 
Heartbeat CPU 2 instructions: 270000000 cycles: 265476033 heartbeat IPC: 0.871681 cumulative IPC: 0.933234 (Simulation time: 1 hr 53 min 27 sec) 
Heartbeat CPU 3 instructions: 300000000 cycles: 268396897 heartbeat IPC: 1.01515 cumulative IPC: 1.09198 (Simulation time: 1 hr 54 min 41 sec) 
Heartbeat CPU 6 instructions: 300000000 cycles: 269341991 heartbeat IPC: 1.01739 cumulative IPC: 1.08839 (Simulation time: 1 hr 55 min 4 sec) 
Heartbeat CPU 0 instructions: 90000001 cycles: 272344630 heartbeat IPC: 0.175445 cumulative IPC: 0.210988 (Simulation time: 1 hr 56 min 20 sec) 
Heartbeat CPU 5 instructions: 190000000 cycles: 273126378 heartbeat IPC: 1.04366 cumulative IPC: 0.645487 (Simulation time: 1 hr 56 min 40 sec) 
Heartbeat CPU 2 instructions: 280000000 cycles: 276629035 heartbeat IPC: 0.89662 cumulative IPC: 0.931665 (Simulation time: 1 hr 58 min 9 sec) 
Heartbeat CPU 3 instructions: 310000000 cycles: 278251586 heartbeat IPC: 1.01475 cumulative IPC: 1.08908 (Simulation time: 1 hr 58 min 49 sec) 
Heartbeat CPU 1 instructions: 160000000 cycles: 278821738 heartbeat IPC: 0.519189 cumulative IPC: 0.502541 (Simulation time: 1 hr 59 min 4 sec) 
Heartbeat CPU 6 instructions: 310000000 cycles: 279184745 heartbeat IPC: 1.01598 cumulative IPC: 1.08568 (Simulation time: 1 hr 59 min 13 sec) 
Heartbeat CPU 7 instructions: 120000000 cycles: 279890323 heartbeat IPC: 0.376153 cumulative IPC: 0.339856 (Simulation time: 1 hr 59 min 31 sec) 
Heartbeat CPU 4 instructions: 150000001 cycles: 281271559 heartbeat IPC: 0.574657 cumulative IPC: 0.490549 (Simulation time: 2 hr 0 min 5 sec) 
Heartbeat CPU 5 instructions: 200000000 cycles: 283302111 heartbeat IPC: 0.98273 cumulative IPC: 0.658338 (Simulation time: 2 hr 0 min 53 sec) 
Heartbeat CPU 2 instructions: 290000003 cycles: 288083567 heartbeat IPC: 0.873017 cumulative IPC: 0.929194 (Simulation time: 2 hr 2 min 47 sec) 
Heartbeat CPU 6 instructions: 320000000 cycles: 289239616 heartbeat IPC: 0.994543 cumulative IPC: 1.08232 (Simulation time: 2 hr 3 min 14 sec) 
Heartbeat CPU 3 instructions: 320000000 cycles: 289375899 heartbeat IPC: 0.898932 cumulative IPC: 1.08133 (Simulation time: 2 hr 3 min 17 sec) 
Heartbeat CPU 5 instructions: 210000003 cycles: 292704313 heartbeat IPC: 1.06358 cumulative IPC: 0.672121 (Simulation time: 2 hr 4 min 36 sec) 
Heartbeat CPU 4 instructions: 160000000 cycles: 298584756 heartbeat IPC: 0.577594 cumulative IPC: 0.495887 (Simulation time: 2 hr 6 min 46 sec) 
Heartbeat CPU 2 instructions: 300000000 cycles: 298870076 heartbeat IPC: 0.927084 cumulative IPC: 0.929114 (Simulation time: 2 hr 6 min 52 sec) 
Heartbeat CPU 6 instructions: 330000000 cycles: 298954405 heartbeat IPC: 1.02936 cumulative IPC: 1.0805 (Simulation time: 2 hr 6 min 54 sec) 
Heartbeat CPU 1 instructions: 170000000 cycles: 299534481 heartbeat IPC: 0.482795 cumulative IPC: 0.501098 (Simulation time: 2 hr 7 min 8 sec) 
Heartbeat CPU 5 instructions: 220000000 cycles: 301920526 heartbeat IPC: 1.08504 cumulative IPC: 0.685443 (Simulation time: 2 hr 8 min 3 sec) 
Heartbeat CPU 3 instructions: 330000000 cycles: 304817984 heartbeat IPC: 0.647581 cumulative IPC: 1.05812 (Simulation time: 2 hr 9 min 9 sec) 
Heartbeat CPU 6 instructions: 340000000 cycles: 308616206 heartbeat IPC: 1.035 cumulative IPC: 1.079 (Simulation time: 2 hr 10 min 35 sec) 
Heartbeat CPU 2 instructions: 310000003 cycles: 309682356 heartbeat IPC: 0.924875 cumulative IPC: 0.928957 (Simulation time: 2 hr 10 min 59 sec) 
Heartbeat CPU 5 instructions: 230000002 cycles: 311303809 heartbeat IPC: 1.06573 cumulative IPC: 0.697538 (Simulation time: 2 hr 11 min 35 sec) 
Heartbeat CPU 4 instructions: 170000001 cycles: 315993134 heartbeat IPC: 0.574436 cumulative IPC: 0.500449 (Simulation time: 2 hr 13 min 13 sec) 
Heartbeat CPU 7 instructions: 130000000 cycles: 316728914 heartbeat IPC: 0.271454 cumulative IPC: 0.331469 (Simulation time: 2 hr 13 min 28 sec) 
Finished CPU 7 instructions: 100000002 cycles: 301423022 cumulative IPC: 0.33176 (Simulation time: 2 hr 13 min 48 sec) 
Heartbeat CPU 3 instructions: 340000000 cycles: 319107002 heartbeat IPC: 0.699838 cumulative IPC: 1.04121 (Simulation time: 2 hr 14 min 19 sec) 
Heartbeat CPU 5 instructions: 240000000 cycles: 320425806 heartbeat IPC: 1.09625 cumulative IPC: 0.709495 (Simulation time: 2 hr 14 min 47 sec) 
Heartbeat CPU 1 instructions: 180000000 cycles: 320500451 heartbeat IPC: 0.476963 cumulative IPC: 0.499434 (Simulation time: 2 hr 14 min 48 sec) 
Heartbeat CPU 2 instructions: 320000000 cycles: 320996077 heartbeat IPC: 0.883882 cumulative IPC: 0.927284 (Simulation time: 2 hr 14 min 59 sec) 
Heartbeat CPU 6 instructions: 350000000 cycles: 321757485 heartbeat IPC: 0.760961 cumulative IPC: 1.06532 (Simulation time: 2 hr 15 min 15 sec) 
Heartbeat CPU 0 instructions: 100000000 cycles: 326245190 heartbeat IPC: 0.185527 cumulative IPC: 0.206561 (Simulation time: 2 hr 16 min 45 sec) 
Heartbeat CPU 5 instructions: 250000001 cycles: 329750061 heartbeat IPC: 1.07247 cumulative IPC: 0.720291 (Simulation time: 2 hr 17 min 59 sec) 
Heartbeat CPU 3 instructions: 350000000 cycles: 332158473 heartbeat IPC: 0.766197 cumulative IPC: 1.02985 (Simulation time: 2 hr 18 min 49 sec) 
Heartbeat CPU 2 instructions: 330000003 cycles: 332968880 heartbeat IPC: 0.835227 cumulative IPC: 0.923804 (Simulation time: 2 hr 19 min 7 sec) 
Heartbeat CPU 4 instructions: 180000000 cycles: 333995148 heartbeat IPC: 0.555493 cumulative IPC: 0.503568 (Simulation time: 2 hr 19 min 29 sec) 
Heartbeat CPU 6 instructions: 360000000 cycles: 337573216 heartbeat IPC: 0.632282 cumulative IPC: 1.044 (Simulation time: 2 hr 20 min 50 sec) 
Heartbeat CPU 5 instructions: 260000000 cycles: 339266699 heartbeat IPC: 1.05079 cumulative IPC: 0.730029 (Simulation time: 2 hr 21 min 29 sec) 
Heartbeat CPU 1 instructions: 190000003 cycles: 339736401 heartbeat IPC: 0.51986 cumulative IPC: 0.500649 (Simulation time: 2 hr 21 min 39 sec) 
Heartbeat CPU 3 instructions: 360000000 cycles: 342458322 heartbeat IPC: 0.970888 cumulative IPC: 1.02799 (Simulation time: 2 hr 22 min 38 sec) 
Heartbeat CPU 2 instructions: 340000000 cycles: 344196567 heartbeat IPC: 0.890655 cumulative IPC: 0.922669 (Simulation time: 2 hr 23 min 17 sec) 
Heartbeat CPU 5 instructions: 270000002 cycles: 349037957 heartbeat IPC: 1.02341 cumulative IPC: 0.738643 (Simulation time: 2 hr 25 min 5 sec) 
Heartbeat CPU 7 instructions: 140000000 cycles: 349090235 heartbeat IPC: 0.309011 cumulative IPC: 0.329286 (Simulation time: 2 hr 25 min 6 sec) 
Heartbeat CPU 4 instructions: 190000003 cycles: 351551415 heartbeat IPC: 0.569597 cumulative IPC: 0.507025 (Simulation time: 2 hr 26 min 3 sec) 
Heartbeat CPU 6 instructions: 370000002 cycles: 352030127 heartbeat IPC: 0.691711 cumulative IPC: 1.02883 (Simulation time: 2 hr 26 min 13 sec) 
Heartbeat CPU 3 instructions: 370000000 cycles: 352458079 heartbeat IPC: 1.00002 cumulative IPC: 1.02716 (Simulation time: 2 hr 26 min 22 sec) 
Heartbeat CPU 2 instructions: 350000002 cycles: 355943638 heartbeat IPC: 0.851276 cumulative IPC: 0.9202 (Simulation time: 2 hr 27 min 37 sec) 
Heartbeat CPU 5 instructions: 280000000 cycles: 358791171 heartbeat IPC: 1.0253 cumulative IPC: 0.746806 (Simulation time: 2 hr 28 min 41 sec) 
Heartbeat CPU 1 instructions: 200000000 cycles: 359500370 heartbeat IPC: 0.505971 cumulative IPC: 0.500955 (Simulation time: 2 hr 28 min 57 sec) 
Heartbeat CPU 3 instructions: 380000000 cycles: 362548234 heartbeat IPC: 0.991065 cumulative IPC: 1.02611 (Simulation time: 2 hr 30 min 7 sec) 
Heartbeat CPU 6 instructions: 380000000 cycles: 365026270 heartbeat IPC: 0.769459 cumulative IPC: 1.01917 (Simulation time: 2 hr 31 min 5 sec) 
Heartbeat CPU 2 instructions: 360000000 cycles: 367267717 heartbeat IPC: 0.883074 cumulative IPC: 0.919002 (Simulation time: 2 hr 31 min 57 sec) 
Heartbeat CPU 5 instructions: 290000001 cycles: 369096049 heartbeat IPC: 0.970414 cumulative IPC: 0.753336 (Simulation time: 2 hr 32 min 42 sec) 
Heartbeat CPU 4 instructions: 200000000 cycles: 369325046 heartbeat IPC: 0.562631 cumulative IPC: 0.509824 (Simulation time: 2 hr 32 min 47 sec) 
Heartbeat CPU 3 instructions: 390000001 cycles: 372833156 heartbeat IPC: 0.972297 cumulative IPC: 1.02455 (Simulation time: 2 hr 34 min 12 sec) 
Heartbeat CPU 6 instructions: 390000000 cycles: 375119036 heartbeat IPC: 0.990809 cumulative IPC: 1.01837 (Simulation time: 2 hr 35 min 9 sec) 
Heartbeat CPU 2 instructions: 370000003 cycles: 378103189 heartbeat IPC: 0.922895 cumulative IPC: 0.919119 (Simulation time: 2 hr 36 min 24 sec) 
Heartbeat CPU 5 instructions: 300000000 cycles: 379076967 heartbeat IPC: 1.00191 cumulative IPC: 0.760175 (Simulation time: 2 hr 36 min 49 sec) 
Heartbeat CPU 1 instructions: 210000000 cycles: 380440596 heartbeat IPC: 0.47755 cumulative IPC: 0.49961 (Simulation time: 2 hr 37 min 24 sec) 
Heartbeat CPU 7 instructions: 150000002 cycles: 381004981 heartbeat IPC: 0.313335 cumulative IPC: 0.32789 (Simulation time: 2 hr 37 min 39 sec) 
Heartbeat CPU 3 instructions: 400000000 cycles: 382582140 heartbeat IPC: 1.02575 cumulative IPC: 1.02459 (Simulation time: 2 hr 38 min 18 sec) 
Heartbeat CPU 4 instructions: 210000001 cycles: 383434029 heartbeat IPC: 0.708768 cumulative IPC: 0.517469 (Simulation time: 2 hr 38 min 39 sec) 
Heartbeat CPU 6 instructions: 400000000 cycles: 384933035 heartbeat IPC: 1.01895 cumulative IPC: 1.01838 (Simulation time: 2 hr 39 min 15 sec) 
Heartbeat CPU 5 instructions: 310000003 cycles: 388917398 heartbeat IPC: 1.01622 cumulative IPC: 0.766936 (Simulation time: 2 hr 40 min 55 sec) 
Heartbeat CPU 2 instructions: 380000000 cycles: 388970045 heartbeat IPC: 0.920229 cumulative IPC: 0.919151 (Simulation time: 2 hr 40 min 56 sec) 
Heartbeat CPU 0 instructions: 110000003 cycles: 389879241 heartbeat IPC: 0.157149 cumulative IPC: 0.198145 (Simulation time: 2 hr 41 min 19 sec) 
Heartbeat CPU 3 instructions: 410000003 cycles: 392426346 heartbeat IPC: 1.01583 cumulative IPC: 1.02436 (Simulation time: 2 hr 42 min 23 sec) 
Heartbeat CPU 6 instructions: 410000001 cycles: 394816067 heartbeat IPC: 1.01184 cumulative IPC: 1.01821 (Simulation time: 2 hr 43 min 21 sec) 
Heartbeat CPU 4 instructions: 220000000 cycles: 397454667 heartbeat IPC: 0.713234 cumulative IPC: 0.524669 (Simulation time: 2 hr 44 min 28 sec) 
Heartbeat CPU 5 instructions: 320000000 cycles: 398830619 heartbeat IPC: 1.00875 cumulative IPC: 0.773202 (Simulation time: 2 hr 45 min 2 sec) 
Heartbeat CPU 2 instructions: 390000000 cycles: 400353760 heartbeat IPC: 0.878448 cumulative IPC: 0.917945 (Simulation time: 2 hr 45 min 38 sec) 
Heartbeat CPU 1 instructions: 220000000 cycles: 400538817 heartbeat IPC: 0.497556 cumulative IPC: 0.499502 (Simulation time: 2 hr 45 min 43 sec) 
Heartbeat CPU 3 instructions: 420000000 cycles: 402636558 heartbeat IPC: 0.979411 cumulative IPC: 1.02317 (Simulation time: 2 hr 46 min 34 sec) 
Heartbeat CPU 6 instructions: 420000000 cycles: 404932723 heartbeat IPC: 0.988469 cumulative IPC: 1.01744 (Simulation time: 2 hr 47 min 30 sec) 
Heartbeat CPU 5 instructions: 330000002 cycles: 408885096 heartbeat IPC: 0.994582 cumulative IPC: 0.778871 (Simulation time: 2 hr 49 min 10 sec) 
Heartbeat CPU 2 instructions: 400000000 cycles: 411028650 heartbeat IPC: 0.936778 cumulative IPC: 0.918454 (Simulation time: 2 hr 50 min 4 sec) 
Heartbeat CPU 4 instructions: 230000000 cycles: 411446509 heartbeat IPC: 0.714702 cumulative IPC: 0.531398 (Simulation time: 2 hr 50 min 14 sec) 
Heartbeat CPU 3 instructions: 430000001 cycles: 412422368 heartbeat IPC: 1.02189 cumulative IPC: 1.02314 (Simulation time: 2 hr 50 min 37 sec) 
Heartbeat CPU 6 instructions: 430000002 cycles: 414761396 heartbeat IPC: 1.01743 cumulative IPC: 1.01744 (Simulation time: 2 hr 51 min 33 sec) 
Heartbeat CPU 7 instructions: 160000000 cycles: 416278021 heartbeat IPC: 0.283503 cumulative IPC: 0.323976 (Simulation time: 2 hr 52 min 9 sec) 
Heartbeat CPU 5 instructions: 340000000 cycles: 418785149 heartbeat IPC: 1.0101 cumulative IPC: 0.784558 (Simulation time: 2 hr 53 min 12 sec) 
Heartbeat CPU 2 instructions: 410000000 cycles: 422167994 heartbeat IPC: 0.897719 cumulative IPC: 0.917885 (Simulation time: 2 hr 54 min 36 sec) 
Heartbeat CPU 3 instructions: 440000000 cycles: 422252042 heartbeat IPC: 1.01733 cumulative IPC: 1.023 (Simulation time: 2 hr 54 min 38 sec) 
Heartbeat CPU 1 instructions: 230000000 cycles: 422540423 heartbeat IPC: 0.454512 cumulative IPC: 0.497066 (Simulation time: 2 hr 54 min 44 sec) 
Heartbeat CPU 6 instructions: 440000000 cycles: 424615463 heartbeat IPC: 1.01481 cumulative IPC: 1.01738 (Simulation time: 2 hr 55 min 35 sec) 
Heartbeat CPU 4 instructions: 240000000 cycles: 425470070 heartbeat IPC: 0.713086 cumulative IPC: 0.537624 (Simulation time: 2 hr 55 min 56 sec) 
Heartbeat CPU 5 instructions: 350000003 cycles: 428876745 heartbeat IPC: 0.990924 cumulative IPC: 0.789605 (Simulation time: 2 hr 57 min 21 sec) 
Heartbeat CPU 3 instructions: 450000001 cycles: 432373000 heartbeat IPC: 0.988049 cumulative IPC: 1.02215 (Simulation time: 2 hr 58 min 45 sec) 
Heartbeat CPU 2 instructions: 420000000 cycles: 433550985 heartbeat IPC: 0.878504 cumulative IPC: 0.916811 (Simulation time: 2 hr 59 min 14 sec) 
Heartbeat CPU 6 instructions: 450000001 cycles: 434670186 heartbeat IPC: 0.994558 cumulative IPC: 1.01683 (Simulation time: 2 hr 59 min 42 sec) 
Heartbeat CPU 5 instructions: 360000000 cycles: 438623713 heartbeat IPC: 1.02596 cumulative IPC: 0.79506 (Simulation time: 3 hr 1 min 22 sec) 
Heartbeat CPU 4 instructions: 250000000 cycles: 439463207 heartbeat IPC: 0.714636 cumulative IPC: 0.543477 (Simulation time: 3 hr 1 min 43 sec) 
Heartbeat CPU 3 instructions: 460000000 cycles: 442050538 heartbeat IPC: 1.03332 cumulative IPC: 1.0224 (Simulation time: 3 hr 2 min 45 sec) 
Heartbeat CPU 1 instructions: 240000000 cycles: 442707155 heartbeat IPC: 0.495866 cumulative IPC: 0.497009 (Simulation time: 3 hr 3 min 2 sec) 
Heartbeat CPU 2 instructions: 430000000 cycles: 444354904 heartbeat IPC: 0.92559 cumulative IPC: 0.917032 (Simulation time: 3 hr 3 min 42 sec) 
Heartbeat CPU 6 instructions: 460000000 cycles: 444357634 heartbeat IPC: 1.03226 cumulative IPC: 1.01718 (Simulation time: 3 hr 3 min 42 sec) 
Heartbeat CPU 5 instructions: 370000001 cycles: 448313284 heartbeat IPC: 1.03204 cumulative IPC: 0.800374 (Simulation time: 3 hr 5 min 21 sec) 
Heartbeat CPU 7 instructions: 170000002 cycles: 449857455 heartbeat IPC: 0.297801 cumulative IPC: 0.321949 (Simulation time: 3 hr 5 min 59 sec) 
Heartbeat CPU 0 instructions: 120000000 cycles: 451319142 heartbeat IPC: 0.162761 cumulative IPC: 0.193148 (Simulation time: 3 hr 6 min 35 sec) 
Heartbeat CPU 3 instructions: 470000002 cycles: 451845379 heartbeat IPC: 1.02095 cumulative IPC: 1.02237 (Simulation time: 3 hr 6 min 48 sec) 
Heartbeat CPU 4 instructions: 260000000 cycles: 453486429 heartbeat IPC: 0.713103 cumulative IPC: 0.548917 (Simulation time: 3 hr 7 min 27 sec) 
Heartbeat CPU 6 instructions: 470000000 cycles: 454176306 heartbeat IPC: 1.01847 cumulative IPC: 1.01721 (Simulation time: 3 hr 7 min 44 sec) 
Heartbeat CPU 2 instructions: 440000000 cycles: 455840471 heartbeat IPC: 0.870658 cumulative IPC: 0.915821 (Simulation time: 3 hr 8 min 26 sec) 
Heartbeat CPU 5 instructions: 380000000 cycles: 458512054 heartbeat IPC: 0.98051 cumulative IPC: 0.804528 (Simulation time: 3 hr 9 min 31 sec) 
Heartbeat CPU 3 instructions: 480000000 cycles: 461885237 heartbeat IPC: 0.99603 cumulative IPC: 1.02177 (Simulation time: 3 hr 10 min 53 sec) 
Heartbeat CPU 1 instructions: 250000001 cycles: 463977954 heartbeat IPC: 0.470128 cumulative IPC: 0.495732 (Simulation time: 3 hr 11 min 45 sec) 
Heartbeat CPU 6 instructions: 480000000 cycles: 464191504 heartbeat IPC: 0.998483 cumulative IPC: 1.01679 (Simulation time: 3 hr 11 min 50 sec) 
Heartbeat CPU 2 instructions: 450000000 cycles: 466874655 heartbeat IPC: 0.906275 cumulative IPC: 0.915587 (Simulation time: 3 hr 12 min 58 sec) 
Heartbeat CPU 4 instructions: 270000003 cycles: 467507608 heartbeat IPC: 0.713207 cumulative IPC: 0.554022 (Simulation time: 3 hr 13 min 15 sec) 
Heartbeat CPU 5 instructions: 390000000 cycles: 468422202 heartbeat IPC: 1.00907 cumulative IPC: 0.809011 (Simulation time: 3 hr 13 min 38 sec) 
Heartbeat CPU 3 instructions: 490000002 cycles: 471626625 heartbeat IPC: 1.02655 cumulative IPC: 1.02188 (Simulation time: 3 hr 14 min 56 sec) 
Heartbeat CPU 6 instructions: 490000001 cycles: 473954338 heartbeat IPC: 1.02429 cumulative IPC: 1.01695 (Simulation time: 3 hr 15 min 52 sec) 
Heartbeat CPU 2 instructions: 460000000 cycles: 477494980 heartbeat IPC: 0.941591 cumulative IPC: 0.916186 (Simulation time: 3 hr 17 min 21 sec) 
Heartbeat CPU 5 instructions: 400000000 cycles: 478250762 heartbeat IPC: 1.01744 cumulative IPC: 0.813446 (Simulation time: 3 hr 17 min 40 sec) 
Heartbeat CPU 3 instructions: 500000000 cycles: 481383276 heartbeat IPC: 1.02494 cumulative IPC: 1.02194 (Simulation time: 3 hr 18 min 58 sec) 
Heartbeat CPU 4 instructions: 280000000 cycles: 481496887 heartbeat IPC: 0.714833 cumulative IPC: 0.558858 (Simulation time: 3 hr 19 min 0 sec) 
Heartbeat CPU 7 instructions: 180000000 cycles: 482158722 heartbeat IPC: 0.309585 cumulative IPC: 0.321092 (Simulation time: 3 hr 19 min 17 sec) 
Heartbeat CPU 1 instructions: 260000000 cycles: 483265548 heartbeat IPC: 0.518468 cumulative IPC: 0.496671 (Simulation time: 3 hr 19 min 43 sec) 
Heartbeat CPU 6 instructions: 500000000 cycles: 483715550 heartbeat IPC: 1.02446 cumulative IPC: 1.0171 (Simulation time: 3 hr 19 min 55 sec) 
Heartbeat CPU 5 instructions: 410000002 cycles: 488257216 heartbeat IPC: 0.999355 cumulative IPC: 0.817387 (Simulation time: 3 hr 21 min 46 sec) 
Heartbeat CPU 2 instructions: 470000000 cycles: 489164448 heartbeat IPC: 0.856937 cumulative IPC: 0.914724 (Simulation time: 3 hr 22 min 8 sec) 
Heartbeat CPU 3 instructions: 510000001 cycles: 491292996 heartbeat IPC: 1.00911 cumulative IPC: 1.02167 (Simulation time: 3 hr 23 min 2 sec) 
Heartbeat CPU 6 instructions: 510000001 cycles: 493618251 heartbeat IPC: 1.00983 cumulative IPC: 1.01695 (Simulation time: 3 hr 24 min 0 sec) 
Heartbeat CPU 4 instructions: 290000000 cycles: 495513577 heartbeat IPC: 0.713435 cumulative IPC: 0.563379 (Simulation time: 3 hr 24 min 49 sec) 
Heartbeat CPU 5 instructions: 420000000 cycles: 497752005 heartbeat IPC: 1.05321 cumulative IPC: 0.822037 (Simulation time: 3 hr 25 min 46 sec) 
Heartbeat CPU 2 instructions: 480000000 cycles: 500397204 heartbeat IPC: 0.890253 cumulative IPC: 0.914156 (Simulation time: 3 hr 26 min 49 sec) 
Heartbeat CPU 3 instructions: 520000000 cycles: 500983047 heartbeat IPC: 1.03199 cumulative IPC: 1.02188 (Simulation time: 3 hr 27 min 4 sec) 
Heartbeat CPU 1 instructions: 270000003 cycles: 502111811 heartbeat IPC: 0.530609 cumulative IPC: 0.497987 (Simulation time: 3 hr 27 min 32 sec) 
Heartbeat CPU 6 instructions: 520000000 cycles: 503509290 heartbeat IPC: 1.01102 cumulative IPC: 1.01683 (Simulation time: 3 hr 28 min 6 sec) 
Heartbeat CPU 5 instructions: 430000002 cycles: 507560648 heartbeat IPC: 1.01951 cumulative IPC: 0.82598 (Simulation time: 3 hr 29 min 49 sec) 
Heartbeat CPU 4 instructions: 300000000 cycles: 509521925 heartbeat IPC: 0.71386 cumulative IPC: 0.567652 (Simulation time: 3 hr 30 min 38 sec) 
Heartbeat CPU 3 instructions: 530000002 cycles: 510797144 heartbeat IPC: 1.01894 cumulative IPC: 1.02182 (Simulation time: 3 hr 31 min 9 sec) 
Heartbeat CPU 0 instructions: 130000001 cycles: 511013607 heartbeat IPC: 0.16752 cumulative IPC: 0.190056 (Simulation time: 3 hr 31 min 15 sec) 
Heartbeat CPU 2 instructions: 490000000 cycles: 511180298 heartbeat IPC: 0.927378 cumulative IPC: 0.914444 (Simulation time: 3 hr 31 min 19 sec) 
Heartbeat CPU 6 instructions: 530000001 cycles: 513279540 heartbeat IPC: 1.02352 cumulative IPC: 1.01696 (Simulation time: 3 hr 32 min 12 sec) 
Heartbeat CPU 7 instructions: 190000001 cycles: 513949357 heartbeat IPC: 0.314558 cumulative IPC: 0.320674 (Simulation time: 3 hr 32 min 28 sec) 
Heartbeat CPU 5 instructions: 440000000 cycles: 517906801 heartbeat IPC: 0.966543 cumulative IPC: 0.828879 (Simulation time: 3 hr 34 min 4 sec) 
Heartbeat CPU 3 instructions: 540000000 cycles: 520860768 heartbeat IPC: 0.993678 cumulative IPC: 1.02126 (Simulation time: 3 hr 35 min 17 sec) 
Heartbeat CPU 1 instructions: 280000000 cycles: 521413707 heartbeat IPC: 0.518084 cumulative IPC: 0.498755 (Simulation time: 3 hr 35 min 31 sec) 
Heartbeat CPU 2 instructions: 500000000 cycles: 522433185 heartbeat IPC: 0.888661 cumulative IPC: 0.913871 (Simulation time: 3 hr 35 min 56 sec) 
Heartbeat CPU 6 instructions: 540000000 cycles: 523268142 heartbeat IPC: 1.00114 cumulative IPC: 1.01665 (Simulation time: 3 hr 36 min 17 sec) 
Heartbeat CPU 4 instructions: 310000003 cycles: 523533307 heartbeat IPC: 0.713706 cumulative IPC: 0.571686 (Simulation time: 3 hr 36 min 24 sec) 
Heartbeat CPU 5 instructions: 450000002 cycles: 527766355 heartbeat IPC: 1.01424 cumulative IPC: 0.832452 (Simulation time: 3 hr 38 min 9 sec) 
Heartbeat CPU 3 instructions: 550000002 cycles: 530898933 heartbeat IPC: 0.996198 cumulative IPC: 1.02077 (Simulation time: 3 hr 39 min 24 sec) 
Heartbeat CPU 2 instructions: 510000003 cycles: 533243665 heartbeat IPC: 0.925029 cumulative IPC: 0.914104 (Simulation time: 3 hr 40 min 22 sec) 
Heartbeat CPU 6 instructions: 550000002 cycles: 533399301 heartbeat IPC: 0.987054 cumulative IPC: 1.01607 (Simulation time: 3 hr 40 min 26 sec) 
Heartbeat CPU 4 instructions: 320000000 cycles: 535927533 heartbeat IPC: 0.806827 cumulative IPC: 0.577295 (Simulation time: 3 hr 41 min 30 sec) 
Heartbeat CPU 5 instructions: 460000000 cycles: 537690404 heartbeat IPC: 1.00765 cumulative IPC: 0.835786 (Simulation time: 3 hr 42 min 14 sec) 
Heartbeat CPU 1 instructions: 290000001 cycles: 540601029 heartbeat IPC: 0.521178 cumulative IPC: 0.499576 (Simulation time: 3 hr 43 min 26 sec) 
Heartbeat CPU 3 instructions: 560000000 cycles: 540829988 heartbeat IPC: 1.00694 cumulative IPC: 1.02051 (Simulation time: 3 hr 43 min 31 sec) 
Finished CPU 0 instructions: 100000000 cycles: 526964772 cumulative IPC: 0.189766 (Simulation time: 3 hr 44 min 32 sec) 

CPU 0 Branch Prediction Accuracy: 99.1003% MPKI: 2.00353

CPU 1 Branch Prediction Accuracy: 96.0432% MPKI: 3.96952

CPU 2 Branch Prediction Accuracy: 99.7004% MPKI: 0.162418

CPU 3 Branch Prediction Accuracy: 97.8573% MPKI: 0.728574

CPU 4 Branch Prediction Accuracy: 99.7443% MPKI: 0.0145783

CPU 5 Branch Prediction Accuracy: 99.5253% MPKI: 0.0864109

CPU 6 Branch Prediction Accuracy: 97.8594% MPKI: 0.728583

CPU 7 Branch Prediction Accuracy: 95.222% MPKI: 8.0916

ChampSim completed all CPUs

Total Simulation Statistics (not including warmup)

CPU 0 cumulative IPC: 0.189766 instructions: 100000000 cycles: 526964772
L1D TOTAL     ACCESS:   20589972  HIT:   17792822  MISS:    2797150
L1D LOAD      ACCESS:   17210434  HIT:   14435270  MISS:    2775164
L1D RFO       ACCESS:    3379538  HIT:    3357552  MISS:      21986
L1D PREFETCH  ACCESS:          0  HIT:          0  MISS:          0
L1D WRITEBACK ACCESS:          0  HIT:          0  MISS:          0
L1I TOTAL     ACCESS:   32736495  HIT:   32603877  MISS:     132618
L1I LOAD      ACCESS:   32736495  HIT:   32603877  MISS:     132618
L1I RFO       ACCESS:          0  HIT:          0  MISS:          0
L1I PREFETCH  ACCESS:          0  HIT:          0  MISS:          0
L1I WRITEBACK ACCESS:          0  HIT:          0  MISS:          0
L2C TOTAL     ACCESS:    5178544  HIT:    1421874  MISS:    3756670
L2C LOAD      ACCESS:    2907778  HIT:     720802  MISS:    2186976
L2C RFO       ACCESS:      21985  HIT:       8370  MISS:      13615
L2C PREFETCH  ACCESS:    2200463  HIT:     645560  MISS:    1554903
L2C WRITEBACK ACCESS:      48318  HIT:      47142  MISS:       1176

Avg Lookahead Depth:	3.19824
TOTAL: 7.72949e+07	L2C: 6.30221e+07	LLC: 1.42727e+07	GOOD_L2C: 3.59386e+07
Printing all the perceptron weights to: perc_weights_0.csv
LLC TOTAL     ACCESS:    4663841  HIT:     442601  MISS:    4221240
LLC LOAD      ACCESS:    1901567  HIT:     190259  MISS:    1711308
LLC RFO       ACCESS:      13520  HIT:        979  MISS:      12541
LLC PREFETCH  ACCESS:    2725289  HIT:     228481  MISS:    2496808
LLC WRITEBACK ACCESS:      23465  HIT:      22882  MISS:        583

CPU 1 cumulative IPC: 0.499705 instructions: 263326807 cycles: 526964772
L1D TOTAL     ACCESS:   90916018  HIT:   89883320  MISS:    1032698
L1D LOAD      ACCESS:   56763953  HIT:   55894751  MISS:     869202
L1D RFO       ACCESS:   34152065  HIT:   33988569  MISS:     163496
L1D PREFETCH  ACCESS:          0  HIT:          0  MISS:          0
L1D WRITEBACK ACCESS:          0  HIT:          0  MISS:          0
L1I TOTAL     ACCESS:   77068162  HIT:   77068162  MISS:          0
L1I LOAD      ACCESS:   77068162  HIT:   77068162  MISS:          0
L1I RFO       ACCESS:          0  HIT:          0  MISS:          0
L1I PREFETCH  ACCESS:          0  HIT:          0  MISS:          0
L1I WRITEBACK ACCESS:          0  HIT:          0  MISS:          0
L2C TOTAL     ACCESS:    1869133  HIT:    1305265  MISS:     563868
L2C LOAD      ACCESS:     869028  HIT:     583518  MISS:     285510
L2C RFO       ACCESS:     163495  HIT:      21947  MISS:     141548
L2C PREFETCH  ACCESS:     345530  HIT:     209147  MISS:     136383
L2C WRITEBACK ACCESS:     491080  HIT:     490653  MISS:        427

Avg Lookahead Depth:	3.19824
TOTAL: 7.72949e+07	L2C: 6.30221e+07	LLC: 1.42727e+07	GOOD_L2C: 3.59386e+07
Printing all the perceptron weights to: perc_weights_0.csv
LLC TOTAL     ACCESS:    1109514  HIT:     309635  MISS:     799879
LLC LOAD      ACCESS:     279725  HIT:      68652  MISS:     211073
LLC RFO       ACCESS:     141548  HIT:       1628  MISS:     139920
LLC PREFETCH  ACCESS:     338071  HIT:      97370  MISS:     240701
LLC WRITEBACK ACCESS:     350170  HIT:     141985  MISS:     208185

CPU 2 cumulative IPC: 0.91415 instructions: 481724875 cycles: 526964772
L1D TOTAL     ACCESS:  107920112  HIT:   97096289  MISS:   10823823
L1D LOAD      ACCESS:   73025503  HIT:   65163155  MISS:    7862348
L1D RFO       ACCESS:   34894609  HIT:   31933134  MISS:    2961475
L1D PREFETCH  ACCESS:          0  HIT:          0  MISS:          0
L1D WRITEBACK ACCESS:          0  HIT:          0  MISS:          0
L1I TOTAL     ACCESS:  126096007  HIT:  126096007  MISS:          0
L1I LOAD      ACCESS:  126096007  HIT:  126096007  MISS:          0
L1I RFO       ACCESS:          0  HIT:          0  MISS:          0
L1I PREFETCH  ACCESS:          0  HIT:          0  MISS:          0
L1I WRITEBACK ACCESS:          0  HIT:          0  MISS:          0
L2C TOTAL     ACCESS:   20556987  HIT:   18652507  MISS:    1904480
L2C LOAD      ACCESS:    7862342  HIT:    7081981  MISS:     780361
L2C RFO       ACCESS:    2946156  HIT:    2648039  MISS:     298117
L2C PREFETCH  ACCESS:    3862368  HIT:    3039716  MISS:     822652
L2C WRITEBACK ACCESS:    5886121  HIT:    5882771  MISS:       3350

Avg Lookahead Depth:	3.19824
TOTAL: 7.72949e+07	L2C: 6.30221e+07	LLC: 1.42727e+07	GOOD_L2C: 3.59386e+07
Printing all the perceptron weights to: perc_weights_0.csv
LLC TOTAL     ACCESS:    3269347  HIT:    1505060  MISS:    1764287
LLC LOAD      ACCESS:     712842  HIT:     328131  MISS:     384711
LLC RFO       ACCESS:     298115  HIT:      97137  MISS:     200978
LLC PREFETCH  ACCESS:    1660442  HIT:     516000  MISS:    1144442
LLC WRITEBACK ACCESS:     597948  HIT:     563792  MISS:      34156

CPU 3 cumulative IPC: 1.02033 instructions: 537677067 cycles: 526964772
L1D TOTAL     ACCESS:  253372188  HIT:  242423376  MISS:   10948812
L1D LOAD      ACCESS:  214753722  HIT:  204080182  MISS:   10673540
L1D RFO       ACCESS:   38618466  HIT:   38343194  MISS:     275272
L1D PREFETCH  ACCESS:          0  HIT:          0  MISS:          0
L1D WRITEBACK ACCESS:          0  HIT:          0  MISS:          0
L1I TOTAL     ACCESS:  124960701  HIT:  124960647  MISS:         54
L1I LOAD      ACCESS:  124960701  HIT:  124960647  MISS:         54
L1I RFO       ACCESS:          0  HIT:          0  MISS:          0
L1I PREFETCH  ACCESS:          0  HIT:          0  MISS:          0
L1I WRITEBACK ACCESS:          0  HIT:          0  MISS:          0
L2C TOTAL     ACCESS:   24284399  HIT:   14319561  MISS:    9964838
L2C LOAD      ACCESS:   10670561  HIT:    9877303  MISS:     793258
L2C RFO       ACCESS:     272114  HIT:      34161  MISS:     237953
L2C PREFETCH  ACCESS:   12855706  HIT:    3925326  MISS:    8930380
L2C WRITEBACK ACCESS:     486018  HIT:     482771  MISS:       3247

Avg Lookahead Depth:	3.19824
TOTAL: 7.72949e+07	L2C: 6.30221e+07	LLC: 1.42727e+07	GOOD_L2C: 3.59386e+07
Printing all the perceptron weights to: perc_weights_0.csv
LLC TOTAL     ACCESS:   11045423  HIT:    1090661  MISS:    9954762
LLC LOAD      ACCESS:     332459  HIT:      13188  MISS:     319271
LLC RFO       ACCESS:     237953  HIT:          1  MISS:     237952
LLC PREFETCH  ACCESS:   10064189  HIT:     667100  MISS:    9397089
LLC WRITEBACK ACCESS:     410822  HIT:     410372  MISS:        450

CPU 4 cumulative IPC: 0.579129 instructions: 305180595 cycles: 526964772
L1D TOTAL     ACCESS:  178425867  HIT:  175078424  MISS:    3347443
L1D LOAD      ACCESS:  157976405  HIT:  154629241  MISS:    3347164
L1D RFO       ACCESS:   20449462  HIT:   20449183  MISS:        279
L1D PREFETCH  ACCESS:          0  HIT:          0  MISS:          0
L1D WRITEBACK ACCESS:          0  HIT:          0  MISS:          0
L1I TOTAL     ACCESS:   85206057  HIT:   85205791  MISS:        266
L1I LOAD      ACCESS:   85206057  HIT:   85205791  MISS:        266
L1I RFO       ACCESS:          0  HIT:          0  MISS:          0
L1I PREFETCH  ACCESS:          0  HIT:          0  MISS:          0
L1I WRITEBACK ACCESS:          0  HIT:          0  MISS:          0
L2C TOTAL     ACCESS:    9046643  HIT:    5534153  MISS:    3512490
L2C LOAD      ACCESS:    3346972  HIT:    2442453  MISS:     904519
L2C RFO       ACCESS:        223  HIT:        196  MISS:         27
L2C PREFETCH  ACCESS:    4156984  HIT:    1549132  MISS:    2607852
L2C WRITEBACK ACCESS:    1542464  HIT:    1542372  MISS:         92

Avg Lookahead Depth:	3.19824
TOTAL: 7.72949e+07	L2C: 6.30221e+07	LLC: 1.42727e+07	GOOD_L2C: 3.59386e+07
Printing all the perceptron weights to: perc_weights_0.csv
LLC TOTAL     ACCESS:    6645286  HIT:    3154994  MISS:    3490292
LLC LOAD      ACCESS:     853349  HIT:     226935  MISS:     626414
LLC RFO       ACCESS:         27  HIT:          3  MISS:         24
LLC PREFETCH  ACCESS:    4255026  HIT:    1391404  MISS:    2863622
LLC WRITEBACK ACCESS:    1536884  HIT:    1536652  MISS:        232

CPU 5 cumulative IPC: 0.837243 instructions: 441197593 cycles: 526964773
L1D TOTAL     ACCESS:  151891477  HIT:  140510038  MISS:   11381439
L1D LOAD      ACCESS:  124965996  HIT:  113584585  MISS:   11381411
L1D RFO       ACCESS:   26925481  HIT:   26925453  MISS:         28
L1D PREFETCH  ACCESS:          0  HIT:          0  MISS:          0
L1D WRITEBACK ACCESS:          0  HIT:          0  MISS:          0
L1I TOTAL     ACCESS:   87635873  HIT:   87635687  MISS:        186
L1I LOAD      ACCESS:   87635873  HIT:   87635687  MISS:        186
L1I RFO       ACCESS:          0  HIT:          0  MISS:          0
L1I PREFETCH  ACCESS:          0  HIT:          0  MISS:          0
L1I WRITEBACK ACCESS:          0  HIT:          0  MISS:          0
L2C TOTAL     ACCESS:   27955374  HIT:   18042461  MISS:    9912913
L2C LOAD      ACCESS:   11381552  HIT:   10166193  MISS:    1215359
L2C RFO       ACCESS:         28  HIT:          2  MISS:         26
L2C PREFETCH  ACCESS:   13090805  HIT:    4394318  MISS:    8696487
L2C WRITEBACK ACCESS:    3482989  HIT:    3481948  MISS:       1041

Avg Lookahead Depth:	3.19824
TOTAL: 7.72949e+07	L2C: 6.30221e+07	LLC: 1.42727e+07	GOOD_L2C: 3.59386e+07
Printing all the perceptron weights to: perc_weights_0.csv
LLC TOTAL     ACCESS:   13923619  HIT:    6550283  MISS:    7373336
LLC LOAD      ACCESS:     819430  HIT:     338213  MISS:     481217
LLC RFO       ACCESS:         26  HIT:          2  MISS:         24
LLC PREFETCH  ACCESS:   10006070  HIT:    3121046  MISS:    6885024
LLC WRITEBACK ACCESS:    3098093  HIT:    3091022  MISS:       7071

CPU 6 cumulative IPC: 1.0159 instructions: 535343635 cycles: 526964773
L1D TOTAL     ACCESS:  256412659  HIT:  245493547  MISS:   10919112
L1D LOAD      ACCESS:  217955604  HIT:  207307415  MISS:   10648189
L1D RFO       ACCESS:   38457055  HIT:   38186132  MISS:     270923
L1D PREFETCH  ACCESS:          0  HIT:          0  MISS:          0
L1D WRITEBACK ACCESS:          0  HIT:          0  MISS:          0
L1I TOTAL     ACCESS:  124327616  HIT:  124327562  MISS:         54
L1I LOAD      ACCESS:  124327616  HIT:  124327562  MISS:         54
L1I RFO       ACCESS:          0  HIT:          0  MISS:          0
L1I PREFETCH  ACCESS:          0  HIT:          0  MISS:          0
L1I WRITEBACK ACCESS:          0  HIT:          0  MISS:          0
L2C TOTAL     ACCESS:   24184227  HIT:   14265612  MISS:    9918615
L2C LOAD      ACCESS:   10644779  HIT:    9855522  MISS:     789257
L2C RFO       ACCESS:     267527  HIT:      30670  MISS:     236857
L2C PREFETCH  ACCESS:   12780756  HIT:    3890176  MISS:    8890580
L2C WRITEBACK ACCESS:     491165  HIT:     489244  MISS:       1921

Avg Lookahead Depth:	3.19824
TOTAL: 7.72949e+07	L2C: 6.30221e+07	LLC: 1.42727e+07	GOOD_L2C: 3.59386e+07
Printing all the perceptron weights to: perc_weights_0.csv
LLC TOTAL     ACCESS:   10965112  HIT:    1053763  MISS:    9911349
LLC LOAD      ACCESS:     328850  HIT:      12737  MISS:     316113
LLC RFO       ACCESS:     236857  HIT:          0  MISS:     236857
LLC PREFETCH  ACCESS:    9991086  HIT:     633143  MISS:    9357943
LLC WRITEBACK ACCESS:     408319  HIT:     407883  MISS:        436

CPU 7 cumulative IPC: 0.319458 instructions: 168342900 cycles: 526964773
L1D TOTAL     ACCESS:   35756297  HIT:   27066675  MISS:    8689622
L1D LOAD      ACCESS:   27459341  HIT:   20009834  MISS:    7449507
L1D RFO       ACCESS:    8296956  HIT:    7056841  MISS:    1240115
L1D PREFETCH  ACCESS:          0  HIT:          0  MISS:          0
L1D WRITEBACK ACCESS:          0  HIT:          0  MISS:          0
L1I TOTAL     ACCESS:   38823659  HIT:   38822874  MISS:        785
L1I LOAD      ACCESS:   38823659  HIT:   38822874  MISS:        785
L1I RFO       ACCESS:          0  HIT:          0  MISS:          0
L1I PREFETCH  ACCESS:          0  HIT:          0  MISS:          0
L1I WRITEBACK ACCESS:          0  HIT:          0  MISS:          0
L2C TOTAL     ACCESS:   19084927  HIT:   10413987  MISS:    8670940
L2C LOAD      ACCESS:    7449742  HIT:    4101309  MISS:    3348433
L2C RFO       ACCESS:    1240062  HIT:     119465  MISS:    1120597
L2C PREFETCH  ACCESS:    6586136  HIT:    2384591  MISS:    4201545
L2C WRITEBACK ACCESS:    3808987  HIT:    3808622  MISS:        365

Avg Lookahead Depth:	3.19824
TOTAL: 7.72949e+07	L2C: 6.30221e+07	LLC: 1.42727e+07	GOOD_L2C: 3.59386e+07
Printing all the perceptron weights to: perc_weights_0.csv
LLC TOTAL     ACCESS:   12959865  HIT:    6809263  MISS:    6150602
LLC LOAD      ACCESS:    2713716  HIT:    1437404  MISS:    1276312
LLC RFO       ACCESS:    1120538  HIT:     397891  MISS:     722647
LLC PREFETCH  ACCESS:    6190943  HIT:    2039487  MISS:    4151456
LLC WRITEBACK ACCESS:    2934668  HIT:    2934481  MISS:        187

Region of Interest Statistics

CPU 0 cumulative IPC: 0.189766 instructions: 100000000 cycles: 526964772
L1D TOTAL     ACCESS:   20589972  HIT:   17792822  MISS:    2797150
L1D LOAD      ACCESS:   17210434  HIT:   14435270  MISS:    2775164
L1D RFO       ACCESS:    3379538  HIT:    3357552  MISS:      21986
L1D PREFETCH  ACCESS:          0  HIT:          0  MISS:          0
L1D WRITEBACK ACCESS:          0  HIT:          0  MISS:          0
L1D PREFETCH  REQUESTED:          0  ISSUED:          0  USEFUL:          0  USELESS:          0
L1I TOTAL     ACCESS:   32736495  HIT:   32603877  MISS:     132618
L1I LOAD      ACCESS:   32736495  HIT:   32603877  MISS:     132618
L1I RFO       ACCESS:          0  HIT:          0  MISS:          0
L1I PREFETCH  ACCESS:          0  HIT:          0  MISS:          0
L1I WRITEBACK ACCESS:          0  HIT:          0  MISS:          0
L1I PREFETCH  REQUESTED:          0  ISSUED:          0  USEFUL:          0  USELESS:          0
L2C TOTAL     ACCESS:    5178544  HIT:    1421874  MISS:    3756670
L2C LOAD      ACCESS:    2907778  HIT:     720802  MISS:    2186976
L2C RFO       ACCESS:      21985  HIT:       8370  MISS:      13615
L2C PREFETCH  ACCESS:    2200463  HIT:     645560  MISS:    1554903
L2C WRITEBACK ACCESS:      48318  HIT:      47142  MISS:       1176
L2C PREFETCH  REQUESTED:    5348380  ISSUED:    5347742  USEFUL:     928318  USELESS:    1290084
LLC TOTAL     ACCESS:    4663841  HIT:     442601  MISS:    4221240
LLC LOAD      ACCESS:    1901567  HIT:     190259  MISS:    1711308
LLC RFO       ACCESS:      13520  HIT:        979  MISS:      12541
LLC PREFETCH  ACCESS:    2725289  HIT:     228481  MISS:    2496808
LLC WRITEBACK ACCESS:      23465  HIT:      22882  MISS:        583
LLC PREFETCH  REQUESTED:          0  ISSUED:          0  USEFUL:    1641225  USELESS:   37348701
Major fault: 0 Minor fault: 21574

CPU 1 cumulative IPC: 0.499085 instructions: 100000000 cycles: 200366835
L1D TOTAL     ACCESS:   34600276  HIT:   34261538  MISS:     338738
L1D LOAD      ACCESS:   21598727  HIT:   21313804  MISS:     284923
L1D RFO       ACCESS:   13001549  HIT:   12947734  MISS:      53815
L1D PREFETCH  ACCESS:          0  HIT:          0  MISS:          0
L1D WRITEBACK ACCESS:          0  HIT:          0  MISS:          0
L1D PREFETCH  REQUESTED:          0  ISSUED:          0  USEFUL:          0  USELESS:          0
L1I TOTAL     ACCESS:   28764924  HIT:   28764924  MISS:          0
L1I LOAD      ACCESS:   28764924  HIT:   28764924  MISS:          0
L1I RFO       ACCESS:          0  HIT:          0  MISS:          0
L1I PREFETCH  ACCESS:          0  HIT:          0  MISS:          0
L1I WRITEBACK ACCESS:          0  HIT:          0  MISS:          0
L1I PREFETCH  REQUESTED:          0  ISSUED:          0  USEFUL:          0  USELESS:          0
L2C TOTAL     ACCESS:     625854  HIT:     400157  MISS:     225697
L2C LOAD      ACCESS:     284886  HIT:     166337  MISS:     118549
L2C RFO       ACCESS:      53814  HIT:       4305  MISS:      49509
L2C PREFETCH  ACCESS:     112119  HIT:      54615  MISS:      57504
L2C WRITEBACK ACCESS:     175035  HIT:     174900  MISS:        135
L2C PREFETCH  REQUESTED:     641056  ISSUED:     641056  USEFUL:     100105  USELESS:      66190
LLC TOTAL     ACCESS:     433205  HIT:     112485  MISS:     320720
LLC LOAD      ACCESS:     117270  HIT:      20731  MISS:      96539
LLC RFO       ACCESS:      49509  HIT:        628  MISS:      48881
LLC PREFETCH  ACCESS:     132109  HIT:      32844  MISS:      99265
LLC WRITEBACK ACCESS:     134317  HIT:      58282  MISS:      76035
LLC PREFETCH  REQUESTED:          0  ISSUED:          0  USEFUL:    1641225  USELESS:   37348701
Major fault: 0 Minor fault: 3994

CPU 2 cumulative IPC: 0.934467 instructions: 100000001 cycles: 107012856
L1D TOTAL     ACCESS:   22417344  HIT:   20193117  MISS:    2224227
L1D LOAD      ACCESS:   15196321  HIT:   13587849  MISS:    1608472
L1D RFO       ACCESS:    7221023  HIT:    6605268  MISS:     615755
L1D PREFETCH  ACCESS:          0  HIT:          0  MISS:          0
L1D WRITEBACK ACCESS:          0  HIT:          0  MISS:          0
L1D PREFETCH  REQUESTED:          0  ISSUED:          0  USEFUL:          0  USELESS:          0
L1I TOTAL     ACCESS:   26147913  HIT:   26147913  MISS:          0
L1I LOAD      ACCESS:   26147913  HIT:   26147913  MISS:          0
L1I RFO       ACCESS:          0  HIT:          0  MISS:          0
L1I PREFETCH  ACCESS:          0  HIT:          0  MISS:          0
L1I WRITEBACK ACCESS:          0  HIT:          0  MISS:          0
L1I PREFETCH  REQUESTED:          0  ISSUED:          0  USEFUL:          0  USELESS:          0
L2C TOTAL     ACCESS:    4210899  HIT:    3811299  MISS:     399600
L2C LOAD      ACCESS:    1608471  HIT:    1449583  MISS:     158888
L2C RFO       ACCESS:     612330  HIT:     548637  MISS:      63693
L2C PREFETCH  ACCESS:     779420  HIT:     602956  MISS:     176464
L2C WRITEBACK ACCESS:    1210678  HIT:    1210123  MISS:        555
L2C PREFETCH  REQUESTED:    5246132  ISSUED:    5246114  USEFUL:     705303  USELESS:     189973
LLC TOTAL     ACCESS:     679598  HIT:     298596  MISS:     381002
LLC LOAD      ACCESS:     147383  HIT:      61799  MISS:      85584
LLC RFO       ACCESS:      63692  HIT:      20503  MISS:      43189
LLC PREFETCH  ACCESS:     345119  HIT:      99433  MISS:     245686
LLC WRITEBACK ACCESS:     123404  HIT:     116861  MISS:       6543
LLC PREFETCH  REQUESTED:          0  ISSUED:          0  USEFUL:    1641225  USELESS:   37348701
Major fault: 0 Minor fault: 17376

CPU 3 cumulative IPC: 1.10235 instructions: 100000000 cycles: 90715048
L1D TOTAL     ACCESS:   49163220  HIT:   47150008  MISS:    2013212
L1D LOAD      ACCESS:   41783428  HIT:   39820910  MISS:    1962518
L1D RFO       ACCESS:    7379792  HIT:    7329098  MISS:      50694
L1D PREFETCH  ACCESS:          0  HIT:          0  MISS:          0
L1D WRITEBACK ACCESS:          0  HIT:          0  MISS:          0
L1D PREFETCH  REQUESTED:          0  ISSUED:          0  USEFUL:          0  USELESS:          0
L1I TOTAL     ACCESS:   23341821  HIT:   23341821  MISS:          0
L1I LOAD      ACCESS:   23341821  HIT:   23341821  MISS:          0
L1I RFO       ACCESS:          0  HIT:          0  MISS:          0
L1I PREFETCH  ACCESS:          0  HIT:          0  MISS:          0
L1I WRITEBACK ACCESS:          0  HIT:          0  MISS:          0
L1I PREFETCH  REQUESTED:          0  ISSUED:          0  USEFUL:          0  USELESS:          0
L2C TOTAL     ACCESS:    4506935  HIT:    2669928  MISS:    1837007
L2C LOAD      ACCESS:    1961948  HIT:    1858577  MISS:     103371
L2C RFO       ACCESS:      50324  HIT:       3271  MISS:      47053
L2C PREFETCH  ACCESS:    2435509  HIT:     749477  MISS:    1686032
L2C WRITEBACK ACCESS:      59154  HIT:      58603  MISS:        551
L2C PREFETCH  REQUESTED:   16293441  ISSUED:   16174937  USEFUL:    9351684  USELESS:       4286
LLC TOTAL     ACCESS:    2014344  HIT:     179432  MISS:    1834912
LLC LOAD      ACCESS:      61137  HIT:       2343  MISS:      58794
LLC RFO       ACCESS:      47053  HIT:          0  MISS:      47053
LLC PREFETCH  ACCESS:    1858422  HIT:     129436  MISS:    1728986
LLC WRITEBACK ACCESS:      47732  HIT:      47653  MISS:         79
LLC PREFETCH  REQUESTED:          0  ISSUED:          0  USEFUL:    1641225  USELESS:   37348701
Major fault: 0 Minor fault: 104341

CPU 4 cumulative IPC: 0.468585 instructions: 100000001 cycles: 213408656
L1D TOTAL     ACCESS:   58777281  HIT:   57241089  MISS:    1536192
L1D LOAD      ACCESS:   51546461  HIT:   50010330  MISS:    1536131
L1D RFO       ACCESS:    7230820  HIT:    7230759  MISS:         61
L1D PREFETCH  ACCESS:          0  HIT:          0  MISS:          0
L1D WRITEBACK ACCESS:          0  HIT:          0  MISS:          0
L1D PREFETCH  REQUESTED:          0  ISSUED:          0  USEFUL:          0  USELESS:          0
L1I TOTAL     ACCESS:   28398022  HIT:   28397913  MISS:        109
L1I LOAD      ACCESS:   28398022  HIT:   28397913  MISS:        109
L1I RFO       ACCESS:          0  HIT:          0  MISS:          0
L1I PREFETCH  ACCESS:          0  HIT:          0  MISS:          0
L1I WRITEBACK ACCESS:          0  HIT:          0  MISS:          0
L1I PREFETCH  REQUESTED:          0  ISSUED:          0  USEFUL:          0  USELESS:          0
L2C TOTAL     ACCESS:    3688157  HIT:    1935551  MISS:    1752606
L2C LOAD      ACCESS:    1536105  HIT:     899267  MISS:     636838
L2C RFO       ACCESS:         42  HIT:         31  MISS:         11
L2C PREFETCH  ACCESS:    1446622  HIT:     330924  MISS:    1115698
L2C WRITEBACK ACCESS:     705388  HIT:     705329  MISS:         59
L2C PREFETCH  REQUESTED:    6180269  ISSUED:    6180263  USEFUL:    2120237  USELESS:     635558
LLC TOTAL     ACCESS:    3136695  HIT:    1314381  MISS:    1822314
LLC LOAD      ACCESS:     596208  HIT:     123440  MISS:     472768
LLC RFO       ACCESS:         11  HIT:          2  MISS:          9
LLC PREFETCH  ACCESS:    1836288  HIT:     486798  MISS:    1349490
LLC WRITEBACK ACCESS:     704188  HIT:     704141  MISS:         47
LLC PREFETCH  REQUESTED:          0  ISSUED:          0  USEFUL:    1641225  USELESS:   37348701
Major fault: 0 Minor fault: 162636

CPU 5 cumulative IPC: 0.513578 instructions: 100000003 cycles: 194712378
L1D TOTAL     ACCESS:   49860697  HIT:   46474584  MISS:    3386113
L1D LOAD      ACCESS:   46438844  HIT:   43052759  MISS:    3386085
L1D RFO       ACCESS:    3421853  HIT:    3421825  MISS:         28
L1D PREFETCH  ACCESS:          0  HIT:          0  MISS:          0
L1D WRITEBACK ACCESS:          0  HIT:          0  MISS:          0
L1D PREFETCH  REQUESTED:          0  ISSUED:          0  USEFUL:          0  USELESS:          0
L1I TOTAL     ACCESS:   23423937  HIT:   23423751  MISS:        186
L1I LOAD      ACCESS:   23423937  HIT:   23423751  MISS:        186
L1I RFO       ACCESS:          0  HIT:          0  MISS:          0
L1I PREFETCH  ACCESS:          0  HIT:          0  MISS:          0
L1I WRITEBACK ACCESS:          0  HIT:          0  MISS:          0
L1I PREFETCH  REQUESTED:          0  ISSUED:          0  USEFUL:          0  USELESS:          0
L2C TOTAL     ACCESS:    6891680  HIT:    5590670  MISS:    1301010
L2C LOAD      ACCESS:    3386268  HIT:    2778294  MISS:     607974
L2C RFO       ACCESS:         28  HIT:          2  MISS:         26
L2C PREFETCH  ACCESS:    3005800  HIT:    2313127  MISS:     692673
L2C WRITEBACK ACCESS:     499584  HIT:     499247  MISS:        337
L2C PREFETCH  REQUESTED:   16362895  ISSUED:   16358381  USEFUL:    7911747  USELESS:     899278
LLC TOTAL     ACCESS:    1978658  HIT:    1185471  MISS:     793187
LLC LOAD      ACCESS:     603786  HIT:     281479  MISS:     322307
LLC RFO       ACCESS:         26  HIT:          2  MISS:         24
LLC PREFETCH  ACCESS:    1251889  HIT:     787902  MISS:     463987
LLC WRITEBACK ACCESS:     122957  HIT:     116088  MISS:       6869
LLC PREFETCH  REQUESTED:          0  ISSUED:          0  USEFUL:    1641225  USELESS:   37348701
Major fault: 0 Minor fault: 113675

CPU 6 cumulative IPC: 1.09859 instructions: 100000001 cycles: 91026175
L1D TOTAL     ACCESS:   49980425  HIT:   47951676  MISS:    2028749
L1D LOAD      ACCESS:   42599517  HIT:   40621397  MISS:    1978120
L1D RFO       ACCESS:    7380908  HIT:    7330279  MISS:      50629
L1D PREFETCH  ACCESS:          0  HIT:          0  MISS:          0
L1D WRITEBACK ACCESS:          0  HIT:          0  MISS:          0
L1D PREFETCH  REQUESTED:          0  ISSUED:          0  USEFUL:          0  USELESS:          0
L1I TOTAL     ACCESS:   23329524  HIT:   23329524  MISS:          0
L1I LOAD      ACCESS:   23329524  HIT:   23329524  MISS:          0
L1I RFO       ACCESS:          0  HIT:          0  MISS:          0
L1I PREFETCH  ACCESS:          0  HIT:          0  MISS:          0
L1I WRITEBACK ACCESS:          0  HIT:          0  MISS:          0
L1I PREFETCH  REQUESTED:          0  ISSUED:          0  USEFUL:          0  USELESS:          0
L2C TOTAL     ACCESS:    4521796  HIT:    2685651  MISS:    1836145
L2C LOAD      ACCESS:    1977498  HIT:    1873899  MISS:     103599
L2C RFO       ACCESS:      50220  HIT:       3167  MISS:      47053
L2C PREFETCH  ACCESS:    2432074  HIT:     746915  MISS:    1685159
L2C WRITEBACK ACCESS:      62004  HIT:      61670  MISS:        334
L2C PREFETCH  REQUESTED:   16170912  ISSUED:   16059082  USEFUL:    9311529  USELESS:       2373
LLC TOTAL     ACCESS:    2006257  HIT:     171678  MISS:    1834579
LLC LOAD      ACCESS:      61542  HIT:       2055  MISS:      59487
LLC RFO       ACCESS:      47053  HIT:          0  MISS:      47053
LLC PREFETCH  ACCESS:    1850189  HIT:     122253  MISS:    1727936
LLC WRITEBACK ACCESS:      47473  HIT:      47370  MISS:        103
LLC PREFETCH  REQUESTED:          0  ISSUED:          0  USEFUL:    1641225  USELESS:   37348701
Major fault: 0 Minor fault: 104324

CPU 7 cumulative IPC: 0.33176 instructions: 100000002 cycles: 301423022
L1D TOTAL     ACCESS:   22726413  HIT:   17433236  MISS:    5293177
L1D LOAD      ACCESS:   17254284  HIT:   12737479  MISS:    4516805
L1D RFO       ACCESS:    5472129  HIT:    4695757  MISS:     776372
L1D PREFETCH  ACCESS:          0  HIT:          0  MISS:          0
L1D WRITEBACK ACCESS:          0  HIT:          0  MISS:          0
L1D PREFETCH  REQUESTED:          0  ISSUED:          0  USEFUL:          0  USELESS:          0
L1I TOTAL     ACCESS:   23190056  HIT:   23189378  MISS:        678
L1I LOAD      ACCESS:   23190056  HIT:   23189378  MISS:        678
L1I RFO       ACCESS:          0  HIT:          0  MISS:          0
L1I PREFETCH  ACCESS:          0  HIT:          0  MISS:          0
L1I WRITEBACK ACCESS:          0  HIT:          0  MISS:          0
L1I PREFETCH  REQUESTED:          0  ISSUED:          0  USEFUL:          0  USELESS:          0
L2C TOTAL     ACCESS:   11572089  HIT:    6295212  MISS:    5276877
L2C LOAD      ACCESS:    4517026  HIT:    2462047  MISS:    2054979
L2C RFO       ACCESS:     776339  HIT:      77887  MISS:     698452
L2C PREFETCH  ACCESS:    3905746  HIT:    1382563  MISS:    2523183
L2C WRITEBACK ACCESS:    2372978  HIT:    2372715  MISS:        263
L2C PREFETCH  REQUESTED:   11051779  ISSUED:   11051021  USEFUL:    3372728  USELESS:    1693258
LLC TOTAL     ACCESS:    7971762  HIT:    4374847  MISS:    3596915
LLC LOAD      ACCESS:    1701686  HIT:     920461  MISS:     781225
LLC RFO       ACCESS:     698405  HIT:     313424  MISS:     384981
LLC PREFETCH  ACCESS:    3727435  HIT:    1296886  MISS:    2430549
LLC WRITEBACK ACCESS:    1844236  HIT:    1844076  MISS:        160
LLC PREFETCH  REQUESTED:          0  ISSUED:          0  USEFUL:    1641225  USELESS:   37348701
Major fault: 0 Minor fault: 12935

Avg Lookahead Depth:	3.19824
TOTAL: 7.72949e+07	L2C: 6.30221e+07	LLC: 1.42727e+07	GOOD_L2C: 3.59386e+07
Printing all the perceptron weights to: perc_weights_0.csv

Avg Lookahead Depth:	3.19824
TOTAL: 7.72949e+07	L2C: 6.30221e+07	LLC: 1.42727e+07	GOOD_L2C: 3.59386e+07
Printing all the perceptron weights to: perc_weights_0.csv

Avg Lookahead Depth:	3.19824
TOTAL: 7.72949e+07	L2C: 6.30221e+07	LLC: 1.42727e+07	GOOD_L2C: 3.59386e+07
Printing all the perceptron weights to: perc_weights_0.csv

Avg Lookahead Depth:	3.19824
TOTAL: 7.72949e+07	L2C: 6.30221e+07	LLC: 1.42727e+07	GOOD_L2C: 3.59386e+07
Printing all the perceptron weights to: perc_weights_0.csv

Avg Lookahead Depth:	3.19824
TOTAL: 7.72949e+07	L2C: 6.30221e+07	LLC: 1.42727e+07	GOOD_L2C: 3.59386e+07
Printing all the perceptron weights to: perc_weights_0.csv

Avg Lookahead Depth:	3.19824
TOTAL: 7.72949e+07	L2C: 6.30221e+07	LLC: 1.42727e+07	GOOD_L2C: 3.59386e+07
Printing all the perceptron weights to: perc_weights_0.csv

Avg Lookahead Depth:	3.19824
TOTAL: 7.72949e+07	L2C: 6.30221e+07	LLC: 1.42727e+07	GOOD_L2C: 3.59386e+07
Printing all the perceptron weights to: perc_weights_0.csv

Avg Lookahead Depth:	3.19824
TOTAL: 7.72949e+07	L2C: 6.30221e+07	LLC: 1.42727e+07	GOOD_L2C: 3.59386e+07
Printing all the perceptron weights to: perc_weights_0.csv

DRAM Statistics
 CHANNEL 0
 RQ ROW_BUFFER_HIT:   10174702  ROW_BUFFER_MISS:   11510513
 DBUS_CONGESTED:   43318952
 WQ ROW_BUFFER_HIT:     258681  ROW_BUFFER_MISS:    3762298  FULL:          0

 CHANNEL 1
 RQ ROW_BUFFER_HIT:   10167153  ROW_BUFFER_MISS:   11560444
 DBUS_CONGESTED:   43318952
 WQ ROW_BUFFER_HIT:     257564  ROW_BUFFER_MISS:    3760505  FULL:          0

 AVG_CONGESTED_CYCLE: 14
