Initialize SIGNATURE TABLE
ST_SET: 1
ST_WAY: 256
ST_TAG_BIT: 16
ST_TAG_MASK: ffff

Initialize PATTERN TABLE
PT_SET: 512
PT_WAY: 4
SIG_DELTA_BIT: 7
C_SIG_BIT: 4
C_DELTA_BIT: 4

Initialize PREFETCH FILTER
FILTER_SET: 1024

Initialize PERCEPTRON
PERC_ENTRIES: 4096
PERC_FEATURES: 14

*** ChampSim Multicore Out-of-Order Simulator ***

Warmup Instructions: 20000000
Simulation Instructions: 100000000
Number of CPUs: 4
LLC sets: 8192
LLC ways: 16
Off-chip DRAM Size: 8192 MB Channels: 2 Width: 64-bit Data Rate: 1600 MT/s

CPU 0 runs /scratch/user/eshanbhatia22/THESIS/cloudsuite_traces/streaming_phase1_core0.trace.gz
CPU 1 runs /scratch/user/eshanbhatia22/THESIS/cloudsuite_traces/streaming_phase1_core1.trace.gz
CPU 2 runs /scratch/user/eshanbhatia22/THESIS/cloudsuite_traces/streaming_phase1_core2.trace.gz
CPU 3 runs /scratch/user/eshanbhatia22/THESIS/cloudsuite_traces/streaming_phase1_core3.trace.gz
Heartbeat CPU 2 instructions: 10000001 cycles: 3732763 heartbeat IPC: 2.67898 cumulative IPC: 2.67898 (Simulation time: 0 hr 1 min 37 sec) 
Heartbeat CPU 3 instructions: 10000003 cycles: 4420119 heartbeat IPC: 2.26238 cumulative IPC: 2.26238 (Simulation time: 0 hr 1 min 55 sec) 
Heartbeat CPU 1 instructions: 10000001 cycles: 4544714 heartbeat IPC: 2.20036 cumulative IPC: 2.20036 (Simulation time: 0 hr 1 min 59 sec) 
Heartbeat CPU 0 instructions: 10000003 cycles: 4588715 heartbeat IPC: 2.17926 cumulative IPC: 2.17926 (Simulation time: 0 hr 2 min 0 sec) 
Heartbeat CPU 2 instructions: 20000000 cycles: 6736638 heartbeat IPC: 3.32903 cumulative IPC: 2.96884 (Simulation time: 0 hr 3 min 2 sec) 
Heartbeat CPU 3 instructions: 20000000 cycles: 8916085 heartbeat IPC: 2.22422 cumulative IPC: 2.24314 (Simulation time: 0 hr 4 min 8 sec) 
Heartbeat CPU 1 instructions: 20000000 cycles: 9016928 heartbeat IPC: 2.23603 cumulative IPC: 2.21805 (Simulation time: 0 hr 4 min 11 sec) 
Heartbeat CPU 0 instructions: 20000000 cycles: 9043247 heartbeat IPC: 2.2449 cumulative IPC: 2.2116 (Simulation time: 0 hr 4 min 12 sec) 

Warmup complete CPU 0 instructions: 20000001 cycles: 9043258 (Simulation time: 0 hr 4 min 12 sec) 
Warmup complete CPU 1 instructions: 20059139 cycles: 9043257 (Simulation time: 0 hr 4 min 12 sec) 
Warmup complete CPU 2 instructions: 28019834 cycles: 9043257 (Simulation time: 0 hr 4 min 12 sec) 
Warmup complete CPU 3 instructions: 20279090 cycles: 9043257 (Simulation time: 0 hr 4 min 12 sec) 

Heartbeat CPU 2 instructions: 30000000 cycles: 12893068 heartbeat IPC: 1.62432 cumulative IPC: 0.514354 (Simulation time: 0 hr 4 min 25 sec) 
Heartbeat CPU 2 instructions: 40000000 cycles: 47417782 heartbeat IPC: 0.289648 cumulative IPC: 0.312191 (Simulation time: 0 hr 6 min 11 sec) 
Heartbeat CPU 3 instructions: 30000001 cycles: 59830607 heartbeat IPC: 0.196408 cumulative IPC: 0.191404 (Simulation time: 0 hr 6 min 44 sec) 
Heartbeat CPU 1 instructions: 30000002 cycles: 60840130 heartbeat IPC: 0.192964 cumulative IPC: 0.19192 (Simulation time: 0 hr 6 min 47 sec) 
Heartbeat CPU 0 instructions: 30000002 cycles: 61945585 heartbeat IPC: 0.189028 cumulative IPC: 0.189028 (Simulation time: 0 hr 6 min 50 sec) 
Heartbeat CPU 2 instructions: 50000003 cycles: 111062535 heartbeat IPC: 0.157122 cumulative IPC: 0.215451 (Simulation time: 0 hr 9 min 8 sec) 
Heartbeat CPU 3 instructions: 40000000 cycles: 112353324 heartbeat IPC: 0.190394 cumulative IPC: 0.19089 (Simulation time: 0 hr 9 min 11 sec) 
Heartbeat CPU 1 instructions: 40000000 cycles: 113419246 heartbeat IPC: 0.19019 cumulative IPC: 0.191048 (Simulation time: 0 hr 9 min 14 sec) 
Heartbeat CPU 0 instructions: 40000000 cycles: 114229558 heartbeat IPC: 0.191263 cumulative IPC: 0.190139 (Simulation time: 0 hr 9 min 17 sec) 
Heartbeat CPU 2 instructions: 60000000 cycles: 165283189 heartbeat IPC: 0.184432 cumulative IPC: 0.204686 (Simulation time: 0 hr 11 min 24 sec) 
Heartbeat CPU 3 instructions: 50000000 cycles: 165634301 heartbeat IPC: 0.187684 cumulative IPC: 0.1898 (Simulation time: 0 hr 11 min 25 sec) 
Heartbeat CPU 1 instructions: 50000002 cycles: 166756526 heartbeat IPC: 0.187486 cumulative IPC: 0.189844 (Simulation time: 0 hr 11 min 27 sec) 
Heartbeat CPU 0 instructions: 50000002 cycles: 167167253 heartbeat IPC: 0.188901 cumulative IPC: 0.189725 (Simulation time: 0 hr 11 min 28 sec) 
Heartbeat CPU 2 instructions: 70000001 cycles: 186320021 heartbeat IPC: 0.475357 cumulative IPC: 0.236806 (Simulation time: 0 hr 12 min 29 sec) 
Heartbeat CPU 3 instructions: 60000000 cycles: 218665506 heartbeat IPC: 0.188568 cumulative IPC: 0.189488 (Simulation time: 0 hr 13 min 59 sec) 
Heartbeat CPU 0 instructions: 60000000 cycles: 219995213 heartbeat IPC: 0.189294 cumulative IPC: 0.189617 (Simulation time: 0 hr 14 min 3 sec) 
Heartbeat CPU 1 instructions: 60000000 cycles: 220069708 heartbeat IPC: 0.187571 cumulative IPC: 0.189269 (Simulation time: 0 hr 14 min 3 sec) 
Heartbeat CPU 2 instructions: 80000000 cycles: 228143096 heartbeat IPC: 0.239102 cumulative IPC: 0.237244 (Simulation time: 0 hr 14 min 25 sec) 
Heartbeat CPU 0 instructions: 70000001 cycles: 244493909 heartbeat IPC: 0.408185 cumulative IPC: 0.212359 (Simulation time: 0 hr 15 min 21 sec) 
Heartbeat CPU 1 instructions: 70000000 cycles: 254086857 heartbeat IPC: 0.293969 cumulative IPC: 0.203804 (Simulation time: 0 hr 15 min 55 sec) 
Heartbeat CPU 3 instructions: 70000003 cycles: 271406988 heartbeat IPC: 0.189604 cumulative IPC: 0.189511 (Simulation time: 0 hr 16 min 45 sec) 
Heartbeat CPU 2 instructions: 90000001 cycles: 287593701 heartbeat IPC: 0.168207 cumulative IPC: 0.22251 (Simulation time: 0 hr 17 min 29 sec) 
Heartbeat CPU 0 instructions: 80000000 cycles: 293383706 heartbeat IPC: 0.204542 cumulative IPC: 0.211015 (Simulation time: 0 hr 17 min 45 sec) 
Heartbeat CPU 1 instructions: 80000000 cycles: 306749900 heartbeat IPC: 0.189886 cumulative IPC: 0.201342 (Simulation time: 0 hr 18 min 21 sec) 
Heartbeat CPU 3 instructions: 80000000 cycles: 324606349 heartbeat IPC: 0.187972 cumulative IPC: 0.189252 (Simulation time: 0 hr 19 min 10 sec) 
Heartbeat CPU 0 instructions: 90000001 cycles: 346524253 heartbeat IPC: 0.18818 cumulative IPC: 0.207419 (Simulation time: 0 hr 20 min 10 sec) 
*** Reached end of trace for Core: 2 Repeating trace: /scratch/user/eshanbhatia22/THESIS/cloudsuite_traces/streaming_phase1_core2.trace.gz
Heartbeat CPU 2 instructions: 100000000 cycles: 350497011 heartbeat IPC: 0.158974 cumulative IPC: 0.210805 (Simulation time: 0 hr 20 min 21 sec) 
Heartbeat CPU 1 instructions: 90000000 cycles: 360018741 heartbeat IPC: 0.187727 cumulative IPC: 0.199276 (Simulation time: 0 hr 20 min 53 sec) 
Heartbeat CPU 3 instructions: 90000000 cycles: 377672661 heartbeat IPC: 0.188443 cumulative IPC: 0.189136 (Simulation time: 0 hr 21 min 44 sec) 
Heartbeat CPU 2 instructions: 110000002 cycles: 387119069 heartbeat IPC: 0.27306 cumulative IPC: 0.216835 (Simulation time: 0 hr 22 min 9 sec) 
*** Reached end of trace for Core: 0 Repeating trace: /scratch/user/eshanbhatia22/THESIS/cloudsuite_traces/streaming_phase1_core0.trace.gz
Heartbeat CPU 0 instructions: 100000000 cycles: 400140714 heartbeat IPC: 0.18651 cumulative IPC: 0.204553 (Simulation time: 0 hr 22 min 51 sec) 
Heartbeat CPU 2 instructions: 120000000 cycles: 409483287 heartbeat IPC: 0.447143 cumulative IPC: 0.229698 (Simulation time: 0 hr 23 min 24 sec) 
*** Reached end of trace for Core: 1 Repeating trace: /scratch/user/eshanbhatia22/THESIS/cloudsuite_traces/streaming_phase1_core1.trace.gz
Heartbeat CPU 1 instructions: 100000000 cycles: 412912908 heartbeat IPC: 0.189057 cumulative IPC: 0.197937 (Simulation time: 0 hr 23 min 35 sec) 
Finished CPU 2 instructions: 100000000 cycles: 416389564 cumulative IPC: 0.24016 (Simulation time: 0 hr 24 min 14 sec) 
Heartbeat CPU 2 instructions: 130000003 cycles: 429276297 heartbeat IPC: 0.505229 cumulative IPC: 0.242675 (Simulation time: 0 hr 24 min 26 sec) 
*** Reached end of trace for Core: 3 Repeating trace: /scratch/user/eshanbhatia22/THESIS/cloudsuite_traces/streaming_phase1_core3.trace.gz
Heartbeat CPU 3 instructions: 100000000 cycles: 431142850 heartbeat IPC: 0.18702 cumulative IPC: 0.188868 (Simulation time: 0 hr 24 min 32 sec) 
Heartbeat CPU 0 instructions: 110000001 cycles: 450938937 heartbeat IPC: 0.196857 cumulative IPC: 0.203668 (Simulation time: 0 hr 25 min 26 sec) 
Heartbeat CPU 2 instructions: 140000000 cycles: 464120923 heartbeat IPC: 0.286988 cumulative IPC: 0.246068 (Simulation time: 0 hr 25 min 58 sec) 
Heartbeat CPU 1 instructions: 110000002 cycles: 465171050 heartbeat IPC: 0.191358 cumulative IPC: 0.197183 (Simulation time: 0 hr 26 min 0 sec) 
Heartbeat CPU 3 instructions: 110000000 cycles: 480200391 heartbeat IPC: 0.203842 cumulative IPC: 0.190427 (Simulation time: 0 hr 26 min 35 sec) 
Heartbeat CPU 0 instructions: 120000000 cycles: 503363566 heartbeat IPC: 0.19075 cumulative IPC: 0.202298 (Simulation time: 0 hr 27 min 28 sec) 
Finished CPU 0 instructions: 100000001 cycles: 494320316 cumulative IPC: 0.202298 (Simulation time: 0 hr 27 min 28 sec) 
Heartbeat CPU 1 instructions: 120000000 cycles: 517925892 heartbeat IPC: 0.189556 cumulative IPC: 0.196393 (Simulation time: 0 hr 28 min 1 sec) 
Finished CPU 1 instructions: 100000001 cycles: 509184714 cumulative IPC: 0.196392 (Simulation time: 0 hr 28 min 2 sec) 
Heartbeat CPU 2 instructions: 150000000 cycles: 527718261 heartbeat IPC: 0.157239 cumulative IPC: 0.235176 (Simulation time: 0 hr 28 min 23 sec) 
Heartbeat CPU 3 instructions: 120000000 cycles: 532453349 heartbeat IPC: 0.191377 cumulative IPC: 0.190522 (Simulation time: 0 hr 28 min 33 sec) 
Finished CPU 3 instructions: 100000003 cycles: 524832932 cumulative IPC: 0.190537 (Simulation time: 0 hr 28 min 36 sec) 

CPU 0 Branch Prediction Accuracy: 97.3749% MPKI: 4.8283

CPU 1 Branch Prediction Accuracy: 97.3214% MPKI: 4.98124

CPU 2 Branch Prediction Accuracy: 97.1908% MPKI: 4.44016

CPU 3 Branch Prediction Accuracy: 97.2414% MPKI: 5.15408

ChampSim completed all CPUs

Total Simulation Statistics (not including warmup)

CPU 0 cumulative IPC: 0.201408 instructions: 105705609 cycles: 524832931
L1D TOTAL     ACCESS:   16983740  HIT:   14978970  MISS:    2004770
L1D LOAD      ACCESS:    9895800  HIT:    8434264  MISS:    1461536
L1D RFO       ACCESS:    7087940  HIT:    6544706  MISS:     543234
L1D PREFETCH  ACCESS:          0  HIT:          0  MISS:          0
L1D WRITEBACK ACCESS:          0  HIT:          0  MISS:          0
L1I TOTAL     ACCESS:   24014517  HIT:   19893103  MISS:    4121414
L1I LOAD      ACCESS:   24014517  HIT:   19893103  MISS:    4121414
L1I RFO       ACCESS:          0  HIT:          0  MISS:          0
L1I PREFETCH  ACCESS:          0  HIT:          0  MISS:          0
L1I WRITEBACK ACCESS:          0  HIT:          0  MISS:          0
L2C TOTAL     ACCESS:   13009612  HIT:   11743574  MISS:    1266038
L2C LOAD      ACCESS:    5582829  HIT:    5219531  MISS:     363298
L2C RFO       ACCESS:     542941  HIT:     300183  MISS:     242758
L2C PREFETCH  ACCESS:    6122688  HIT:    5479585  MISS:     643103
L2C WRITEBACK ACCESS:     761154  HIT:     744275  MISS:      16879
Printing all the perceptron weights to: perc_weights_0.csv


****HISTOGRAMMING STATS****
	Index		 hist_tots 		 hist_hits 		 hist_ratio
      -224   	          0 	          0 	          0
      -214   	          0 	          0 	          0
      -204   	          0 	          0 	          0
      -194   	          0 	          0 	          0
      -184   	          0 	          0 	          0
      -174   	          0 	          0 	          0
      -164   	          0 	          0 	          0
      -154   	          0 	          0 	          0
      -144   	          0 	          0 	          0
      -134   	          0 	          0 	          0
      -124   	          0 	          0 	          0
      -114   	          0 	          0 	          0
      -104   	          0 	          0 	          0
       -94   	          0 	          0 	          0
       -84   	          0 	          0 	          0
       -74   	          0 	          0 	          0
       -64   	          0 	          0 	          0
       -54   	          0 	          0 	          0
       -44   	          0 	          0 	          0
       -34   	          0 	          0 	          0
       -24   	     941255 	          0 	          0
       -14   	    8122654 	      94193 	  0.0115963
        -4   	    5815751 	    1426306 	   0.245249
         6   	    5215097 	    2869425 	   0.550215
        16   	    5238249 	    4051905 	   0.773523
        26   	    3862397 	    3350070 	   0.867355
        36   	    1908305 	    1725217 	   0.904057
        46   	     694713 	     638379 	    0.91891
        56   	     204674 	     189112 	   0.923967
        66   	      47929 	      44416 	   0.926704
        76   	       8745 	       8094 	   0.925557
        86   	       1184 	       1101 	   0.929899
        96   	         91 	         82 	   0.901099
       106   	         11 	         10 	   0.909091
       116   	          0 	          0 	          0
       126   	          0 	          0 	          0
       136   	          0 	          0 	          0
       146   	          0 	          0 	          0
       156   	          0 	          0 	          0
       166   	          0 	          0 	          0
       176   	          0 	          0 	          0
       186   	          0 	          0 	          0
       196   	          0 	          0 	          0
       206   	          0 	          0 	          0
       216   	          0 	          0 	          0
       226   	          0 	          0 	          0
       236   	          0 	          0 	          0
       246   	          0 	          0 	          0
       256   	          0 	          0 	          0
       266   	          0 	          0 	          0
       276   	          0 	          0 	          0
       286   	          0 	          0 	          0
       296   	          0 	          0 	          0
       306   	          0 	          0 	          0
       316   	          0 	          0 	          0
LLC TOTAL     ACCESS:    1958809  HIT:    1389034  MISS:     569775
LLC LOAD      ACCESS:     285432  HIT:     212121  MISS:      73311
LLC RFO       ACCESS:     242633  HIT:     131722  MISS:     110911
LLC PREFETCH  ACCESS:    1106627  HIT:     721741  MISS:     384886
LLC WRITEBACK ACCESS:     324117  HIT:     323450  MISS:        667

CPU 1 cumulative IPC: 0.196318 instructions: 103034050 cycles: 524832932
L1D TOTAL     ACCESS:   16883085  HIT:   14918700  MISS:    1964385
L1D LOAD      ACCESS:    9734239  HIT:    8304632  MISS:    1429607
L1D RFO       ACCESS:    7148846  HIT:    6614068  MISS:     534778
L1D PREFETCH  ACCESS:          0  HIT:          0  MISS:          0
L1D WRITEBACK ACCESS:          0  HIT:          0  MISS:          0
L1I TOTAL     ACCESS:   23601576  HIT:   19485993  MISS:    4115583
L1I LOAD      ACCESS:   23601576  HIT:   19485993  MISS:    4115583
L1I RFO       ACCESS:          0  HIT:          0  MISS:          0
L1I PREFETCH  ACCESS:          0  HIT:          0  MISS:          0
L1I WRITEBACK ACCESS:          0  HIT:          0  MISS:          0
L2C TOTAL     ACCESS:   12906057  HIT:   11659177  MISS:    1246880
L2C LOAD      ACCESS:    5545080  HIT:    5177839  MISS:     367241
L2C RFO       ACCESS:     534579  HIT:     299759  MISS:     234820
L2C PREFETCH  ACCESS:    6080021  HIT:    5452564  MISS:     627457
L2C WRITEBACK ACCESS:     746377  HIT:     729015  MISS:      17362
Printing all the perceptron weights to: perc_weights_0.csv


****HISTOGRAMMING STATS****
	Index		 hist_tots 		 hist_hits 		 hist_ratio
      -224   	          0 	          0 	          0
      -214   	          0 	          0 	          0
      -204   	          0 	          0 	          0
      -194   	          0 	          0 	          0
      -184   	          0 	          0 	          0
      -174   	          0 	          0 	          0
      -164   	          0 	          0 	          0
      -154   	          0 	          0 	          0
      -144   	          0 	          0 	          0
      -134   	          0 	          0 	          0
      -124   	          0 	          0 	          0
      -114   	          0 	          0 	          0
      -104   	          0 	          0 	          0
       -94   	          0 	          0 	          0
       -84   	          0 	          0 	          0
       -74   	          0 	          0 	          0
       -64   	          0 	          0 	          0
       -54   	          0 	          0 	          0
       -44   	          0 	          0 	          0
       -34   	          0 	          0 	          0
       -24   	     941255 	          0 	          0
       -14   	    8122654 	      94193 	  0.0115963
        -4   	    5815751 	    1426306 	   0.245249
         6   	    5215097 	    2869425 	   0.550215
        16   	    5238249 	    4051905 	   0.773523
        26   	    3862397 	    3350070 	   0.867355
        36   	    1908305 	    1725217 	   0.904057
        46   	     694713 	     638379 	    0.91891
        56   	     204674 	     189112 	   0.923967
        66   	      47929 	      44416 	   0.926704
        76   	       8745 	       8094 	   0.925557
        86   	       1184 	       1101 	   0.929899
        96   	         91 	         82 	   0.901099
       106   	         11 	         10 	   0.909091
       116   	          0 	          0 	          0
       126   	          0 	          0 	          0
       136   	          0 	          0 	          0
       146   	          0 	          0 	          0
       156   	          0 	          0 	          0
       166   	          0 	          0 	          0
       176   	          0 	          0 	          0
       186   	          0 	          0 	          0
       196   	          0 	          0 	          0
       206   	          0 	          0 	          0
       216   	          0 	          0 	          0
       226   	          0 	          0 	          0
       236   	          0 	          0 	          0
       246   	          0 	          0 	          0
       256   	          0 	          0 	          0
       266   	          0 	          0 	          0
       276   	          0 	          0 	          0
       286   	          0 	          0 	          0
       296   	          0 	          0 	          0
       306   	          0 	          0 	          0
       316   	          0 	          0 	          0
LLC TOTAL     ACCESS:    1940321  HIT:    1405705  MISS:     534616
LLC LOAD      ACCESS:     292718  HIT:     218824  MISS:      73894
LLC RFO       ACCESS:     234679  HIT:     130478  MISS:     104201
LLC PREFETCH  ACCESS:    1097240  HIT:     741438  MISS:     355802
LLC WRITEBACK ACCESS:     315684  HIT:     314965  MISS:        719

CPU 2 cumulative IPC: 0.234235 instructions: 122934093 cycles: 524832932
L1D TOTAL     ACCESS:   16165201  HIT:   14226019  MISS:    1939182
L1D LOAD      ACCESS:   10635240  HIT:    9123945  MISS:    1511295
L1D RFO       ACCESS:    5529961  HIT:    5102074  MISS:     427887
L1D PREFETCH  ACCESS:          0  HIT:          0  MISS:          0
L1D WRITEBACK ACCESS:          0  HIT:          0  MISS:          0
L1I TOTAL     ACCESS:   25094479  HIT:   22328888  MISS:    2765591
L1I LOAD      ACCESS:   25094479  HIT:   22328888  MISS:    2765591
L1I RFO       ACCESS:          0  HIT:          0  MISS:          0
L1I PREFETCH  ACCESS:          0  HIT:          0  MISS:          0
L1I WRITEBACK ACCESS:          0  HIT:          0  MISS:          0
L2C TOTAL     ACCESS:   10173452  HIT:    8592741  MISS:    1580711
L2C LOAD      ACCESS:    4276694  HIT:    3782061  MISS:     494633
L2C RFO       ACCESS:     427744  HIT:     272020  MISS:     155724
L2C PREFETCH  ACCESS:    4739521  HIT:    3832564  MISS:     906957
L2C WRITEBACK ACCESS:     729493  HIT:     706096  MISS:      23397
Printing all the perceptron weights to: perc_weights_0.csv


****HISTOGRAMMING STATS****
	Index		 hist_tots 		 hist_hits 		 hist_ratio
      -224   	          0 	          0 	          0
      -214   	          0 	          0 	          0
      -204   	          0 	          0 	          0
      -194   	          0 	          0 	          0
      -184   	          0 	          0 	          0
      -174   	          0 	          0 	          0
      -164   	          0 	          0 	          0
      -154   	          0 	          0 	          0
      -144   	          0 	          0 	          0
      -134   	          0 	          0 	          0
      -124   	          0 	          0 	          0
      -114   	          0 	          0 	          0
      -104   	          0 	          0 	          0
       -94   	          0 	          0 	          0
       -84   	          0 	          0 	          0
       -74   	          0 	          0 	          0
       -64   	          0 	          0 	          0
       -54   	          0 	          0 	          0
       -44   	          0 	          0 	          0
       -34   	          0 	          0 	          0
       -24   	     941255 	          0 	          0
       -14   	    8122654 	      94193 	  0.0115963
        -4   	    5815751 	    1426306 	   0.245249
         6   	    5215097 	    2869425 	   0.550215
        16   	    5238249 	    4051905 	   0.773523
        26   	    3862397 	    3350070 	   0.867355
        36   	    1908305 	    1725217 	   0.904057
        46   	     694713 	     638379 	    0.91891
        56   	     204674 	     189112 	   0.923967
        66   	      47929 	      44416 	   0.926704
        76   	       8745 	       8094 	   0.925557
        86   	       1184 	       1101 	   0.929899
        96   	         91 	         82 	   0.901099
       106   	         11 	         10 	   0.909091
       116   	          0 	          0 	          0
       126   	          0 	          0 	          0
       136   	          0 	          0 	          0
       146   	          0 	          0 	          0
       156   	          0 	          0 	          0
       166   	          0 	          0 	          0
       176   	          0 	          0 	          0
       186   	          0 	          0 	          0
       196   	          0 	          0 	          0
       206   	          0 	          0 	          0
       216   	          0 	          0 	          0
       226   	          0 	          0 	          0
       236   	          0 	          0 	          0
       246   	          0 	          0 	          0
       256   	          0 	          0 	          0
       266   	          0 	          0 	          0
       276   	          0 	          0 	          0
       286   	          0 	          0 	          0
       296   	          0 	          0 	          0
       306   	          0 	          0 	          0
       316   	          0 	          0 	          0
LLC TOTAL     ACCESS:    2250606  HIT:    1567649  MISS:     682957
LLC LOAD      ACCESS:     453450  HIT:     387659  MISS:      65791
LLC RFO       ACCESS:     155609  HIT:      96189  MISS:      59420
LLC PREFETCH  ACCESS:    1344601  HIT:     787505  MISS:     557096
LLC WRITEBACK ACCESS:     296946  HIT:     296296  MISS:        650

CPU 3 cumulative IPC: 0.190537 instructions: 100000003 cycles: 524832932
L1D TOTAL     ACCESS:   16780570  HIT:   14808428  MISS:    1972142
L1D LOAD      ACCESS:    9652509  HIT:    8229249  MISS:    1423260
L1D RFO       ACCESS:    7128061  HIT:    6579179  MISS:     548882
L1D PREFETCH  ACCESS:          0  HIT:          0  MISS:          0
L1D WRITEBACK ACCESS:          0  HIT:          0  MISS:          0
L1I TOTAL     ACCESS:   23066616  HIT:   18930270  MISS:    4136346
L1I LOAD      ACCESS:   23066616  HIT:   18930270  MISS:    4136346
L1I RFO       ACCESS:          0  HIT:          0  MISS:          0
L1I PREFETCH  ACCESS:          0  HIT:          0  MISS:          0
L1I WRITEBACK ACCESS:          0  HIT:          0  MISS:          0
L2C TOTAL     ACCESS:   12986604  HIT:   11779813  MISS:    1206791
L2C LOAD      ACCESS:    5559523  HIT:    5205861  MISS:     353662
L2C RFO       ACCESS:     548613  HIT:     299719  MISS:     248894
L2C PREFETCH  ACCESS:    6118541  HIT:    5530361  MISS:     588180
L2C WRITEBACK ACCESS:     759927  HIT:     743872  MISS:      16055
Printing all the perceptron weights to: perc_weights_0.csv


****HISTOGRAMMING STATS****
	Index		 hist_tots 		 hist_hits 		 hist_ratio
      -224   	          0 	          0 	          0
      -214   	          0 	          0 	          0
      -204   	          0 	          0 	          0
      -194   	          0 	          0 	          0
      -184   	          0 	          0 	          0
      -174   	          0 	          0 	          0
      -164   	          0 	          0 	          0
      -154   	          0 	          0 	          0
      -144   	          0 	          0 	          0
      -134   	          0 	          0 	          0
      -124   	          0 	          0 	          0
      -114   	          0 	          0 	          0
      -104   	          0 	          0 	          0
       -94   	          0 	          0 	          0
       -84   	          0 	          0 	          0
       -74   	          0 	          0 	          0
       -64   	          0 	          0 	          0
       -54   	          0 	          0 	          0
       -44   	          0 	          0 	          0
       -34   	          0 	          0 	          0
       -24   	     941255 	          0 	          0
       -14   	    8122654 	      94193 	  0.0115963
        -4   	    5815751 	    1426306 	   0.245249
         6   	    5215097 	    2869425 	   0.550215
        16   	    5238249 	    4051905 	   0.773523
        26   	    3862397 	    3350070 	   0.867355
        36   	    1908305 	    1725217 	   0.904057
        46   	     694713 	     638379 	    0.91891
        56   	     204674 	     189112 	   0.923967
        66   	      47929 	      44416 	   0.926704
        76   	       8745 	       8094 	   0.925557
        86   	       1184 	       1101 	   0.929899
        96   	         91 	         82 	   0.901099
       106   	         11 	         10 	   0.909091
       116   	          0 	          0 	          0
       126   	          0 	          0 	          0
       136   	          0 	          0 	          0
       146   	          0 	          0 	          0
       156   	          0 	          0 	          0
       166   	          0 	          0 	          0
       176   	          0 	          0 	          0
       186   	          0 	          0 	          0
       196   	          0 	          0 	          0
       206   	          0 	          0 	          0
       216   	          0 	          0 	          0
       226   	          0 	          0 	          0
       236   	          0 	          0 	          0
       246   	          0 	          0 	          0
       256   	          0 	          0 	          0
       266   	          0 	          0 	          0
       276   	          0 	          0 	          0
       286   	          0 	          0 	          0
       296   	          0 	          0 	          0
       306   	          0 	          0 	          0
       316   	          0 	          0 	          0
LLC TOTAL     ACCESS:    1904257  HIT:    1378275  MISS:     525982
LLC LOAD      ACCESS:     276288  HIT:     205423  MISS:      70865
LLC RFO       ACCESS:     248747  HIT:     131516  MISS:     117231
LLC PREFETCH  ACCESS:    1049387  HIT:     712226  MISS:     337161
LLC WRITEBACK ACCESS:     329835  HIT:     329110  MISS:        725

Region of Interest Statistics

CPU 0 cumulative IPC: 0.202298 instructions: 100000001 cycles: 494320316
L1D TOTAL     ACCESS:   16009546  HIT:   14107232  MISS:    1902314
L1D LOAD      ACCESS:    9347667  HIT:    7960764  MISS:    1386903
L1D RFO       ACCESS:    6661879  HIT:    6146468  MISS:     515411
L1D PREFETCH  ACCESS:          0  HIT:          0  MISS:          0
L1D WRITEBACK ACCESS:          0  HIT:          0  MISS:          0
L1D PREFETCH  REQUESTED:          0  ISSUED:          0  USEFUL:          0  USELESS:          0
L1I TOTAL     ACCESS:   22689956  HIT:   18809934  MISS:    3880022
L1I LOAD      ACCESS:   22689956  HIT:   18809934  MISS:    3880022
L1I RFO       ACCESS:          0  HIT:          0  MISS:          0
L1I PREFETCH  ACCESS:          0  HIT:          0  MISS:          0
L1I WRITEBACK ACCESS:          0  HIT:          0  MISS:          0
L1I PREFETCH  REQUESTED:          0  ISSUED:          0  USEFUL:          0  USELESS:          0
L2C TOTAL     ACCESS:   12277531  HIT:   11055395  MISS:    1222136
L2C LOAD      ACCESS:    5266817  HIT:    4914705  MISS:     352112
L2C RFO       ACCESS:     515147  HIT:     281714  MISS:     233433
L2C PREFETCH  ACCESS:    5772647  HIT:    5152333  MISS:     620314
L2C WRITEBACK ACCESS:     722920  HIT:     706643  MISS:      16277
L2C PREFETCH  REQUESTED:    8610781  ISSUED:    8466899  USEFUL:     404210  USELESS:     380544
LLC TOTAL     ACCESS:    1887311  HIT:    1334203  MISS:     553108
LLC LOAD      ACCESS:     277450  HIT:     206496  MISS:      70954
LLC RFO       ACCESS:     233313  HIT:     124531  MISS:     108782
LLC PREFETCH  ACCESS:    1064627  HIT:     691890  MISS:     372737
LLC WRITEBACK ACCESS:     311921  HIT:     311286  MISS:        635
LLC PREFETCH  REQUESTED:          0  ISSUED:          0  USEFUL:      73699  USELESS:    1872047
Major fault: 0 Minor fault: 17973

CPU 1 cumulative IPC: 0.196392 instructions: 100000001 cycles: 509184714
L1D TOTAL     ACCESS:   16367669  HIT:   14456860  MISS:    1910809
L1D LOAD      ACCESS:    9446725  HIT:    8055493  MISS:    1391232
L1D RFO       ACCESS:    6920944  HIT:    6401367  MISS:     519577
L1D PREFETCH  ACCESS:          0  HIT:          0  MISS:          0
L1D WRITEBACK ACCESS:          0  HIT:          0  MISS:          0
L1D PREFETCH  REQUESTED:          0  ISSUED:          0  USEFUL:          0  USELESS:          0
L1I TOTAL     ACCESS:   22894706  HIT:   18901030  MISS:    3993676
L1I LOAD      ACCESS:   22894706  HIT:   18901030  MISS:    3993676
L1I RFO       ACCESS:          0  HIT:          0  MISS:          0
L1I PREFETCH  ACCESS:          0  HIT:          0  MISS:          0
L1I WRITEBACK ACCESS:          0  HIT:          0  MISS:          0
L1I PREFETCH  REQUESTED:          0  ISSUED:          0  USEFUL:          0  USELESS:          0
L2C TOTAL     ACCESS:   12530576  HIT:   11312290  MISS:    1218286
L2C LOAD      ACCESS:    5384802  HIT:    5025408  MISS:     359394
L2C RFO       ACCESS:     519381  HIT:     290673  MISS:     228708
L2C PREFETCH  ACCESS:    5900865  HIT:    5287601  MISS:     613264
L2C WRITEBACK ACCESS:     725528  HIT:     708608  MISS:      16920
L2C PREFETCH  REQUESTED:    8555931  ISSUED:    8425895  USEFUL:     369989  USELESS:     383125
LLC TOTAL     ACCESS:    1895342  HIT:    1371877  MISS:     523465
LLC LOAD      ACCESS:     286916  HIT:     214236  MISS:      72680
LLC RFO       ACCESS:     228569  HIT:     126776  MISS:     101793
LLC PREFETCH  ACCESS:    1071894  HIT:     723598  MISS:     348296
LLC WRITEBACK ACCESS:     307963  HIT:     307267  MISS:        696
LLC PREFETCH  REQUESTED:          0  ISSUED:          0  USEFUL:      73699  USELESS:    1872047
Major fault: 0 Minor fault: 17503

CPU 2 cumulative IPC: 0.24016 instructions: 100000000 cycles: 416389564
L1D TOTAL     ACCESS:   12906702  HIT:   11361103  MISS:    1545599
L1D LOAD      ACCESS:    8550090  HIT:    7340037  MISS:    1210053
L1D RFO       ACCESS:    4356612  HIT:    4021066  MISS:     335546
L1D PREFETCH  ACCESS:          0  HIT:          0  MISS:          0
L1D WRITEBACK ACCESS:          0  HIT:          0  MISS:          0
L1D PREFETCH  REQUESTED:          0  ISSUED:          0  USEFUL:          0  USELESS:          0
L1I TOTAL     ACCESS:   20322442  HIT:   18179307  MISS:    2143135
L1I LOAD      ACCESS:   20322442  HIT:   18179307  MISS:    2143135
L1I RFO       ACCESS:          0  HIT:          0  MISS:          0
L1I PREFETCH  ACCESS:          0  HIT:          0  MISS:          0
L1I WRITEBACK ACCESS:          0  HIT:          0  MISS:          0
L1I PREFETCH  REQUESTED:          0  ISSUED:          0  USEFUL:          0  USELESS:          0
L2C TOTAL     ACCESS:    7965485  HIT:    6684765  MISS:    1280720
L2C LOAD      ACCESS:    3353032  HIT:    2957806  MISS:     395226
L2C RFO       ACCESS:     335435  HIT:     210352  MISS:     125083
L2C PREFETCH  ACCESS:    3703536  HIT:    2961056  MISS:     742480
L2C WRITEBACK ACCESS:     573482  HIT:     555551  MISS:      17931
L2C PREFETCH  REQUESTED:    6312098  ISSUED:    6153022  USEFUL:     695491  USELESS:     422891
LLC TOTAL     ACCESS:    1814895  HIT:    1244495  MISS:     570400
LLC LOAD      ACCESS:     362040  HIT:     307928  MISS:      54112
LLC RFO       ACCESS:     124993  HIT:      75802  MISS:      49191
LLC PREFETCH  ACCESS:    1088651  HIT:     622070  MISS:     466581
LLC WRITEBACK ACCESS:     239211  HIT:     238695  MISS:        516
LLC PREFETCH  REQUESTED:          0  ISSUED:          0  USEFUL:      73699  USELESS:    1872047
Major fault: 0 Minor fault: 15290

CPU 3 cumulative IPC: 0.190537 instructions: 100000003 cycles: 524832932
L1D TOTAL     ACCESS:   16780570  HIT:   14808428  MISS:    1972142
L1D LOAD      ACCESS:    9652509  HIT:    8229249  MISS:    1423260
L1D RFO       ACCESS:    7128061  HIT:    6579179  MISS:     548882
L1D PREFETCH  ACCESS:          0  HIT:          0  MISS:          0
L1D WRITEBACK ACCESS:          0  HIT:          0  MISS:          0
L1D PREFETCH  REQUESTED:          0  ISSUED:          0  USEFUL:          0  USELESS:          0
L1I TOTAL     ACCESS:   23066616  HIT:   18930270  MISS:    4136346
L1I LOAD      ACCESS:   23066616  HIT:   18930270  MISS:    4136346
L1I RFO       ACCESS:          0  HIT:          0  MISS:          0
L1I PREFETCH  ACCESS:          0  HIT:          0  MISS:          0
L1I WRITEBACK ACCESS:          0  HIT:          0  MISS:          0
L1I PREFETCH  REQUESTED:          0  ISSUED:          0  USEFUL:          0  USELESS:          0
L2C TOTAL     ACCESS:   12986604  HIT:   11779813  MISS:    1206791
L2C LOAD      ACCESS:    5559523  HIT:    5205861  MISS:     353662
L2C RFO       ACCESS:     548613  HIT:     299719  MISS:     248894
L2C PREFETCH  ACCESS:    6118541  HIT:    5530361  MISS:     588180
L2C WRITEBACK ACCESS:     759927  HIT:     743872  MISS:      16055
L2C PREFETCH  REQUESTED:    8582245  ISSUED:    8445643  USEFUL:     357866  USELESS:     373162
LLC TOTAL     ACCESS:    1904257  HIT:    1378275  MISS:     525982
LLC LOAD      ACCESS:     276288  HIT:     205423  MISS:      70865
LLC RFO       ACCESS:     248747  HIT:     131516  MISS:     117231
LLC PREFETCH  ACCESS:    1049387  HIT:     712226  MISS:     337161
LLC WRITEBACK ACCESS:     329835  HIT:     329110  MISS:        725
LLC PREFETCH  REQUESTED:          0  ISSUED:          0  USEFUL:      73699  USELESS:    1872047
Major fault: 0 Minor fault: 17867
Printing all the perceptron weights to: perc_weights_0.csv


****HISTOGRAMMING STATS****
	Index		 hist_tots 		 hist_hits 		 hist_ratio
      -224   	          0 	          0 	          0
      -214   	          0 	          0 	          0
      -204   	          0 	          0 	          0
      -194   	          0 	          0 	          0
      -184   	          0 	          0 	          0
      -174   	          0 	          0 	          0
      -164   	          0 	          0 	          0
      -154   	          0 	          0 	          0
      -144   	          0 	          0 	          0
      -134   	          0 	          0 	          0
      -124   	          0 	          0 	          0
      -114   	          0 	          0 	          0
      -104   	          0 	          0 	          0
       -94   	          0 	          0 	          0
       -84   	          0 	          0 	          0
       -74   	          0 	          0 	          0
       -64   	          0 	          0 	          0
       -54   	          0 	          0 	          0
       -44   	          0 	          0 	          0
       -34   	          0 	          0 	          0
       -24   	     941255 	          0 	          0
       -14   	    8122654 	      94193 	  0.0115963
        -4   	    5815751 	    1426306 	   0.245249
         6   	    5215097 	    2869425 	   0.550215
        16   	    5238249 	    4051905 	   0.773523
        26   	    3862397 	    3350070 	   0.867355
        36   	    1908305 	    1725217 	   0.904057
        46   	     694713 	     638379 	    0.91891
        56   	     204674 	     189112 	   0.923967
        66   	      47929 	      44416 	   0.926704
        76   	       8745 	       8094 	   0.925557
        86   	       1184 	       1101 	   0.929899
        96   	         91 	         82 	   0.901099
       106   	         11 	         10 	   0.909091
       116   	          0 	          0 	          0
       126   	          0 	          0 	          0
       136   	          0 	          0 	          0
       146   	          0 	          0 	          0
       156   	          0 	          0 	          0
       166   	          0 	          0 	          0
       176   	          0 	          0 	          0
       186   	          0 	          0 	          0
       196   	          0 	          0 	          0
       206   	          0 	          0 	          0
       216   	          0 	          0 	          0
       226   	          0 	          0 	          0
       236   	          0 	          0 	          0
       246   	          0 	          0 	          0
       256   	          0 	          0 	          0
       266   	          0 	          0 	          0
       276   	          0 	          0 	          0
       286   	          0 	          0 	          0
       296   	          0 	          0 	          0
       306   	          0 	          0 	          0
       316   	          0 	          0 	          0
Printing all the perceptron weights to: perc_weights_0.csv


****HISTOGRAMMING STATS****
	Index		 hist_tots 		 hist_hits 		 hist_ratio
      -224   	          0 	          0 	          0
      -214   	          0 	          0 	          0
      -204   	          0 	          0 	          0
      -194   	          0 	          0 	          0
      -184   	          0 	          0 	          0
      -174   	          0 	          0 	          0
      -164   	          0 	          0 	          0
      -154   	          0 	          0 	          0
      -144   	          0 	          0 	          0
      -134   	          0 	          0 	          0
      -124   	          0 	          0 	          0
      -114   	          0 	          0 	          0
      -104   	          0 	          0 	          0
       -94   	          0 	          0 	          0
       -84   	          0 	          0 	          0
       -74   	          0 	          0 	          0
       -64   	          0 	          0 	          0
       -54   	          0 	          0 	          0
       -44   	          0 	          0 	          0
       -34   	          0 	          0 	          0
       -24   	     941255 	          0 	          0
       -14   	    8122654 	      94193 	  0.0115963
        -4   	    5815751 	    1426306 	   0.245249
         6   	    5215097 	    2869425 	   0.550215
        16   	    5238249 	    4051905 	   0.773523
        26   	    3862397 	    3350070 	   0.867355
        36   	    1908305 	    1725217 	   0.904057
        46   	     694713 	     638379 	    0.91891
        56   	     204674 	     189112 	   0.923967
        66   	      47929 	      44416 	   0.926704
        76   	       8745 	       8094 	   0.925557
        86   	       1184 	       1101 	   0.929899
        96   	         91 	         82 	   0.901099
       106   	         11 	         10 	   0.909091
       116   	          0 	          0 	          0
       126   	          0 	          0 	          0
       136   	          0 	          0 	          0
       146   	          0 	          0 	          0
       156   	          0 	          0 	          0
       166   	          0 	          0 	          0
       176   	          0 	          0 	          0
       186   	          0 	          0 	          0
       196   	          0 	          0 	          0
       206   	          0 	          0 	          0
       216   	          0 	          0 	          0
       226   	          0 	          0 	          0
       236   	          0 	          0 	          0
       246   	          0 	          0 	          0
       256   	          0 	          0 	          0
       266   	          0 	          0 	          0
       276   	          0 	          0 	          0
       286   	          0 	          0 	          0
       296   	          0 	          0 	          0
       306   	          0 	          0 	          0
       316   	          0 	          0 	          0
Printing all the perceptron weights to: perc_weights_0.csv


****HISTOGRAMMING STATS****
	Index		 hist_tots 		 hist_hits 		 hist_ratio
      -224   	          0 	          0 	          0
      -214   	          0 	          0 	          0
      -204   	          0 	          0 	          0
      -194   	          0 	          0 	          0
      -184   	          0 	          0 	          0
      -174   	          0 	          0 	          0
      -164   	          0 	          0 	          0
      -154   	          0 	          0 	          0
      -144   	          0 	          0 	          0
      -134   	          0 	          0 	          0
      -124   	          0 	          0 	          0
      -114   	          0 	          0 	          0
      -104   	          0 	          0 	          0
       -94   	          0 	          0 	          0
       -84   	          0 	          0 	          0
       -74   	          0 	          0 	          0
       -64   	          0 	          0 	          0
       -54   	          0 	          0 	          0
       -44   	          0 	          0 	          0
       -34   	          0 	          0 	          0
       -24   	     941255 	          0 	          0
       -14   	    8122654 	      94193 	  0.0115963
        -4   	    5815751 	    1426306 	   0.245249
         6   	    5215097 	    2869425 	   0.550215
        16   	    5238249 	    4051905 	   0.773523
        26   	    3862397 	    3350070 	   0.867355
        36   	    1908305 	    1725217 	   0.904057
        46   	     694713 	     638379 	    0.91891
        56   	     204674 	     189112 	   0.923967
        66   	      47929 	      44416 	   0.926704
        76   	       8745 	       8094 	   0.925557
        86   	       1184 	       1101 	   0.929899
        96   	         91 	         82 	   0.901099
       106   	         11 	         10 	   0.909091
       116   	          0 	          0 	          0
       126   	          0 	          0 	          0
       136   	          0 	          0 	          0
       146   	          0 	          0 	          0
       156   	          0 	          0 	          0
       166   	          0 	          0 	          0
       176   	          0 	          0 	          0
       186   	          0 	          0 	          0
       196   	          0 	          0 	          0
       206   	          0 	          0 	          0
       216   	          0 	          0 	          0
       226   	          0 	          0 	          0
       236   	          0 	          0 	          0
       246   	          0 	          0 	          0
       256   	          0 	          0 	          0
       266   	          0 	          0 	          0
       276   	          0 	          0 	          0
       286   	          0 	          0 	          0
       296   	          0 	          0 	          0
       306   	          0 	          0 	          0
       316   	          0 	          0 	          0
Printing all the perceptron weights to: perc_weights_0.csv


****HISTOGRAMMING STATS****
	Index		 hist_tots 		 hist_hits 		 hist_ratio
      -224   	          0 	          0 	          0
      -214   	          0 	          0 	          0
      -204   	          0 	          0 	          0
      -194   	          0 	          0 	          0
      -184   	          0 	          0 	          0
      -174   	          0 	          0 	          0
      -164   	          0 	          0 	          0
      -154   	          0 	          0 	          0
      -144   	          0 	          0 	          0
      -134   	          0 	          0 	          0
      -124   	          0 	          0 	          0
      -114   	          0 	          0 	          0
      -104   	          0 	          0 	          0
       -94   	          0 	          0 	          0
       -84   	          0 	          0 	          0
       -74   	          0 	          0 	          0
       -64   	          0 	          0 	          0
       -54   	          0 	          0 	          0
       -44   	          0 	          0 	          0
       -34   	          0 	          0 	          0
       -24   	     941255 	          0 	          0
       -14   	    8122654 	      94193 	  0.0115963
        -4   	    5815751 	    1426306 	   0.245249
         6   	    5215097 	    2869425 	   0.550215
        16   	    5238249 	    4051905 	   0.773523
        26   	    3862397 	    3350070 	   0.867355
        36   	    1908305 	    1725217 	   0.904057
        46   	     694713 	     638379 	    0.91891
        56   	     204674 	     189112 	   0.923967
        66   	      47929 	      44416 	   0.926704
        76   	       8745 	       8094 	   0.925557
        86   	       1184 	       1101 	   0.929899
        96   	         91 	         82 	   0.901099
       106   	         11 	         10 	   0.909091
       116   	          0 	          0 	          0
       126   	          0 	          0 	          0
       136   	          0 	          0 	          0
       146   	          0 	          0 	          0
       156   	          0 	          0 	          0
       166   	          0 	          0 	          0
       176   	          0 	          0 	          0
       186   	          0 	          0 	          0
       196   	          0 	          0 	          0
       206   	          0 	          0 	          0
       216   	          0 	          0 	          0
       226   	          0 	          0 	          0
       236   	          0 	          0 	          0
       246   	          0 	          0 	          0
       256   	          0 	          0 	          0
       266   	          0 	          0 	          0
       276   	          0 	          0 	          0
       286   	          0 	          0 	          0
       296   	          0 	          0 	          0
       306   	          0 	          0 	          0
       316   	          0 	          0 	          0

DRAM Statistics
 CHANNEL 0
 RQ ROW_BUFFER_HIT:     581746  ROW_BUFFER_MISS:     574779
 DBUS_CONGESTED:    1066064
 WQ ROW_BUFFER_HIT:      20550  ROW_BUFFER_MISS:     221721  FULL:          0

 CHANNEL 1
 RQ ROW_BUFFER_HIT:     581093  ROW_BUFFER_MISS:     572524
 DBUS_CONGESTED:    1066064
 WQ ROW_BUFFER_HIT:      20372  ROW_BUFFER_MISS:     220890  FULL:          0

 AVG_CONGESTED_CYCLE: 13
