Initialize SIGNATURE TABLE
ST_SET: 1
ST_WAY: 256
ST_TAG_BIT: 16
ST_TAG_MASK: ffff

Initialize PATTERN TABLE
PT_SET: 512
PT_WAY: 4
SIG_DELTA_BIT: 7
C_SIG_BIT: 4
C_DELTA_BIT: 4

Initialize PREFETCH FILTER
FILTER_SET: 1024

*** ChampSim Multicore Out-of-Order Simulator ***

Warmup Instructions: 200000000
Simulation Instructions: 1000000000
Number of CPUs: 4
LLC sets: 8192
LLC ways: 16
Off-chip DRAM Size: 8192 MB Channels: 2 Width: 64-bit Data Rate: 1600 MT/s

CPU 0 runs /scratch/user/djimenez/champsim-traces/speccpu2017/xz/649.fotonik3d_s/649.fotonik3d_s-7084B.champsimtrace.xz
CPU 1 runs /scratch/user/djimenez/champsim-traces/speccpu2017/xz/649.fotonik3d_s/649.fotonik3d_s-1176B.champsimtrace.xz
CPU 2 runs /scratch/user/djimenez/champsim-traces/speccpu2017/xz/619.lbm_s/619.lbm_s-2677B.champsimtrace.xz
CPU 3 runs /scratch/user/djimenez/champsim-traces/speccpu2017/xz/628.pop2_s/628.pop2_s-17B.champsimtrace.xz
Heartbeat CPU 3 instructions: 10000002 cycles: 4126622 heartbeat IPC: 2.42329 cumulative IPC: 2.42329 (Simulation time: 0 hr 1 min 50 sec) 
Heartbeat CPU 0 instructions: 10000000 cycles: 4191892 heartbeat IPC: 2.38556 cumulative IPC: 2.38556 (Simulation time: 0 hr 1 min 52 sec) 
Heartbeat CPU 1 instructions: 10000000 cycles: 4406569 heartbeat IPC: 2.26934 cumulative IPC: 2.26934 (Simulation time: 0 hr 1 min 58 sec) 
Heartbeat CPU 2 instructions: 10000001 cycles: 4924727 heartbeat IPC: 2.03057 cumulative IPC: 2.03057 (Simulation time: 0 hr 2 min 11 sec) 
Heartbeat CPU 3 instructions: 20000000 cycles: 8244921 heartbeat IPC: 2.42819 cumulative IPC: 2.42574 (Simulation time: 0 hr 3 min 40 sec) 
Heartbeat CPU 0 instructions: 20000000 cycles: 8382472 heartbeat IPC: 2.3863 cumulative IPC: 2.38593 (Simulation time: 0 hr 3 min 44 sec) 
Heartbeat CPU 1 instructions: 20000000 cycles: 8813099 heartbeat IPC: 2.26936 cumulative IPC: 2.26935 (Simulation time: 0 hr 3 min 55 sec) 
Heartbeat CPU 2 instructions: 20000000 cycles: 9818778 heartbeat IPC: 2.0433 cumulative IPC: 2.03691 (Simulation time: 0 hr 4 min 22 sec) 
Heartbeat CPU 3 instructions: 30000002 cycles: 12361141 heartbeat IPC: 2.42941 cumulative IPC: 2.42696 (Simulation time: 0 hr 5 min 30 sec) 
Heartbeat CPU 0 instructions: 30000000 cycles: 12563756 heartbeat IPC: 2.39161 cumulative IPC: 2.38782 (Simulation time: 0 hr 5 min 35 sec) 
Heartbeat CPU 1 instructions: 30000002 cycles: 13219706 heartbeat IPC: 2.26932 cumulative IPC: 2.26934 (Simulation time: 0 hr 5 min 53 sec) 
Heartbeat CPU 2 instructions: 30000000 cycles: 14738391 heartbeat IPC: 2.03268 cumulative IPC: 2.0355 (Simulation time: 0 hr 6 min 34 sec) 
Heartbeat CPU 3 instructions: 40000000 cycles: 16477368 heartbeat IPC: 2.42941 cumulative IPC: 2.42757 (Simulation time: 0 hr 7 min 19 sec) 
Heartbeat CPU 0 instructions: 40000000 cycles: 16739168 heartbeat IPC: 2.39497 cumulative IPC: 2.38961 (Simulation time: 0 hr 7 min 26 sec) 
Heartbeat CPU 1 instructions: 40000000 cycles: 17627473 heartbeat IPC: 2.26872 cumulative IPC: 2.26919 (Simulation time: 0 hr 7 min 50 sec) 
Heartbeat CPU 2 instructions: 40000000 cycles: 19644890 heartbeat IPC: 2.03811 cumulative IPC: 2.03615 (Simulation time: 0 hr 8 min 43 sec) 
Heartbeat CPU 3 instructions: 50000001 cycles: 20582494 heartbeat IPC: 2.43598 cumulative IPC: 2.42925 (Simulation time: 0 hr 9 min 8 sec) 
Heartbeat CPU 0 instructions: 50000001 cycles: 20910774 heartbeat IPC: 2.39716 cumulative IPC: 2.39111 (Simulation time: 0 hr 9 min 17 sec) 
Heartbeat CPU 1 instructions: 50000000 cycles: 22034255 heartbeat IPC: 2.26923 cumulative IPC: 2.26919 (Simulation time: 0 hr 9 min 47 sec) 
Heartbeat CPU 2 instructions: 50000000 cycles: 24579469 heartbeat IPC: 2.02652 cumulative IPC: 2.03422 (Simulation time: 0 hr 10 min 56 sec) 
Heartbeat CPU 3 instructions: 60000000 cycles: 24673942 heartbeat IPC: 2.44412 cumulative IPC: 2.43172 (Simulation time: 0 hr 10 min 59 sec) 
Heartbeat CPU 0 instructions: 60000000 cycles: 25097444 heartbeat IPC: 2.38853 cumulative IPC: 2.39068 (Simulation time: 0 hr 11 min 10 sec) 
Heartbeat CPU 1 instructions: 60000000 cycles: 26441542 heartbeat IPC: 2.26897 cumulative IPC: 2.26916 (Simulation time: 0 hr 11 min 44 sec) 
Heartbeat CPU 3 instructions: 70000001 cycles: 28747026 heartbeat IPC: 2.45514 cumulative IPC: 2.43503 (Simulation time: 0 hr 12 min 42 sec) 
Heartbeat CPU 0 instructions: 70000003 cycles: 29284952 heartbeat IPC: 2.38806 cumulative IPC: 2.39031 (Simulation time: 0 hr 12 min 55 sec) 
Heartbeat CPU 2 instructions: 60000000 cycles: 29506611 heartbeat IPC: 2.02957 cumulative IPC: 2.03344 (Simulation time: 0 hr 13 min 1 sec) 
Heartbeat CPU 1 instructions: 70000002 cycles: 30847899 heartbeat IPC: 2.26945 cumulative IPC: 2.2692 (Simulation time: 0 hr 13 min 35 sec) 
Heartbeat CPU 3 instructions: 80000000 cycles: 32480488 heartbeat IPC: 2.67848 cumulative IPC: 2.46302 (Simulation time: 0 hr 14 min 16 sec) 
Heartbeat CPU 0 instructions: 80000000 cycles: 33476268 heartbeat IPC: 2.38588 cumulative IPC: 2.38975 (Simulation time: 0 hr 14 min 40 sec) 
Heartbeat CPU 2 instructions: 70000000 cycles: 34417804 heartbeat IPC: 2.03617 cumulative IPC: 2.03383 (Simulation time: 0 hr 15 min 3 sec) 
Heartbeat CPU 1 instructions: 80000000 cycles: 35253664 heartbeat IPC: 2.26975 cumulative IPC: 2.26927 (Simulation time: 0 hr 15 min 24 sec) 
Heartbeat CPU 3 instructions: 90000002 cycles: 36484054 heartbeat IPC: 2.49777 cumulative IPC: 2.46683 (Simulation time: 0 hr 15 min 54 sec) 
Heartbeat CPU 0 instructions: 90000000 cycles: 37662467 heartbeat IPC: 2.3888 cumulative IPC: 2.38965 (Simulation time: 0 hr 16 min 25 sec) 
Heartbeat CPU 2 instructions: 80000000 cycles: 39332305 heartbeat IPC: 2.03479 cumulative IPC: 2.03395 (Simulation time: 0 hr 17 min 9 sec) 
Heartbeat CPU 1 instructions: 90000001 cycles: 39660342 heartbeat IPC: 2.26928 cumulative IPC: 2.26927 (Simulation time: 0 hr 17 min 18 sec) 
Heartbeat CPU 3 instructions: 100000000 cycles: 40598892 heartbeat IPC: 2.43023 cumulative IPC: 2.46312 (Simulation time: 0 hr 17 min 43 sec) 
Heartbeat CPU 0 instructions: 100000000 cycles: 41844961 heartbeat IPC: 2.39092 cumulative IPC: 2.38977 (Simulation time: 0 hr 18 min 15 sec) 
Heartbeat CPU 1 instructions: 100000000 cycles: 44067843 heartbeat IPC: 2.26886 cumulative IPC: 2.26923 (Simulation time: 0 hr 19 min 14 sec) 
Heartbeat CPU 2 instructions: 90000001 cycles: 44280408 heartbeat IPC: 2.02098 cumulative IPC: 2.0325 (Simulation time: 0 hr 19 min 20 sec) 
Heartbeat CPU 3 instructions: 110000003 cycles: 44492582 heartbeat IPC: 2.56826 cumulative IPC: 2.47232 (Simulation time: 0 hr 19 min 26 sec) 
Heartbeat CPU 0 instructions: 110000001 cycles: 46017954 heartbeat IPC: 2.39636 cumulative IPC: 2.39037 (Simulation time: 0 hr 20 min 12 sec) 
Heartbeat CPU 1 instructions: 110000000 cycles: 48474093 heartbeat IPC: 2.2695 cumulative IPC: 2.26925 (Simulation time: 0 hr 21 min 15 sec) 
Heartbeat CPU 3 instructions: 120000000 cycles: 48480846 heartbeat IPC: 2.50736 cumulative IPC: 2.4752 (Simulation time: 0 hr 21 min 15 sec) 
Heartbeat CPU 2 instructions: 100000000 cycles: 49216535 heartbeat IPC: 2.02588 cumulative IPC: 2.03184 (Simulation time: 0 hr 21 min 33 sec) 
Heartbeat CPU 0 instructions: 120000000 cycles: 50190942 heartbeat IPC: 2.39636 cumulative IPC: 2.39087 (Simulation time: 0 hr 21 min 59 sec) 
Heartbeat CPU 3 instructions: 130000003 cycles: 52774400 heartbeat IPC: 2.32907 cumulative IPC: 2.46332 (Simulation time: 0 hr 23 min 6 sec) 
Heartbeat CPU 1 instructions: 120000000 cycles: 52881261 heartbeat IPC: 2.26903 cumulative IPC: 2.26923 (Simulation time: 0 hr 23 min 9 sec) 
Heartbeat CPU 2 instructions: 110000000 cycles: 54164398 heartbeat IPC: 2.02107 cumulative IPC: 2.03085 (Simulation time: 0 hr 23 min 40 sec) 
Heartbeat CPU 0 instructions: 130000001 cycles: 54376584 heartbeat IPC: 2.38912 cumulative IPC: 2.39073 (Simulation time: 0 hr 23 min 46 sec) 
Heartbeat CPU 3 instructions: 140000000 cycles: 57007713 heartbeat IPC: 2.36222 cumulative IPC: 2.45581 (Simulation time: 0 hr 24 min 51 sec) 
Heartbeat CPU 1 instructions: 130000001 cycles: 57287040 heartbeat IPC: 2.26975 cumulative IPC: 2.26927 (Simulation time: 0 hr 24 min 58 sec) 
Heartbeat CPU 0 instructions: 140000000 cycles: 58564841 heartbeat IPC: 2.38763 cumulative IPC: 2.39051 (Simulation time: 0 hr 25 min 34 sec) 
Heartbeat CPU 2 instructions: 120000000 cycles: 59088199 heartbeat IPC: 2.03095 cumulative IPC: 2.03086 (Simulation time: 0 hr 25 min 47 sec) 
Heartbeat CPU 3 instructions: 150000001 cycles: 60849629 heartbeat IPC: 2.60287 cumulative IPC: 2.46509 (Simulation time: 0 hr 26 min 38 sec) 
Heartbeat CPU 1 instructions: 140000000 cycles: 61693291 heartbeat IPC: 2.2695 cumulative IPC: 2.26929 (Simulation time: 0 hr 26 min 59 sec) 
Heartbeat CPU 0 instructions: 150000002 cycles: 62756612 heartbeat IPC: 2.38563 cumulative IPC: 2.39019 (Simulation time: 0 hr 27 min 25 sec) 
Heartbeat CPU 2 instructions: 130000000 cycles: 64007391 heartbeat IPC: 2.03285 cumulative IPC: 2.03102 (Simulation time: 0 hr 27 min 59 sec) 
Heartbeat CPU 3 instructions: 160000000 cycles: 65130745 heartbeat IPC: 2.33584 cumulative IPC: 2.4566 (Simulation time: 0 hr 28 min 25 sec) 
Heartbeat CPU 1 instructions: 150000003 cycles: 66099923 heartbeat IPC: 2.26931 cumulative IPC: 2.26929 (Simulation time: 0 hr 28 min 50 sec) 
Heartbeat CPU 0 instructions: 160000000 cycles: 66938990 heartbeat IPC: 2.39098 cumulative IPC: 2.39024 (Simulation time: 0 hr 29 min 11 sec) 
Heartbeat CPU 2 instructions: 140000000 cycles: 68944596 heartbeat IPC: 2.02544 cumulative IPC: 2.03062 (Simulation time: 0 hr 30 min 2 sec) 
Heartbeat CPU 3 instructions: 170000000 cycles: 69229059 heartbeat IPC: 2.44003 cumulative IPC: 2.45562 (Simulation time: 0 hr 30 min 9 sec) 
Heartbeat CPU 1 instructions: 160000000 cycles: 70507299 heartbeat IPC: 2.26892 cumulative IPC: 2.26927 (Simulation time: 0 hr 30 min 41 sec) 
Heartbeat CPU 0 instructions: 170000001 cycles: 71117692 heartbeat IPC: 2.39309 cumulative IPC: 2.3904 (Simulation time: 0 hr 30 min 57 sec) 
Heartbeat CPU 3 instructions: 180000000 cycles: 73327235 heartbeat IPC: 2.44011 cumulative IPC: 2.45475 (Simulation time: 0 hr 32 min 0 sec) 
Heartbeat CPU 2 instructions: 150000001 cycles: 73893300 heartbeat IPC: 2.02073 cumulative IPC: 2.02995 (Simulation time: 0 hr 32 min 15 sec) 
Heartbeat CPU 1 instructions: 170000001 cycles: 74914625 heartbeat IPC: 2.26895 cumulative IPC: 2.26925 (Simulation time: 0 hr 32 min 42 sec) 
Heartbeat CPU 0 instructions: 180000000 cycles: 75287679 heartbeat IPC: 2.39809 cumulative IPC: 2.39083 (Simulation time: 0 hr 32 min 52 sec) 
Heartbeat CPU 3 instructions: 190000002 cycles: 77444015 heartbeat IPC: 2.42908 cumulative IPC: 2.45339 (Simulation time: 0 hr 33 min 55 sec) 
Heartbeat CPU 2 instructions: 160000000 cycles: 78815798 heartbeat IPC: 2.03149 cumulative IPC: 2.03005 (Simulation time: 0 hr 34 min 33 sec) 
Heartbeat CPU 1 instructions: 180000000 cycles: 79321595 heartbeat IPC: 2.26913 cumulative IPC: 2.26924 (Simulation time: 0 hr 34 min 49 sec) 
Heartbeat CPU 0 instructions: 190000003 cycles: 79464506 heartbeat IPC: 2.39416 cumulative IPC: 2.391 (Simulation time: 0 hr 34 min 55 sec) 
Heartbeat CPU 3 instructions: 200000000 cycles: 81556595 heartbeat IPC: 2.43156 cumulative IPC: 2.45228 (Simulation time: 0 hr 35 min 54 sec) 
Heartbeat CPU 0 instructions: 200000000 cycles: 83650953 heartbeat IPC: 2.38866 cumulative IPC: 2.39089 (Simulation time: 0 hr 36 min 53 sec) 
Heartbeat CPU 1 instructions: 190000003 cycles: 83728061 heartbeat IPC: 2.26939 cumulative IPC: 2.26925 (Simulation time: 0 hr 36 min 56 sec) 
Heartbeat CPU 2 instructions: 170000003 cycles: 83730064 heartbeat IPC: 2.03489 cumulative IPC: 2.03033 (Simulation time: 0 hr 36 min 56 sec) 
Heartbeat CPU 3 instructions: 210000001 cycles: 85666457 heartbeat IPC: 2.43317 cumulative IPC: 0.116732 (Simulation time: 0 hr 38 min 1 sec) 
Heartbeat CPU 0 instructions: 210000001 cycles: 87840299 heartbeat IPC: 2.38701 cumulative IPC: 0.113843 (Simulation time: 0 hr 39 min 6 sec) 
Heartbeat CPU 1 instructions: 200000000 cycles: 88134471 heartbeat IPC: 2.26942 cumulative IPC: 2.26926 (Simulation time: 0 hr 39 min 14 sec) 
Heartbeat CPU 2 instructions: 180000000 cycles: 88609396 heartbeat IPC: 2.04946 cumulative IPC: 2.03139 (Simulation time: 0 hr 39 min 26 sec) 
Heartbeat CPU 3 instructions: 220000000 cycles: 89771554 heartbeat IPC: 2.436 cumulative IPC: 0.222788 (Simulation time: 0 hr 39 min 56 sec) 
Heartbeat CPU 0 instructions: 220000000 cycles: 92029511 heartbeat IPC: 2.38708 cumulative IPC: 0.217322 (Simulation time: 0 hr 40 min 53 sec) 
Heartbeat CPU 1 instructions: 210000001 cycles: 92541584 heartbeat IPC: 2.26906 cumulative IPC: 0.10806 (Simulation time: 0 hr 41 min 7 sec) 
Heartbeat CPU 2 instructions: 190000001 cycles: 93537653 heartbeat IPC: 2.02912 cumulative IPC: 2.03127 (Simulation time: 0 hr 41 min 32 sec) 
Heartbeat CPU 3 instructions: 230000000 cycles: 93885471 heartbeat IPC: 2.43077 cumulative IPC: 0.319538 (Simulation time: 0 hr 41 min 41 sec) 
Heartbeat CPU 0 instructions: 230000003 cycles: 96211594 heartbeat IPC: 2.39115 cumulative IPC: 0.311813 (Simulation time: 0 hr 42 min 41 sec) 
Heartbeat CPU 1 instructions: 220000000 cycles: 96949169 heartbeat IPC: 2.26882 cumulative IPC: 0.206294 (Simulation time: 0 hr 43 min 0 sec) 
Heartbeat CPU 3 instructions: 240000000 cycles: 97988252 heartbeat IPC: 2.43737 cumulative IPC: 0.408212 (Simulation time: 0 hr 43 min 26 sec) 
Heartbeat CPU 2 instructions: 200000000 cycles: 98449987 heartbeat IPC: 2.03569 cumulative IPC: 2.03149 (Simulation time: 0 hr 43 min 38 sec) 

Warmup complete CPU 0 instructions: 235352859 cycles: 98450011 (Simulation time: 0 hr 43 min 38 sec) 
Warmup complete CPU 1 instructions: 223405061 cycles: 98450011 (Simulation time: 0 hr 43 min 38 sec) 
Warmup complete CPU 2 instructions: 200000004 cycles: 98450011 (Simulation time: 0 hr 43 min 38 sec) 
Warmup complete CPU 3 instructions: 241114263 cycles: 98450010 (Simulation time: 0 hr 43 min 38 sec) 

Heartbeat CPU 0 instructions: 240000000 cycles: 102436287 heartbeat IPC: 1.6065 cumulative IPC: 1.16579 (Simulation time: 0 hr 44 min 32 sec) 
Heartbeat CPU 1 instructions: 230000002 cycles: 106401344 heartbeat IPC: 1.05796 cumulative IPC: 0.829413 (Simulation time: 0 hr 45 min 25 sec) 
Heartbeat CPU 3 instructions: 250000003 cycles: 106783404 heartbeat IPC: 1.13699 cumulative IPC: 1.06628 (Simulation time: 0 hr 45 min 31 sec) 
Heartbeat CPU 0 instructions: 250000000 cycles: 110887376 heartbeat IPC: 1.18328 cumulative IPC: 1.17767 (Simulation time: 0 hr 46 min 29 sec) 
Heartbeat CPU 3 instructions: 260000000 cycles: 115762389 heartbeat IPC: 1.11371 cumulative IPC: 1.09088 (Simulation time: 0 hr 47 min 29 sec) 
Heartbeat CPU 1 instructions: 240000000 cycles: 118130309 heartbeat IPC: 0.85259 cumulative IPC: 0.843226 (Simulation time: 0 hr 47 min 59 sec) 
Heartbeat CPU 0 instructions: 260000000 cycles: 119443974 heartbeat IPC: 1.16869 cumulative IPC: 1.17401 (Simulation time: 0 hr 48 min 16 sec) 
Heartbeat CPU 2 instructions: 210000002 cycles: 121316217 heartbeat IPC: 0.437326 cumulative IPC: 0.437327 (Simulation time: 0 hr 48 min 41 sec) 
Heartbeat CPU 3 instructions: 270000001 cycles: 126572925 heartbeat IPC: 0.925024 cumulative IPC: 1.02712 (Simulation time: 0 hr 49 min 51 sec) 
Heartbeat CPU 0 instructions: 270000000 cycles: 127879038 heartbeat IPC: 1.18553 cumulative IPC: 1.17731 (Simulation time: 0 hr 50 min 8 sec) 
Heartbeat CPU 1 instructions: 250000000 cycles: 129546748 heartbeat IPC: 0.87593 cumulative IPC: 0.855232 (Simulation time: 0 hr 50 min 30 sec) 
Heartbeat CPU 0 instructions: 280000000 cycles: 136431422 heartbeat IPC: 1.16926 cumulative IPC: 1.1755 (Simulation time: 0 hr 52 min 1 sec) 
Heartbeat CPU 3 instructions: 280000000 cycles: 136604336 heartbeat IPC: 0.996869 cumulative IPC: 1.01917 (Simulation time: 0 hr 52 min 3 sec) 
Heartbeat CPU 1 instructions: 260000000 cycles: 141584948 heartbeat IPC: 0.830689 cumulative IPC: 0.848383 (Simulation time: 0 hr 53 min 4 sec) 
Heartbeat CPU 0 instructions: 290000001 cycles: 145231974 heartbeat IPC: 1.13629 cumulative IPC: 1.16812 (Simulation time: 0 hr 53 min 52 sec) 
Heartbeat CPU 2 instructions: 220000000 cycles: 145340024 heartbeat IPC: 0.416254 cumulative IPC: 0.42653 (Simulation time: 0 hr 53 min 53 sec) 
Heartbeat CPU 3 instructions: 290000000 cycles: 146508408 heartbeat IPC: 1.00969 cumulative IPC: 1.01722 (Simulation time: 0 hr 54 min 8 sec) 
Heartbeat CPU 0 instructions: 300000000 cycles: 153872251 heartbeat IPC: 1.15737 cumulative IPC: 1.16645 (Simulation time: 0 hr 55 min 41 sec) 
Heartbeat CPU 1 instructions: 270000000 cycles: 154911586 heartbeat IPC: 0.750377 cumulative IPC: 0.82525 (Simulation time: 0 hr 55 min 53 sec) 
Heartbeat CPU 3 instructions: 300000000 cycles: 156295279 heartbeat IPC: 1.02178 cumulative IPC: 1.01799 (Simulation time: 0 hr 56 min 10 sec) 
Heartbeat CPU 0 instructions: 310000002 cycles: 162158606 heartbeat IPC: 1.2068 cumulative IPC: 1.1717 (Simulation time: 0 hr 57 min 30 sec) 
Heartbeat CPU 3 instructions: 310000000 cycles: 166923214 heartbeat IPC: 0.940917 cumulative IPC: 1.00602 (Simulation time: 0 hr 58 min 35 sec) 
Heartbeat CPU 1 instructions: 280000000 cycles: 167990733 heartbeat IPC: 0.764576 cumulative IPC: 0.813839 (Simulation time: 0 hr 58 min 49 sec) 
Heartbeat CPU 2 instructions: 230000003 cycles: 168667578 heartbeat IPC: 0.428678 cumulative IPC: 0.427244 (Simulation time: 0 hr 58 min 57 sec) 
Heartbeat CPU 0 instructions: 320000000 cycles: 170870841 heartbeat IPC: 1.14781 cumulative IPC: 1.16882 (Simulation time: 0 hr 59 min 24 sec) 
Heartbeat CPU 3 instructions: 320000000 cycles: 176822513 heartbeat IPC: 1.01017 cumulative IPC: 1.00655 (Simulation time: 1 hr 0 min 41 sec) 
Heartbeat CPU 0 instructions: 330000001 cycles: 179264364 heartbeat IPC: 1.19139 cumulative IPC: 1.17117 (Simulation time: 1 hr 1 min 13 sec) 
Heartbeat CPU 1 instructions: 290000002 cycles: 179708704 heartbeat IPC: 0.85339 cumulative IPC: 0.819542 (Simulation time: 1 hr 1 min 18 sec) 
Heartbeat CPU 3 instructions: 330000002 cycles: 184983737 heartbeat IPC: 1.22531 cumulative IPC: 1.02718 (Simulation time: 1 hr 2 min 24 sec) 
Heartbeat CPU 0 instructions: 340000000 cycles: 187779464 heartbeat IPC: 1.17438 cumulative IPC: 1.17147 (Simulation time: 1 hr 3 min 0 sec) 
Heartbeat CPU 1 instructions: 300000000 cycles: 191873695 heartbeat IPC: 0.822031 cumulative IPC: 0.819866 (Simulation time: 1 hr 3 min 48 sec) 
Heartbeat CPU 2 instructions: 240000000 cycles: 193751198 heartbeat IPC: 0.398666 cumulative IPC: 0.419722 (Simulation time: 1 hr 4 min 12 sec) 
Heartbeat CPU 3 instructions: 340000000 cycles: 195028684 heartbeat IPC: 0.995525 cumulative IPC: 1.02389 (Simulation time: 1 hr 4 min 28 sec) 
Heartbeat CPU 0 instructions: 350000003 cycles: 196312829 heartbeat IPC: 1.17187 cumulative IPC: 1.17151 (Simulation time: 1 hr 4 min 45 sec) 
Heartbeat CPU 1 instructions: 310000000 cycles: 203346834 heartbeat IPC: 0.871601 cumulative IPC: 0.825525 (Simulation time: 1 hr 6 min 15 sec) 
Heartbeat CPU 0 instructions: 360000000 cycles: 204725285 heartbeat IPC: 1.18871 cumulative IPC: 1.17287 (Simulation time: 1 hr 6 min 33 sec) 
Heartbeat CPU 3 instructions: 350000000 cycles: 204994030 heartbeat IPC: 1.00348 cumulative IPC: 1.02198 (Simulation time: 1 hr 6 min 36 sec) 
Heartbeat CPU 0 instructions: 370000003 cycles: 213185118 heartbeat IPC: 1.18206 cumulative IPC: 1.17355 (Simulation time: 1 hr 8 min 20 sec) 
Heartbeat CPU 1 instructions: 320000000 cycles: 215069797 heartbeat IPC: 0.853027 cumulative IPC: 0.828289 (Simulation time: 1 hr 8 min 45 sec) 
Heartbeat CPU 3 instructions: 360000000 cycles: 215717093 heartbeat IPC: 0.932569 cumulative IPC: 1.0138 (Simulation time: 1 hr 8 min 53 sec) 
Heartbeat CPU 2 instructions: 250000002 cycles: 217460473 heartbeat IPC: 0.421776 cumulative IPC: 0.420131 (Simulation time: 1 hr 9 min 16 sec) 
Heartbeat CPU 0 instructions: 380000000 cycles: 221663269 heartbeat IPC: 1.1795 cumulative IPC: 1.17396 (Simulation time: 1 hr 10 min 11 sec) 
Heartbeat CPU 3 instructions: 370000001 cycles: 225443859 heartbeat IPC: 1.02809 cumulative IPC: 1.0149 (Simulation time: 1 hr 11 min 0 sec) 
Heartbeat CPU 1 instructions: 330000002 cycles: 227109001 heartbeat IPC: 0.83062 cumulative IPC: 0.828508 (Simulation time: 1 hr 11 min 23 sec) 
Heartbeat CPU 0 instructions: 390000003 cycles: 230114479 heartbeat IPC: 1.18326 cumulative IPC: 1.17455 (Simulation time: 1 hr 12 min 2 sec) 
Heartbeat CPU 3 instructions: 380000000 cycles: 235153540 heartbeat IPC: 1.0299 cumulative IPC: 1.01596 (Simulation time: 1 hr 13 min 7 sec) 
Heartbeat CPU 0 instructions: 400000000 cycles: 238577462 heartbeat IPC: 1.18162 cumulative IPC: 1.17498 (Simulation time: 1 hr 13 min 52 sec) 
Heartbeat CPU 1 instructions: 340000000 cycles: 239255983 heartbeat IPC: 0.82325 cumulative IPC: 0.828054 (Simulation time: 1 hr 14 min 1 sec) 
Heartbeat CPU 2 instructions: 260000000 cycles: 241105506 heartbeat IPC: 0.422922 cumulative IPC: 0.420594 (Simulation time: 1 hr 14 min 25 sec) 
Heartbeat CPU 3 instructions: 390000003 cycles: 244843571 heartbeat IPC: 1.03199 cumulative IPC: 1.01702 (Simulation time: 1 hr 15 min 14 sec) 
Heartbeat CPU 0 instructions: 410000001 cycles: 247013171 heartbeat IPC: 1.18544 cumulative IPC: 1.17558 (Simulation time: 1 hr 15 min 43 sec) 
Heartbeat CPU 1 instructions: 350000003 cycles: 251319662 heartbeat IPC: 0.828935 cumulative IPC: 0.828123 (Simulation time: 1 hr 16 min 39 sec) 
Heartbeat CPU 3 instructions: 400000000 cycles: 254539458 heartbeat IPC: 1.03136 cumulative IPC: 1.01791 (Simulation time: 1 hr 17 min 20 sec) 
Heartbeat CPU 0 instructions: 420000000 cycles: 255478212 heartbeat IPC: 1.18133 cumulative IPC: 1.17589 (Simulation time: 1 hr 17 min 32 sec) 
Heartbeat CPU 1 instructions: 360000000 cycles: 263380105 heartbeat IPC: 0.829157 cumulative IPC: 0.828199 (Simulation time: 1 hr 19 min 10 sec) 
Heartbeat CPU 0 instructions: 430000003 cycles: 263944012 heartbeat IPC: 1.18122 cumulative IPC: 1.17616 (Simulation time: 1 hr 19 min 17 sec) 
Heartbeat CPU 3 instructions: 410000001 cycles: 264247206 heartbeat IPC: 1.03011 cumulative IPC: 1.01863 (Simulation time: 1 hr 19 min 20 sec) 
Heartbeat CPU 2 instructions: 270000001 cycles: 264482231 heartbeat IPC: 0.427776 cumulative IPC: 0.421605 (Simulation time: 1 hr 19 min 23 sec) 
Heartbeat CPU 0 instructions: 440000000 cycles: 272401455 heartbeat IPC: 1.18239 cumulative IPC: 1.17646 (Simulation time: 1 hr 21 min 3 sec) 
Heartbeat CPU 3 instructions: 420000000 cycles: 273895909 heartbeat IPC: 1.03641 cumulative IPC: 1.01961 (Simulation time: 1 hr 21 min 23 sec) 
Heartbeat CPU 1 instructions: 370000001 cycles: 275464061 heartbeat IPC: 0.827544 cumulative IPC: 0.828154 (Simulation time: 1 hr 21 min 44 sec) 
Heartbeat CPU 0 instructions: 450000002 cycles: 280844025 heartbeat IPC: 1.18447 cumulative IPC: 1.17683 (Simulation time: 1 hr 22 min 55 sec) 
Heartbeat CPU 3 instructions: 430000001 cycles: 283414363 heartbeat IPC: 1.05059 cumulative IPC: 1.0212 (Simulation time: 1 hr 23 min 29 sec) 
Heartbeat CPU 2 instructions: 280000000 cycles: 287182327 heartbeat IPC: 0.440527 cumulative IPC: 0.423881 (Simulation time: 1 hr 24 min 21 sec) 
Heartbeat CPU 1 instructions: 380000000 cycles: 287283160 heartbeat IPC: 0.846088 cumulative IPC: 0.829277 (Simulation time: 1 hr 24 min 22 sec) 
Heartbeat CPU 0 instructions: 460000000 cycles: 289244455 heartbeat IPC: 1.19042 cumulative IPC: 1.17743 (Simulation time: 1 hr 24 min 49 sec) 
Heartbeat CPU 3 instructions: 440000000 cycles: 291719856 heartbeat IPC: 1.20402 cumulative IPC: 1.02906 (Simulation time: 1 hr 25 min 20 sec) 
Heartbeat CPU 0 instructions: 470000002 cycles: 297742464 heartbeat IPC: 1.17675 cumulative IPC: 1.1774 (Simulation time: 1 hr 26 min 36 sec) 
Heartbeat CPU 1 instructions: 390000003 cycles: 299031715 heartbeat IPC: 0.851169 cumulative IPC: 0.830559 (Simulation time: 1 hr 26 min 53 sec) 
Heartbeat CPU 3 instructions: 450000000 cycles: 303133765 heartbeat IPC: 0.876124 cumulative IPC: 1.02053 (Simulation time: 1 hr 27 min 46 sec) 
Heartbeat CPU 0 instructions: 480000000 cycles: 306140026 heartbeat IPC: 1.19082 cumulative IPC: 1.17794 (Simulation time: 1 hr 28 min 24 sec) 
Heartbeat CPU 2 instructions: 290000000 cycles: 309994573 heartbeat IPC: 0.438361 cumulative IPC: 0.425442 (Simulation time: 1 hr 29 min 15 sec) 
Heartbeat CPU 1 instructions: 400000000 cycles: 310491602 heartbeat IPC: 0.872609 cumulative IPC: 0.832832 (Simulation time: 1 hr 29 min 21 sec) 
Heartbeat CPU 3 instructions: 460000000 cycles: 312777980 heartbeat IPC: 1.03689 cumulative IPC: 1.02127 (Simulation time: 1 hr 29 min 53 sec) 
Heartbeat CPU 0 instructions: 490000003 cycles: 314683439 heartbeat IPC: 1.17049 cumulative IPC: 1.17765 (Simulation time: 1 hr 30 min 17 sec) 
Heartbeat CPU 1 instructions: 410000001 cycles: 322759792 heartbeat IPC: 0.815116 cumulative IPC: 0.831863 (Simulation time: 1 hr 31 min 59 sec) 
Heartbeat CPU 3 instructions: 470000003 cycles: 322896111 heartbeat IPC: 0.988325 cumulative IPC: 1.01978 (Simulation time: 1 hr 32 min 1 sec) 
Heartbeat CPU 0 instructions: 500000000 cycles: 323375073 heartbeat IPC: 1.15053 cumulative IPC: 1.1766 (Simulation time: 1 hr 32 min 7 sec) 
Heartbeat CPU 0 instructions: 510000002 cycles: 332093133 heartbeat IPC: 1.14704 cumulative IPC: 1.1755 (Simulation time: 1 hr 33 min 57 sec) 
Heartbeat CPU 3 instructions: 480000000 cycles: 332637362 heartbeat IPC: 1.02656 cumulative IPC: 1.02006 (Simulation time: 1 hr 34 min 4 sec) 
Heartbeat CPU 2 instructions: 300000000 cycles: 334077144 heartbeat IPC: 0.415238 cumulative IPC: 0.424399 (Simulation time: 1 hr 34 min 22 sec) 
Heartbeat CPU 1 instructions: 420000000 cycles: 334759433 heartbeat IPC: 0.833358 cumulative IPC: 0.831939 (Simulation time: 1 hr 34 min 31 sec) 
Heartbeat CPU 0 instructions: 520000000 cycles: 340484865 heartbeat IPC: 1.19165 cumulative IPC: 1.17606 (Simulation time: 1 hr 35 min 45 sec) 
Heartbeat CPU 3 instructions: 490000000 cycles: 342457709 heartbeat IPC: 1.01829 cumulative IPC: 1.01999 (Simulation time: 1 hr 36 min 10 sec) 
Heartbeat CPU 1 instructions: 430000002 cycles: 346499789 heartbeat IPC: 0.851763 cumulative IPC: 0.832877 (Simulation time: 1 hr 37 min 0 sec) 
Heartbeat CPU 0 instructions: 530000003 cycles: 349062102 heartbeat IPC: 1.16588 cumulative IPC: 1.17571 (Simulation time: 1 hr 37 min 30 sec) 
Heartbeat CPU 3 instructions: 500000000 cycles: 353693765 heartbeat IPC: 0.889992 cumulative IPC: 1.01427 (Simulation time: 1 hr 38 min 28 sec) 
Heartbeat CPU 2 instructions: 310000001 cycles: 357130755 heartbeat IPC: 0.433772 cumulative IPC: 0.425235 (Simulation time: 1 hr 39 min 14 sec) 
Heartbeat CPU 0 instructions: 540000000 cycles: 357455052 heartbeat IPC: 1.19148 cumulative IPC: 1.17622 (Simulation time: 1 hr 39 min 18 sec) 
Heartbeat CPU 1 instructions: 440000000 cycles: 358295872 heartbeat IPC: 0.847739 cumulative IPC: 0.833552 (Simulation time: 1 hr 39 min 28 sec) 
Heartbeat CPU 3 instructions: 510000001 cycles: 361336537 heartbeat IPC: 1.30843 cumulative IPC: 1.02282 (Simulation time: 1 hr 40 min 7 sec) 
Heartbeat CPU 0 instructions: 550000003 cycles: 365954368 heartbeat IPC: 1.17657 cumulative IPC: 1.17623 (Simulation time: 1 hr 41 min 7 sec) 
Heartbeat CPU 1 instructions: 450000003 cycles: 370414263 heartbeat IPC: 0.825192 cumulative IPC: 0.833179 (Simulation time: 1 hr 42 min 0 sec) 
Heartbeat CPU 3 instructions: 520000000 cycles: 371397412 heartbeat IPC: 0.993949 cumulative IPC: 1.02176 (Simulation time: 1 hr 42 min 13 sec) 
Heartbeat CPU 0 instructions: 560000000 cycles: 374498826 heartbeat IPC: 1.17035 cumulative IPC: 1.17605 (Simulation time: 1 hr 42 min 53 sec) 
Heartbeat CPU 2 instructions: 320000000 cycles: 379809302 heartbeat IPC: 0.440945 cumulative IPC: 0.426501 (Simulation time: 1 hr 44 min 2 sec) 
Heartbeat CPU 3 instructions: 530000001 cycles: 380824906 heartbeat IPC: 1.06073 cumulative IPC: 1.02306 (Simulation time: 1 hr 44 min 15 sec) 
Heartbeat CPU 1 instructions: 460000000 cycles: 381799130 heartbeat IPC: 0.878359 cumulative IPC: 0.834994 (Simulation time: 1 hr 44 min 27 sec) 
Heartbeat CPU 0 instructions: 570000001 cycles: 382927890 heartbeat IPC: 1.18637 cumulative IPC: 1.17636 (Simulation time: 1 hr 44 min 43 sec) 
Heartbeat CPU 0 instructions: 580000000 cycles: 391409183 heartbeat IPC: 1.17907 cumulative IPC: 1.17643 (Simulation time: 1 hr 46 min 31 sec) 
Heartbeat CPU 3 instructions: 540000000 cycles: 391609120 heartbeat IPC: 0.927281 cumulative IPC: 1.01953 (Simulation time: 1 hr 46 min 34 sec) 
Heartbeat CPU 1 instructions: 470000000 cycles: 393608422 heartbeat IPC: 0.846791 cumulative IPC: 0.835466 (Simulation time: 1 hr 47 min 0 sec) 
Heartbeat CPU 0 instructions: 590000001 cycles: 399892969 heartbeat IPC: 1.17872 cumulative IPC: 1.1765 (Simulation time: 1 hr 48 min 29 sec) 
Heartbeat CPU 3 instructions: 550000003 cycles: 401200564 heartbeat IPC: 1.0426 cumulative IPC: 1.02026 (Simulation time: 1 hr 48 min 47 sec) 
Heartbeat CPU 2 instructions: 330000002 cycles: 401868563 heartbeat IPC: 0.453324 cumulative IPC: 0.428451 (Simulation time: 1 hr 48 min 56 sec) 
Heartbeat CPU 1 instructions: 480000000 cycles: 405606852 heartbeat IPC: 0.833442 cumulative IPC: 0.835387 (Simulation time: 1 hr 49 min 47 sec) 
Heartbeat CPU 0 instructions: 600000000 cycles: 408325998 heartbeat IPC: 1.18581 cumulative IPC: 1.17675 (Simulation time: 1 hr 50 min 24 sec) 
Heartbeat CPU 3 instructions: 560000000 cycles: 410801009 heartbeat IPC: 1.04162 cumulative IPC: 1.02092 (Simulation time: 1 hr 51 min 4 sec) 
Heartbeat CPU 0 instructions: 610000003 cycles: 416783521 heartbeat IPC: 1.18238 cumulative IPC: 1.1769 (Simulation time: 1 hr 52 min 25 sec) 
Heartbeat CPU 1 instructions: 490000002 cycles: 417694444 heartbeat IPC: 0.827295 cumulative IPC: 0.835081 (Simulation time: 1 hr 52 min 37 sec) 
Heartbeat CPU 3 instructions: 570000000 cycles: 420406028 heartbeat IPC: 1.04112 cumulative IPC: 1.02152 (Simulation time: 1 hr 53 min 13 sec) 
Heartbeat CPU 2 instructions: 340000000 cycles: 423901842 heartbeat IPC: 0.453859 cumulative IPC: 0.430171 (Simulation time: 1 hr 54 min 0 sec) 
Heartbeat CPU 0 instructions: 620000000 cycles: 425235395 heartbeat IPC: 1.18317 cumulative IPC: 1.17706 (Simulation time: 1 hr 54 min 18 sec) 
Heartbeat CPU 1 instructions: 500000000 cycles: 429724890 heartbeat IPC: 0.831224 cumulative IPC: 0.834941 (Simulation time: 1 hr 55 min 18 sec) 
Heartbeat CPU 3 instructions: 580000000 cycles: 429954094 heartbeat IPC: 1.04733 cumulative IPC: 1.02227 (Simulation time: 1 hr 55 min 21 sec) 
Heartbeat CPU 0 instructions: 630000001 cycles: 433757497 heartbeat IPC: 1.17342 cumulative IPC: 1.17697 (Simulation time: 1 hr 56 min 11 sec) 
Heartbeat CPU 3 instructions: 590000002 cycles: 439561913 heartbeat IPC: 1.04082 cumulative IPC: 1.02279 (Simulation time: 1 hr 57 min 28 sec) 
Heartbeat CPU 1 instructions: 510000000 cycles: 441761233 heartbeat IPC: 0.830817 cumulative IPC: 0.834796 (Simulation time: 1 hr 57 min 58 sec) 
Heartbeat CPU 0 instructions: 640000000 cycles: 442233472 heartbeat IPC: 1.17981 cumulative IPC: 1.17704 (Simulation time: 1 hr 58 min 5 sec) 
Heartbeat CPU 2 instructions: 350000000 cycles: 446431516 heartbeat IPC: 0.443859 cumulative IPC: 0.431057 (Simulation time: 1 hr 58 min 59 sec) 
Heartbeat CPU 3 instructions: 600000000 cycles: 449077956 heartbeat IPC: 1.05086 cumulative IPC: 1.02355 (Simulation time: 1 hr 59 min 32 sec) 
Heartbeat CPU 0 instructions: 650000000 cycles: 450674457 heartbeat IPC: 1.1847 cumulative IPC: 1.17722 (Simulation time: 1 hr 59 min 52 sec) 
Heartbeat CPU 1 instructions: 520000000 cycles: 453816486 heartbeat IPC: 0.829514 cumulative IPC: 0.834617 (Simulation time: 2 hr 0 min 31 sec) 
Heartbeat CPU 3 instructions: 610000002 cycles: 458813448 heartbeat IPC: 1.02717 cumulative IPC: 1.02365 (Simulation time: 2 hr 1 min 33 sec) 
Heartbeat CPU 0 instructions: 660000000 cycles: 459153182 heartbeat IPC: 1.17942 cumulative IPC: 1.17728 (Simulation time: 2 hr 1 min 38 sec) 
Heartbeat CPU 1 instructions: 530000001 cycles: 465665599 heartbeat IPC: 0.843945 cumulative IPC: 0.834918 (Simulation time: 2 hr 3 min 2 sec) 
Heartbeat CPU 3 instructions: 620000000 cycles: 466614348 heartbeat IPC: 1.2819 cumulative IPC: 1.02912 (Simulation time: 2 hr 3 min 14 sec) 
Heartbeat CPU 0 instructions: 670000001 cycles: 467634988 heartbeat IPC: 1.17899 cumulative IPC: 1.17732 (Simulation time: 2 hr 3 min 26 sec) 
Heartbeat CPU 2 instructions: 360000000 cycles: 469382351 heartbeat IPC: 0.435714 cumulative IPC: 0.431345 (Simulation time: 2 hr 3 min 48 sec) 
Heartbeat CPU 0 instructions: 680000000 cycles: 476091691 heartbeat IPC: 1.18249 cumulative IPC: 1.17743 (Simulation time: 2 hr 5 min 8 sec) 
Heartbeat CPU 1 instructions: 540000000 cycles: 477397262 heartbeat IPC: 0.852394 cumulative IPC: 0.835459 (Simulation time: 2 hr 5 min 24 sec) 
Heartbeat CPU 3 instructions: 630000001 cycles: 478377070 heartbeat IPC: 0.850143 cumulative IPC: 1.02358 (Simulation time: 2 hr 5 min 36 sec) 
Heartbeat CPU 0 instructions: 690000002 cycles: 484538099 heartbeat IPC: 1.18394 cumulative IPC: 1.17757 (Simulation time: 2 hr 6 min 51 sec) 
Heartbeat CPU 3 instructions: 640000000 cycles: 488659194 heartbeat IPC: 0.972562 cumulative IPC: 1.02224 (Simulation time: 2 hr 7 min 41 sec) 
Heartbeat CPU 1 instructions: 550000000 cycles: 488833117 heartbeat IPC: 0.874443 cumulative IPC: 0.836601 (Simulation time: 2 hr 7 min 44 sec) 
Heartbeat CPU 2 instructions: 370000000 cycles: 492775210 heartbeat IPC: 0.427481 cumulative IPC: 0.431116 (Simulation time: 2 hr 8 min 33 sec) 
Heartbeat CPU 0 instructions: 700000000 cycles: 493122955 heartbeat IPC: 1.16484 cumulative IPC: 1.1773 (Simulation time: 2 hr 8 min 37 sec) 
Heartbeat CPU 3 instructions: 650000000 cycles: 498807457 heartbeat IPC: 0.98539 cumulative IPC: 1.0213 (Simulation time: 2 hr 9 min 47 sec) 
Heartbeat CPU 1 instructions: 560000000 cycles: 501040362 heartbeat IPC: 0.819186 cumulative IPC: 0.836073 (Simulation time: 2 hr 10 min 16 sec) 
Heartbeat CPU 0 instructions: 710000003 cycles: 501883114 heartbeat IPC: 1.14153 cumulative IPC: 1.17652 (Simulation time: 2 hr 10 min 27 sec) 
Heartbeat CPU 3 instructions: 660000000 cycles: 508463173 heartbeat IPC: 1.03566 cumulative IPC: 1.02164 (Simulation time: 2 hr 11 min 49 sec) 
Heartbeat CPU 0 instructions: 720000000 cycles: 510590938 heartbeat IPC: 1.14839 cumulative IPC: 1.17593 (Simulation time: 2 hr 12 min 17 sec) 
Heartbeat CPU 1 instructions: 570000003 cycles: 513119614 heartbeat IPC: 0.827866 cumulative IPC: 0.835834 (Simulation time: 2 hr 12 min 49 sec) 
Heartbeat CPU 2 instructions: 380000000 cycles: 516977338 heartbeat IPC: 0.413187 cumulative IPC: 0.430079 (Simulation time: 2 hr 13 min 39 sec) 
Heartbeat CPU 3 instructions: 670000001 cycles: 518128553 heartbeat IPC: 1.03462 cumulative IPC: 1.02194 (Simulation time: 2 hr 13 min 54 sec) 
Heartbeat CPU 0 instructions: 730000001 cycles: 518992584 heartbeat IPC: 1.19024 cumulative IPC: 1.17621 (Simulation time: 2 hr 14 min 6 sec) 
Heartbeat CPU 1 instructions: 580000000 cycles: 524874694 heartbeat IPC: 0.850696 cumulative IPC: 0.836244 (Simulation time: 2 hr 15 min 18 sec) 
Heartbeat CPU 0 instructions: 740000000 cycles: 527540157 heartbeat IPC: 1.16992 cumulative IPC: 1.17609 (Simulation time: 2 hr 15 min 50 sec) 
Heartbeat CPU 3 instructions: 680000000 cycles: 530777572 heartbeat IPC: 0.790575 cumulative IPC: 1.01517 (Simulation time: 2 hr 16 min 27 sec) 
Heartbeat CPU 0 instructions: 750000000 cycles: 535981359 heartbeat IPC: 1.18467 cumulative IPC: 1.17625 (Simulation time: 2 hr 17 min 38 sec) 
Heartbeat CPU 1 instructions: 590000001 cycles: 536531980 heartbeat IPC: 0.857833 cumulative IPC: 0.836818 (Simulation time: 2 hr 17 min 46 sec) 
Heartbeat CPU 3 instructions: 690000000 cycles: 537880112 heartbeat IPC: 1.40795 cumulative IPC: 1.02152 (Simulation time: 2 hr 18 min 3 sec) 
Heartbeat CPU 2 instructions: 390000001 cycles: 540264383 heartbeat IPC: 0.429423 cumulative IPC: 0.430045 (Simulation time: 2 hr 18 min 34 sec) 
Heartbeat CPU 0 instructions: 760000000 cycles: 544540431 heartbeat IPC: 1.16835 cumulative IPC: 1.1761 (Simulation time: 2 hr 19 min 28 sec) 
Heartbeat CPU 3 instructions: 700000000 cycles: 546488735 heartbeat IPC: 1.16163 cumulative IPC: 1.02421 (Simulation time: 2 hr 19 min 54 sec) 
Heartbeat CPU 1 instructions: 600000000 cycles: 548550034 heartbeat IPC: 0.832081 cumulative IPC: 0.836692 (Simulation time: 2 hr 20 min 17 sec) 
Heartbeat CPU 0 instructions: 770000002 cycles: 553104971 heartbeat IPC: 1.16761 cumulative IPC: 1.17594 (Simulation time: 2 hr 21 min 14 sec) 
Heartbeat CPU 3 instructions: 710000001 cycles: 556986116 heartbeat IPC: 0.952619 cumulative IPC: 1.02257 (Simulation time: 2 hr 22 min 5 sec) 
Heartbeat CPU 1 instructions: 610000003 cycles: 560050666 heartbeat IPC: 0.869518 cumulative IPC: 0.83751 (Simulation time: 2 hr 22 min 45 sec) 
Heartbeat CPU 0 instructions: 780000000 cycles: 561483275 heartbeat IPC: 1.19356 cumulative IPC: 1.17626 (Simulation time: 2 hr 23 min 4 sec) 
Heartbeat CPU 2 instructions: 400000000 cycles: 563644409 heartbeat IPC: 0.427715 cumulative IPC: 0.429928 (Simulation time: 2 hr 23 min 32 sec) 
Heartbeat CPU 3 instructions: 720000000 cycles: 567420512 heartbeat IPC: 0.958369 cumulative IPC: 1.02114 (Simulation time: 2 hr 24 min 21 sec) 
Heartbeat CPU 0 instructions: 790000001 cycles: 569922169 heartbeat IPC: 1.18499 cumulative IPC: 1.17642 (Simulation time: 2 hr 24 min 53 sec) 
Heartbeat CPU 1 instructions: 620000000 cycles: 571685242 heartbeat IPC: 0.859507 cumulative IPC: 0.83805 (Simulation time: 2 hr 25 min 15 sec) 
Heartbeat CPU 3 instructions: 730000000 cycles: 577773976 heartbeat IPC: 0.96586 cumulative IPC: 1.01995 (Simulation time: 2 hr 26 min 36 sec) 
Heartbeat CPU 0 instructions: 800000000 cycles: 578427840 heartbeat IPC: 1.17569 cumulative IPC: 1.1764 (Simulation time: 2 hr 26 min 45 sec) 
Heartbeat CPU 1 instructions: 630000001 cycles: 583706638 heartbeat IPC: 0.83185 cumulative IPC: 0.837897 (Simulation time: 2 hr 27 min 55 sec) 
Heartbeat CPU 2 instructions: 410000000 cycles: 586761608 heartbeat IPC: 0.432578 cumulative IPC: 0.430053 (Simulation time: 2 hr 28 min 35 sec) 
Heartbeat CPU 0 instructions: 810000002 cycles: 586905702 heartbeat IPC: 1.17954 cumulative IPC: 1.17646 (Simulation time: 2 hr 28 min 37 sec) 
Heartbeat CPU 3 instructions: 740000000 cycles: 587333662 heartbeat IPC: 1.04606 cumulative IPC: 1.02046 (Simulation time: 2 hr 28 min 43 sec) 
Heartbeat CPU 0 instructions: 820000000 cycles: 595358274 heartbeat IPC: 1.18307 cumulative IPC: 1.17657 (Simulation time: 2 hr 30 min 30 sec) 
Heartbeat CPU 1 instructions: 640000000 cycles: 595709234 heartbeat IPC: 0.833153 cumulative IPC: 0.837782 (Simulation time: 2 hr 30 min 35 sec) 
Heartbeat CPU 3 instructions: 750000001 cycles: 596904238 heartbeat IPC: 1.04487 cumulative IPC: 1.02093 (Simulation time: 2 hr 30 min 51 sec) 
Heartbeat CPU 0 instructions: 830000003 cycles: 603858469 heartbeat IPC: 1.17644 cumulative IPC: 1.17657 (Simulation time: 2 hr 32 min 24 sec) 
Heartbeat CPU 3 instructions: 760000000 cycles: 606468759 heartbeat IPC: 1.04553 cumulative IPC: 1.02139 (Simulation time: 2 hr 32 min 58 sec) 
Heartbeat CPU 1 instructions: 650000002 cycles: 607704858 heartbeat IPC: 0.833637 cumulative IPC: 0.837685 (Simulation time: 2 hr 33 min 15 sec) 
Heartbeat CPU 2 instructions: 420000000 cycles: 608865218 heartbeat IPC: 0.452415 cumulative IPC: 0.431022 (Simulation time: 2 hr 33 min 31 sec) 
Heartbeat CPU 0 instructions: 840000000 cycles: 612337708 heartbeat IPC: 1.17935 cumulative IPC: 1.17661 (Simulation time: 2 hr 34 min 17 sec) 
Heartbeat CPU 3 instructions: 770000003 cycles: 616024369 heartbeat IPC: 1.04651 cumulative IPC: 1.02185 (Simulation time: 2 hr 35 min 7 sec) 
Heartbeat CPU 1 instructions: 660000000 cycles: 619647941 heartbeat IPC: 0.837305 cumulative IPC: 0.837676 (Simulation time: 2 hr 35 min 55 sec) 
Heartbeat CPU 0 instructions: 850000000 cycles: 620828402 heartbeat IPC: 1.17776 cumulative IPC: 1.17663 (Simulation time: 2 hr 36 min 11 sec) 
Heartbeat CPU 3 instructions: 780000000 cycles: 625645688 heartbeat IPC: 1.03936 cumulative IPC: 1.02217 (Simulation time: 2 hr 37 min 15 sec) 
Heartbeat CPU 0 instructions: 860000000 cycles: 629331168 heartbeat IPC: 1.17609 cumulative IPC: 1.17662 (Simulation time: 2 hr 38 min 4 sec) 
Heartbeat CPU 2 instructions: 430000002 cycles: 630926921 heartbeat IPC: 0.453274 cumulative IPC: 0.431944 (Simulation time: 2 hr 38 min 25 sec) 
Heartbeat CPU 1 instructions: 670000002 cycles: 631718538 heartbeat IPC: 0.82846 cumulative IPC: 0.837467 (Simulation time: 2 hr 38 min 35 sec) 
Heartbeat CPU 3 instructions: 790000001 cycles: 635333917 heartbeat IPC: 1.03218 cumulative IPC: 1.02235 (Simulation time: 2 hr 39 min 23 sec) 
Heartbeat CPU 0 instructions: 870000001 cycles: 637829956 heartbeat IPC: 1.17664 cumulative IPC: 1.17662 (Simulation time: 2 hr 39 min 56 sec) 
Heartbeat CPU 1 instructions: 680000000 cycles: 643610877 heartbeat IPC: 0.840877 cumulative IPC: 0.837542 (Simulation time: 2 hr 41 min 15 sec) 
Heartbeat CPU 3 instructions: 800000000 cycles: 643995157 heartbeat IPC: 1.15457 cumulative IPC: 1.02445 (Simulation time: 2 hr 41 min 21 sec) 
Heartbeat CPU 0 instructions: 880000000 cycles: 646263970 heartbeat IPC: 1.18567 cumulative IPC: 1.17676 (Simulation time: 2 hr 41 min 52 sec) 
Heartbeat CPU 2 instructions: 440000000 cycles: 653178258 heartbeat IPC: 0.449411 cumulative IPC: 0.432644 (Simulation time: 2 hr 43 min 20 sec) 
Heartbeat CPU 3 instructions: 810000000 cycles: 654026952 heartbeat IPC: 0.996831 cumulative IPC: 1.02395 (Simulation time: 2 hr 43 min 31 sec) 
Heartbeat CPU 0 instructions: 890000003 cycles: 654779626 heartbeat IPC: 1.17431 cumulative IPC: 1.17673 (Simulation time: 2 hr 43 min 41 sec) 
Heartbeat CPU 1 instructions: 690000000 cycles: 655269538 heartbeat IPC: 0.857731 cumulative IPC: 0.837964 (Simulation time: 2 hr 43 min 48 sec) 
Heartbeat CPU 0 instructions: 900000000 cycles: 663163446 heartbeat IPC: 1.19277 cumulative IPC: 1.17696 (Simulation time: 2 hr 45 min 26 sec) 
Heartbeat CPU 3 instructions: 820000000 cycles: 664666959 heartbeat IPC: 0.939849 cumulative IPC: 1.02237 (Simulation time: 2 hr 45 min 44 sec) 
Heartbeat CPU 1 instructions: 700000000 cycles: 666680855 heartbeat IPC: 0.876323 cumulative IPC: 0.838735 (Simulation time: 2 hr 46 min 10 sec) 
Heartbeat CPU 0 instructions: 910000002 cycles: 671660375 heartbeat IPC: 1.1769 cumulative IPC: 1.17696 (Simulation time: 2 hr 47 min 12 sec) 
Heartbeat CPU 3 instructions: 830000001 cycles: 674684534 heartbeat IPC: 0.998246 cumulative IPC: 1.02196 (Simulation time: 2 hr 47 min 50 sec) 
Heartbeat CPU 2 instructions: 450000003 cycles: 674891359 heartbeat IPC: 0.460552 cumulative IPC: 0.433695 (Simulation time: 2 hr 47 min 52 sec) 
Heartbeat CPU 1 instructions: 710000002 cycles: 678780304 heartbeat IPC: 0.826484 cumulative IPC: 0.838479 (Simulation time: 2 hr 48 min 38 sec) 
Heartbeat CPU 0 instructions: 920000000 cycles: 680404634 heartbeat IPC: 1.14361 cumulative IPC: 1.17646 (Simulation time: 2 hr 48 min 58 sec) 
Heartbeat CPU 3 instructions: 840000000 cycles: 684222553 heartbeat IPC: 1.04844 cumulative IPC: 1.02239 (Simulation time: 2 hr 49 min 45 sec) 
Heartbeat CPU 0 instructions: 930000003 cycles: 689224410 heartbeat IPC: 1.13382 cumulative IPC: 1.17582 (Simulation time: 2 hr 50 min 44 sec) 
Heartbeat CPU 1 instructions: 720000000 cycles: 691134329 heartbeat IPC: 0.809453 cumulative IPC: 0.837874 (Simulation time: 2 hr 51 min 7 sec) 
Heartbeat CPU 3 instructions: 850000001 cycles: 694178616 heartbeat IPC: 1.00441 cumulative IPC: 1.02209 (Simulation time: 2 hr 51 min 44 sec) 
Heartbeat CPU 0 instructions: 940000000 cycles: 697545217 heartbeat IPC: 1.20181 cumulative IPC: 1.17619 (Simulation time: 2 hr 52 min 26 sec) 
Heartbeat CPU 2 instructions: 460000000 cycles: 698279168 heartbeat IPC: 0.427573 cumulative IPC: 0.433457 (Simulation time: 2 hr 52 min 35 sec) 
Heartbeat CPU 1 instructions: 730000000 cycles: 702715845 heartbeat IPC: 0.863445 cumulative IPC: 0.838364 (Simulation time: 2 hr 53 min 28 sec) 
Heartbeat CPU 3 instructions: 860000000 cycles: 705360469 heartbeat IPC: 0.894306 cumulative IPC: 1.01973 (Simulation time: 2 hr 53 min 59 sec) 
Heartbeat CPU 0 instructions: 950000000 cycles: 706069552 heartbeat IPC: 1.17311 cumulative IPC: 1.17614 (Simulation time: 2 hr 54 min 7 sec) 
Heartbeat CPU 1 instructions: 740000000 cycles: 714498495 heartbeat IPC: 0.848706 cumulative IPC: 0.838562 (Simulation time: 2 hr 55 min 47 sec) 
Heartbeat CPU 0 instructions: 960000000 cycles: 714545976 heartbeat IPC: 1.17974 cumulative IPC: 1.17619 (Simulation time: 2 hr 55 min 47 sec) 
Heartbeat CPU 3 instructions: 870000001 cycles: 714888910 heartbeat IPC: 1.04949 cumulative IPC: 1.02019 (Simulation time: 2 hr 55 min 52 sec) 
Heartbeat CPU 2 instructions: 470000002 cycles: 721297189 heartbeat IPC: 0.434442 cumulative IPC: 0.433493 (Simulation time: 2 hr 57 min 11 sec) 
Heartbeat CPU 3 instructions: 880000000 cycles: 723071707 heartbeat IPC: 1.22208 cumulative IPC: 1.02284 (Simulation time: 2 hr 57 min 32 sec) 
Heartbeat CPU 0 instructions: 970000001 cycles: 723075353 heartbeat IPC: 1.17242 cumulative IPC: 1.17614 (Simulation time: 2 hr 57 min 32 sec) 
Heartbeat CPU 1 instructions: 750000002 cycles: 726207528 heartbeat IPC: 0.854042 cumulative IPC: 0.838851 (Simulation time: 2 hr 58 min 10 sec) 
Heartbeat CPU 0 instructions: 980000000 cycles: 731639596 heartbeat IPC: 1.16765 cumulative IPC: 1.17603 (Simulation time: 2 hr 59 min 13 sec) 
Heartbeat CPU 3 instructions: 890000000 cycles: 733238981 heartbeat IPC: 0.983548 cumulative IPC: 1.02221 (Simulation time: 2 hr 59 min 32 sec) 
Heartbeat CPU 1 instructions: 760000000 cycles: 737983815 heartbeat IPC: 0.849164 cumulative IPC: 0.839041 (Simulation time: 3 hr 0 min 32 sec) 
Heartbeat CPU 0 instructions: 990000002 cycles: 740029279 heartbeat IPC: 1.19194 cumulative IPC: 1.17623 (Simulation time: 3 hr 0 min 57 sec) 
Heartbeat CPU 3 instructions: 900000000 cycles: 743099818 heartbeat IPC: 1.01411 cumulative IPC: 1.02208 (Simulation time: 3 hr 1 min 35 sec) 
Heartbeat CPU 2 instructions: 480000000 cycles: 744105411 heartbeat IPC: 0.438438 cumulative IPC: 0.433668 (Simulation time: 3 hr 1 min 47 sec) 
Heartbeat CPU 0 instructions: 1000000000 cycles: 748456849 heartbeat IPC: 1.18658 cumulative IPC: 1.17637 (Simulation time: 3 hr 2 min 41 sec) 
Heartbeat CPU 1 instructions: 770000000 cycles: 749490837 heartbeat IPC: 0.869035 cumulative IPC: 0.839571 (Simulation time: 3 hr 2 min 54 sec) 
Heartbeat CPU 3 instructions: 910000002 cycles: 753713714 heartbeat IPC: 0.942161 cumulative IPC: 1.02079 (Simulation time: 3 hr 3 min 45 sec) 
Heartbeat CPU 0 instructions: 1010000002 cycles: 756943582 heartbeat IPC: 1.17831 cumulative IPC: 1.17639 (Simulation time: 3 hr 4 min 27 sec) 
Heartbeat CPU 1 instructions: 780000000 cycles: 761587652 heartbeat IPC: 0.826664 cumulative IPC: 0.839335 (Simulation time: 3 hr 5 min 25 sec) 
Heartbeat CPU 3 instructions: 920000000 cycles: 763158386 heartbeat IPC: 1.0588 cumulative IPC: 1.02133 (Simulation time: 3 hr 5 min 45 sec) 
Heartbeat CPU 0 instructions: 1020000000 cycles: 765407030 heartbeat IPC: 1.18155 cumulative IPC: 1.17646 (Simulation time: 3 hr 6 min 14 sec) 
Heartbeat CPU 2 instructions: 490000001 cycles: 766257415 heartbeat IPC: 0.451426 cumulative IPC: 0.434257 (Simulation time: 3 hr 6 min 24 sec) 
Heartbeat CPU 3 instructions: 930000002 cycles: 772642942 heartbeat IPC: 1.05435 cumulative IPC: 1.02179 (Simulation time: 3 hr 7 min 46 sec) 
Heartbeat CPU 1 instructions: 790000003 cycles: 773572468 heartbeat IPC: 0.834389 cumulative IPC: 0.839248 (Simulation time: 3 hr 7 min 59 sec) 
Heartbeat CPU 0 instructions: 1030000001 cycles: 773856455 heartbeat IPC: 1.18351 cumulative IPC: 1.17655 (Simulation time: 3 hr 8 min 3 sec) 
Heartbeat CPU 3 instructions: 940000000 cycles: 782060032 heartbeat IPC: 1.0619 cumulative IPC: 1.02235 (Simulation time: 3 hr 9 min 51 sec) 
Heartbeat CPU 0 instructions: 1040000000 cycles: 782281406 heartbeat IPC: 1.18695 cumulative IPC: 1.17667 (Simulation time: 3 hr 9 min 54 sec) 
Heartbeat CPU 1 instructions: 800000000 cycles: 785584116 heartbeat IPC: 0.832525 cumulative IPC: 0.83913 (Simulation time: 3 hr 10 min 39 sec) 
Heartbeat CPU 2 instructions: 500000000 cycles: 788566516 heartbeat IPC: 0.448248 cumulative IPC: 0.434709 (Simulation time: 3 hr 11 min 19 sec) 
Heartbeat CPU 0 instructions: 1050000001 cycles: 790723689 heartbeat IPC: 1.18451 cumulative IPC: 1.17677 (Simulation time: 3 hr 11 min 47 sec) 
Heartbeat CPU 3 instructions: 950000003 cycles: 791550595 heartbeat IPC: 1.05368 cumulative IPC: 1.02277 (Simulation time: 3 hr 11 min 58 sec) 
Heartbeat CPU 1 instructions: 810000001 cycles: 797513357 heartbeat IPC: 0.838276 cumulative IPC: 0.839116 (Simulation time: 3 hr 13 min 19 sec) 
Heartbeat CPU 0 instructions: 1060000000 cycles: 799175613 heartbeat IPC: 1.18316 cumulative IPC: 1.17685 (Simulation time: 3 hr 13 min 41 sec) 
Heartbeat CPU 3 instructions: 960000000 cycles: 800984535 heartbeat IPC: 1.06 cumulative IPC: 1.02327 (Simulation time: 3 hr 14 min 6 sec) 
Heartbeat CPU 0 instructions: 1070000001 cycles: 807661036 heartbeat IPC: 1.17849 cumulative IPC: 1.17687 (Simulation time: 3 hr 15 min 35 sec) 
Heartbeat CPU 1 instructions: 820000000 cycles: 809545652 heartbeat IPC: 0.831097 cumulative IPC: 0.83898 (Simulation time: 3 hr 16 min 0 sec) 
Heartbeat CPU 3 instructions: 970000000 cycles: 810616434 heartbeat IPC: 1.03822 cumulative IPC: 1.02348 (Simulation time: 3 hr 16 min 14 sec) 
Heartbeat CPU 2 instructions: 510000000 cycles: 811118342 heartbeat IPC: 0.443423 cumulative IPC: 0.434985 (Simulation time: 3 hr 16 min 20 sec) 
Heartbeat CPU 0 instructions: 1080000000 cycles: 816134420 heartbeat IPC: 1.18017 cumulative IPC: 1.17691 (Simulation time: 3 hr 17 min 25 sec) 
Heartbeat CPU 3 instructions: 980000000 cycles: 820303287 heartbeat IPC: 1.03233 cumulative IPC: 1.0236 (Simulation time: 3 hr 18 min 17 sec) 
Heartbeat CPU 1 instructions: 830000000 cycles: 821508005 heartbeat IPC: 0.835956 cumulative IPC: 0.83893 (Simulation time: 3 hr 18 min 33 sec) 
Heartbeat CPU 0 instructions: 1090000000 cycles: 824632348 heartbeat IPC: 1.17676 cumulative IPC: 1.1769 (Simulation time: 3 hr 19 min 14 sec) 
Heartbeat CPU 3 instructions: 990000001 cycles: 828483774 heartbeat IPC: 1.22242 cumulative IPC: 1.02582 (Simulation time: 3 hr 20 min 5 sec) 
Heartbeat CPU 0 instructions: 1100000000 cycles: 833221649 heartbeat IPC: 1.16424 cumulative IPC: 1.17676 (Simulation time: 3 hr 21 min 4 sec) 
Heartbeat CPU 1 instructions: 840000000 cycles: 833230096 heartbeat IPC: 0.85309 cumulative IPC: 0.839156 (Simulation time: 3 hr 21 min 5 sec) 
Heartbeat CPU 2 instructions: 520000000 cycles: 833402543 heartbeat IPC: 0.448748 cumulative IPC: 0.435402 (Simulation time: 3 hr 21 min 7 sec) 
Heartbeat CPU 3 instructions: 1000000000 cycles: 839977996 heartbeat IPC: 0.870002 cumulative IPC: 1.02341 (Simulation time: 3 hr 22 min 31 sec) 
Heartbeat CPU 0 instructions: 1110000000 cycles: 841661705 heartbeat IPC: 1.18483 cumulative IPC: 1.17685 (Simulation time: 3 hr 22 min 52 sec) 
Heartbeat CPU 1 instructions: 850000001 cycles: 844621806 heartbeat IPC: 0.877831 cumulative IPC: 0.839746 (Simulation time: 3 hr 23 min 30 sec) 
Heartbeat CPU 3 instructions: 1010000002 cycles: 849841262 heartbeat IPC: 1.01386 cumulative IPC: 1.02328 (Simulation time: 3 hr 24 min 35 sec) 
Heartbeat CPU 0 instructions: 1120000000 cycles: 850214074 heartbeat IPC: 1.16927 cumulative IPC: 1.17676 (Simulation time: 3 hr 24 min 40 sec) 
Heartbeat CPU 1 instructions: 860000000 cycles: 856693326 heartbeat IPC: 0.828396 cumulative IPC: 0.839566 (Simulation time: 3 hr 25 min 56 sec) 
Heartbeat CPU 2 instructions: 530000001 cycles: 856758158 heartbeat IPC: 0.428163 cumulative IPC: 0.435179 (Simulation time: 3 hr 25 min 57 sec) 
Heartbeat CPU 0 instructions: 1130000001 cycles: 858976295 heartbeat IPC: 1.14126 cumulative IPC: 1.17635 (Simulation time: 3 hr 26 min 25 sec) 
Heartbeat CPU 3 instructions: 1020000000 cycles: 859960084 heartbeat IPC: 0.988257 cumulative IPC: 1.02282 (Simulation time: 3 hr 26 min 37 sec) 
Heartbeat CPU 0 instructions: 1140000000 cycles: 867849781 heartbeat IPC: 1.12695 cumulative IPC: 1.17578 (Simulation time: 3 hr 28 min 11 sec) 
Heartbeat CPU 1 instructions: 870000003 cycles: 869122091 heartbeat IPC: 0.804585 cumulative IPC: 0.839001 (Simulation time: 3 hr 28 min 26 sec) 
Heartbeat CPU 3 instructions: 1030000000 cycles: 869778204 heartbeat IPC: 1.01852 cumulative IPC: 1.02276 (Simulation time: 3 hr 28 min 34 sec) 
Heartbeat CPU 0 instructions: 1150000001 cycles: 876200058 heartbeat IPC: 1.19757 cumulative IPC: 1.17602 (Simulation time: 3 hr 29 min 52 sec) 
Heartbeat CPU 3 instructions: 1040000000 cycles: 879766757 heartbeat IPC: 1.00115 cumulative IPC: 1.02249 (Simulation time: 3 hr 30 min 35 sec) 
Heartbeat CPU 2 instructions: 540000000 cycles: 880311283 heartbeat IPC: 0.424572 cumulative IPC: 0.43486 (Simulation time: 3 hr 30 min 42 sec) 
Heartbeat CPU 1 instructions: 880000000 cycles: 880536496 heartbeat IPC: 0.876086 cumulative IPC: 0.839543 (Simulation time: 3 hr 30 min 45 sec) 
Heartbeat CPU 0 instructions: 1160000000 cycles: 884709512 heartbeat IPC: 1.17516 cumulative IPC: 1.17601 (Simulation time: 3 hr 31 min 32 sec) 
Heartbeat CPU 3 instructions: 1050000001 cycles: 891567892 heartbeat IPC: 0.847376 cumulative IPC: 1.01988 (Simulation time: 3 hr 32 min 51 sec) 
Heartbeat CPU 1 instructions: 890000003 cycles: 892520448 heartbeat IPC: 0.83445 cumulative IPC: 0.839466 (Simulation time: 3 hr 33 min 3 sec) 
Heartbeat CPU 0 instructions: 1170000003 cycles: 893221148 heartbeat IPC: 1.17486 cumulative IPC: 1.176 (Simulation time: 3 hr 33 min 13 sec) 
Heartbeat CPU 3 instructions: 1060000000 cycles: 899155220 heartbeat IPC: 1.31799 cumulative IPC: 1.02271 (Simulation time: 3 hr 34 min 30 sec) 
Heartbeat CPU 0 instructions: 1180000000 cycles: 901760562 heartbeat IPC: 1.17104 cumulative IPC: 1.17594 (Simulation time: 3 hr 35 min 3 sec) 
Heartbeat CPU 2 instructions: 550000000 cycles: 904174581 heartbeat IPC: 0.419054 cumulative IPC: 0.434392 (Simulation time: 3 hr 35 min 34 sec) 
Heartbeat CPU 1 instructions: 900000000 cycles: 904210986 heartbeat IPC: 0.855392 cumulative IPC: 0.839697 (Simulation time: 3 hr 35 min 34 sec) 
Heartbeat CPU 3 instructions: 1070000001 cycles: 909452759 heartbeat IPC: 0.971106 cumulative IPC: 1.02205 (Simulation time: 3 hr 36 min 38 sec) 
Heartbeat CPU 0 instructions: 1190000001 cycles: 910339519 heartbeat IPC: 1.16564 cumulative IPC: 1.17583 (Simulation time: 3 hr 36 min 50 sec) 
Heartbeat CPU 1 instructions: 910000002 cycles: 916022188 heartbeat IPC: 0.846654 cumulative IPC: 0.839797 (Simulation time: 3 hr 38 min 3 sec) 
Heartbeat CPU 0 instructions: 1200000000 cycles: 918748817 heartbeat IPC: 1.18916 cumulative IPC: 1.17597 (Simulation time: 3 hr 38 min 38 sec) 
Heartbeat CPU 3 instructions: 1080000000 cycles: 918843425 heartbeat IPC: 1.06489 cumulative IPC: 1.02254 (Simulation time: 3 hr 38 min 40 sec) 
Heartbeat CPU 2 instructions: 560000000 cycles: 927012853 heartbeat IPC: 0.437862 cumulative IPC: 0.434487 (Simulation time: 3 hr 40 min 27 sec) 
Heartbeat CPU 0 instructions: 1210000002 cycles: 927144188 heartbeat IPC: 1.19113 cumulative IPC: 1.17612 (Simulation time: 3 hr 40 min 28 sec) 
Heartbeat CPU 1 instructions: 920000000 cycles: 927525222 heartbeat IPC: 0.869336 cumulative IPC: 0.840207 (Simulation time: 3 hr 40 min 33 sec) 
Heartbeat CPU 3 instructions: 1090000000 cycles: 929540030 heartbeat IPC: 0.934876 cumulative IPC: 1.02141 (Simulation time: 3 hr 40 min 59 sec) 
Heartbeat CPU 0 instructions: 1220000000 cycles: 935669280 heartbeat IPC: 1.17301 cumulative IPC: 1.17609 (Simulation time: 3 hr 42 min 20 sec) 
Heartbeat CPU 3 instructions: 1100000000 cycles: 939242921 heartbeat IPC: 1.03062 cumulative IPC: 1.02152 (Simulation time: 3 hr 43 min 7 sec) 
Heartbeat CPU 1 instructions: 930000001 cycles: 939510472 heartbeat IPC: 0.834359 cumulative IPC: 0.840124 (Simulation time: 3 hr 43 min 10 sec) 
Heartbeat CPU 0 instructions: 1230000000 cycles: 944136547 heartbeat IPC: 1.18102 cumulative IPC: 1.17614 (Simulation time: 3 hr 44 min 9 sec) 
Finished CPU 0 instructions: 1000000002 cycles: 850214502 cumulative IPC: 1.17617 (Simulation time: 3 hr 45 min 6 sec) 
Heartbeat CPU 3 instructions: 1110000001 cycles: 948756680 heartbeat IPC: 1.05111 cumulative IPC: 1.02185 (Simulation time: 3 hr 45 min 7 sec) 
Heartbeat CPU 2 instructions: 570000000 cycles: 949430309 heartbeat IPC: 0.446081 cumulative IPC: 0.434793 (Simulation time: 3 hr 45 min 16 sec) 
Heartbeat CPU 1 instructions: 940000000 cycles: 951559582 heartbeat IPC: 0.829937 cumulative IPC: 0.83998 (Simulation time: 3 hr 45 min 43 sec) 
Heartbeat CPU 0 instructions: 1240000000 cycles: 952591135 heartbeat IPC: 1.18279 cumulative IPC: 1.17621 (Simulation time: 3 hr 45 min 56 sec) 
Heartbeat CPU 3 instructions: 1120000000 cycles: 958259859 heartbeat IPC: 1.05228 cumulative IPC: 1.02219 (Simulation time: 3 hr 47 min 7 sec) 
Heartbeat CPU 0 instructions: 1250000003 cycles: 961090923 heartbeat IPC: 1.1765 cumulative IPC: 1.17621 (Simulation time: 3 hr 47 min 43 sec) 
Heartbeat CPU 1 instructions: 950000000 cycles: 963601057 heartbeat IPC: 0.830463 cumulative IPC: 0.839848 (Simulation time: 3 hr 48 min 14 sec) 
Heartbeat CPU 3 instructions: 1130000000 cycles: 967764155 heartbeat IPC: 1.05216 cumulative IPC: 1.02251 (Simulation time: 3 hr 49 min 7 sec) 
Heartbeat CPU 0 instructions: 1260000000 cycles: 969570772 heartbeat IPC: 1.17927 cumulative IPC: 1.17624 (Simulation time: 3 hr 49 min 30 sec) 
Heartbeat CPU 2 instructions: 580000000 cycles: 972581305 heartbeat IPC: 0.431947 cumulative IPC: 0.434717 (Simulation time: 3 hr 50 min 10 sec) 
Heartbeat CPU 1 instructions: 960000000 cycles: 975595130 heartbeat IPC: 0.833745 cumulative IPC: 0.839764 (Simulation time: 3 hr 50 min 51 sec) 
Heartbeat CPU 3 instructions: 1140000000 cycles: 977224628 heartbeat IPC: 1.05703 cumulative IPC: 1.02289 (Simulation time: 3 hr 51 min 12 sec) 
Heartbeat CPU 0 instructions: 1270000002 cycles: 978034153 heartbeat IPC: 1.18156 cumulative IPC: 1.17629 (Simulation time: 3 hr 51 min 23 sec) 
Heartbeat CPU 0 instructions: 1280000000 cycles: 986514875 heartbeat IPC: 1.17914 cumulative IPC: 1.17632 (Simulation time: 3 hr 53 min 16 sec) 
Heartbeat CPU 3 instructions: 1150000001 cycles: 986765941 heartbeat IPC: 1.04807 cumulative IPC: 1.02316 (Simulation time: 3 hr 53 min 20 sec) 
Heartbeat CPU 1 instructions: 970000002 cycles: 987603085 heartbeat IPC: 0.832781 cumulative IPC: 0.83967 (Simulation time: 3 hr 53 min 31 sec) 
Heartbeat CPU 0 instructions: 1290000001 cycles: 995027625 heartbeat IPC: 1.17471 cumulative IPC: 1.1763 (Simulation time: 3 hr 55 min 8 sec) 
Heartbeat CPU 2 instructions: 590000002 cycles: 995268525 heartbeat IPC: 0.440777 cumulative IPC: 0.434871 (Simulation time: 3 hr 55 min 12 sec) 
Heartbeat CPU 3 instructions: 1160000000 cycles: 996499434 heartbeat IPC: 1.02738 cumulative IPC: 1.0232 (Simulation time: 3 hr 55 min 28 sec) 
Heartbeat CPU 1 instructions: 980000000 cycles: 999694206 heartbeat IPC: 0.827053 cumulative IPC: 0.8395 (Simulation time: 3 hr 56 min 10 sec) 
Heartbeat CPU 0 instructions: 1300000000 cycles: 1003414794 heartbeat IPC: 1.1923 cumulative IPC: 1.17645 (Simulation time: 3 hr 57 min 2 sec) 
Heartbeat CPU 3 instructions: 1170000003 cycles: 1004668674 heartbeat IPC: 1.2241 cumulative IPC: 1.02501 (Simulation time: 3 hr 57 min 19 sec) 
Heartbeat CPU 1 instructions: 990000000 cycles: 1011449935 heartbeat IPC: 0.850649 cumulative IPC: 0.839644 (Simulation time: 3 hr 58 min 46 sec) 
Heartbeat CPU 0 instructions: 1310000000 cycles: 1011943917 heartbeat IPC: 1.17245 cumulative IPC: 1.17641 (Simulation time: 3 hr 58 min 52 sec) 
Heartbeat CPU 3 instructions: 1180000000 cycles: 1015618728 heartbeat IPC: 0.913237 cumulative IPC: 1.02368 (Simulation time: 3 hr 59 min 43 sec) 
Heartbeat CPU 2 instructions: 600000000 cycles: 1018515500 heartbeat IPC: 0.430163 cumulative IPC: 0.434752 (Simulation time: 4 hr 0 min 29 sec) 
Heartbeat CPU 0 instructions: 1320000000 cycles: 1020342913 heartbeat IPC: 1.19062 cumulative IPC: 1.17654 (Simulation time: 4 hr 0 min 57 sec) 
Heartbeat CPU 1 instructions: 1000000000 cycles: 1022939534 heartbeat IPC: 0.870352 cumulative IPC: 0.840026 (Simulation time: 4 hr 1 min 31 sec) 
Heartbeat CPU 3 instructions: 1190000000 cycles: 1026089848 heartbeat IPC: 0.955008 cumulative IPC: 1.0229 (Simulation time: 4 hr 2 min 13 sec) 
Heartbeat CPU 0 instructions: 1330000001 cycles: 1028797270 heartbeat IPC: 1.18282 cumulative IPC: 1.1766 (Simulation time: 4 hr 2 min 49 sec) 
Heartbeat CPU 1 instructions: 1010000001 cycles: 1034725511 heartbeat IPC: 0.848466 cumulative IPC: 0.840132 (Simulation time: 4 hr 4 min 5 sec) 
Heartbeat CPU 3 instructions: 1200000000 cycles: 1036583214 heartbeat IPC: 0.952983 cumulative IPC: 1.02212 (Simulation time: 4 hr 4 min 27 sec) 
Heartbeat CPU 0 instructions: 1340000000 cycles: 1037514610 heartbeat IPC: 1.14714 cumulative IPC: 1.17633 (Simulation time: 4 hr 4 min 40 sec) 
Heartbeat CPU 2 instructions: 610000003 cycles: 1043186637 heartbeat IPC: 0.405332 cumulative IPC: 0.433983 (Simulation time: 4 hr 5 min 53 sec) 
Heartbeat CPU 3 instructions: 1210000003 cycles: 1045641693 heartbeat IPC: 1.10394 cumulative IPC: 1.0229 (Simulation time: 4 hr 6 min 24 sec) 
Heartbeat CPU 0 instructions: 1350000002 cycles: 1046403188 heartbeat IPC: 1.12504 cumulative IPC: 1.17585 (Simulation time: 4 hr 6 min 33 sec) 
Heartbeat CPU 1 instructions: 1020000000 cycles: 1047439632 heartbeat IPC: 0.786527 cumulative IPC: 0.839414 (Simulation time: 4 hr 6 min 46 sec) 
Heartbeat CPU 0 instructions: 1360000000 cycles: 1054797717 heartbeat IPC: 1.19125 cumulative IPC: 1.17598 (Simulation time: 4 hr 8 min 16 sec) 
Heartbeat CPU 3 instructions: 1220000000 cycles: 1055816108 heartbeat IPC: 0.982857 cumulative IPC: 1.02248 (Simulation time: 4 hr 8 min 28 sec) 
Heartbeat CPU 1 instructions: 1030000003 cycles: 1058740477 heartbeat IPC: 0.88489 cumulative IPC: 0.839949 (Simulation time: 4 hr 9 min 5 sec) 
Heartbeat CPU 0 instructions: 1370000003 cycles: 1063240037 heartbeat IPC: 1.18451 cumulative IPC: 1.17606 (Simulation time: 4 hr 9 min 57 sec) 
Heartbeat CPU 2 instructions: 620000000 cycles: 1067268001 heartbeat IPC: 0.415259 cumulative IPC: 0.433518 (Simulation time: 4 hr 10 min 39 sec) 
Heartbeat CPU 3 instructions: 1230000003 cycles: 1068632278 heartbeat IPC: 0.780265 cumulative IPC: 1.01928 (Simulation time: 4 hr 10 min 52 sec) 
Heartbeat CPU 1 instructions: 1040000000 cycles: 1070436655 heartbeat IPC: 0.85498 cumulative IPC: 0.84013 (Simulation time: 4 hr 11 min 11 sec) 
Heartbeat CPU 3 instructions: 1240000000 cycles: 1075564465 heartbeat IPC: 1.44255 cumulative IPC: 1.02228 (Simulation time: 4 hr 12 min 8 sec) 
Finished CPU 3 instructions: 1000000002 cycles: 978202583 cumulative IPC: 1.02228 (Simulation time: 4 hr 12 min 19 sec) 
Heartbeat CPU 0 instructions: 1380000000 cycles: 1080236470 heartbeat IPC: 0.588359 cumulative IPC: 1.16588 (Simulation time: 4 hr 12 min 58 sec) 
Heartbeat CPU 1 instructions: 1050000001 cycles: 1081035431 heartbeat IPC: 0.943505 cumulative IPC: 0.841245 (Simulation time: 4 hr 13 min 7 sec) 
Heartbeat CPU 3 instructions: 1250000000 cycles: 1084047203 heartbeat IPC: 1.17886 cumulative IPC: 1.02363 (Simulation time: 4 hr 13 min 39 sec) 
Heartbeat CPU 2 instructions: 630000002 cycles: 1090530690 heartbeat IPC: 0.429873 cumulative IPC: 0.433432 (Simulation time: 4 hr 14 min 45 sec) 
Heartbeat CPU 1 instructions: 1060000000 cycles: 1091817557 heartbeat IPC: 0.927461 cumulative IPC: 0.842181 (Simulation time: 4 hr 14 min 58 sec) 
Heartbeat CPU 3 instructions: 1260000000 cycles: 1094121850 heartbeat IPC: 0.992591 cumulative IPC: 1.02331 (Simulation time: 4 hr 15 min 23 sec) 
Heartbeat CPU 0 instructions: 1390000001 cycles: 1100551941 heartbeat IPC: 0.492236 cumulative IPC: 1.15223 (Simulation time: 4 hr 16 min 33 sec) 
Heartbeat CPU 1 instructions: 1070000002 cycles: 1102410970 heartbeat IPC: 0.943983 cumulative IPC: 0.843255 (Simulation time: 4 hr 16 min 53 sec) 
Heartbeat CPU 3 instructions: 1270000002 cycles: 1104391067 heartbeat IPC: 0.973784 cumulative IPC: 1.02281 (Simulation time: 4 hr 17 min 15 sec) 
Heartbeat CPU 2 instructions: 640000000 cycles: 1113136429 heartbeat IPC: 0.442365 cumulative IPC: 0.433632 (Simulation time: 4 hr 18 min 48 sec) 
Heartbeat CPU 1 instructions: 1080000000 cycles: 1113419192 heartbeat IPC: 0.908412 cumulative IPC: 0.843962 (Simulation time: 4 hr 18 min 52 sec) 
Heartbeat CPU 3 instructions: 1280000000 cycles: 1114595419 heartbeat IPC: 0.979974 cumulative IPC: 1.02238 (Simulation time: 4 hr 19 min 5 sec) 
Heartbeat CPU 0 instructions: 1400000000 cycles: 1120644650 heartbeat IPC: 0.497693 cumulative IPC: 1.13936 (Simulation time: 4 hr 20 min 13 sec) 
Heartbeat CPU 3 instructions: 1290000001 cycles: 1123821409 heartbeat IPC: 1.08389 cumulative IPC: 1.02293 (Simulation time: 4 hr 20 min 51 sec) 
Heartbeat CPU 1 instructions: 1090000001 cycles: 1124605666 heartbeat IPC: 0.893937 cumulative IPC: 0.844506 (Simulation time: 4 hr 21 min 0 sec) 
Heartbeat CPU 3 instructions: 1300000000 cycles: 1133035931 heartbeat IPC: 1.08524 cumulative IPC: 1.02349 (Simulation time: 4 hr 22 min 39 sec) 
Heartbeat CPU 1 instructions: 1100000000 cycles: 1135807300 heartbeat IPC: 0.892727 cumulative IPC: 0.845027 (Simulation time: 4 hr 23 min 12 sec) 
Heartbeat CPU 2 instructions: 650000001 cycles: 1135915202 heartbeat IPC: 0.439005 cumulative IPC: 0.433749 (Simulation time: 4 hr 23 min 13 sec) 
Heartbeat CPU 0 instructions: 1410000000 cycles: 1140850786 heartbeat IPC: 0.494899 cumulative IPC: 1.12687 (Simulation time: 4 hr 24 min 11 sec) 
Heartbeat CPU 3 instructions: 1310000001 cycles: 1142245073 heartbeat IPC: 1.08588 cumulative IPC: 1.02404 (Simulation time: 4 hr 24 min 28 sec) 
Heartbeat CPU 1 instructions: 1110000003 cycles: 1146989224 heartbeat IPC: 0.894301 cumulative IPC: 0.845553 (Simulation time: 4 hr 25 min 22 sec) 
Heartbeat CPU 3 instructions: 1320000000 cycles: 1151421495 heartbeat IPC: 1.08975 cumulative IPC: 1.02461 (Simulation time: 4 hr 26 min 14 sec) 
Heartbeat CPU 1 instructions: 1120000000 cycles: 1158156623 heartbeat IPC: 0.895463 cumulative IPC: 0.846078 (Simulation time: 4 hr 27 min 34 sec) 
Heartbeat CPU 2 instructions: 660000000 cycles: 1158510036 heartbeat IPC: 0.442579 cumulative IPC: 0.433938 (Simulation time: 4 hr 27 min 38 sec) 
Heartbeat CPU 3 instructions: 1330000000 cycles: 1160610161 heartbeat IPC: 1.0883 cumulative IPC: 1.02516 (Simulation time: 4 hr 28 min 3 sec) 
Heartbeat CPU 0 instructions: 1420000000 cycles: 1161048335 heartbeat IPC: 0.49511 cumulative IPC: 1.11486 (Simulation time: 4 hr 28 min 8 sec) 
Heartbeat CPU 1 instructions: 1130000002 cycles: 1169313036 heartbeat IPC: 0.896346 cumulative IPC: 0.846602 (Simulation time: 4 hr 29 min 45 sec) 
Heartbeat CPU 3 instructions: 1340000000 cycles: 1170051433 heartbeat IPC: 1.05918 cumulative IPC: 1.02546 (Simulation time: 4 hr 29 min 53 sec) 
Heartbeat CPU 3 instructions: 1350000001 cycles: 1179148266 heartbeat IPC: 1.09928 cumulative IPC: 1.02608 (Simulation time: 4 hr 31 min 40 sec) 
Heartbeat CPU 1 instructions: 1140000000 cycles: 1180360748 heartbeat IPC: 0.905165 cumulative IPC: 0.8472 (Simulation time: 4 hr 31 min 55 sec) 
Heartbeat CPU 2 instructions: 670000001 cycles: 1180506916 heartbeat IPC: 0.45461 cumulative IPC: 0.434358 (Simulation time: 4 hr 31 min 57 sec) 
Heartbeat CPU 0 instructions: 1430000000 cycles: 1181205855 heartbeat IPC: 0.496093 cumulative IPC: 1.10334 (Simulation time: 4 hr 32 min 6 sec) 
Heartbeat CPU 3 instructions: 1360000000 cycles: 1188092937 heartbeat IPC: 1.11798 cumulative IPC: 1.02684 (Simulation time: 4 hr 33 min 23 sec) 
Heartbeat CPU 1 instructions: 1150000000 cycles: 1191111432 heartbeat IPC: 0.930173 cumulative IPC: 0.848017 (Simulation time: 4 hr 33 min 54 sec) 
Heartbeat CPU 3 instructions: 1370000000 cycles: 1198200882 heartbeat IPC: 0.989321 cumulative IPC: 1.02649 (Simulation time: 4 hr 35 min 10 sec) 
Heartbeat CPU 0 instructions: 1440000000 cycles: 1201400530 heartbeat IPC: 0.49518 cumulative IPC: 1.0922 (Simulation time: 4 hr 35 min 45 sec) 
Heartbeat CPU 1 instructions: 1160000000 cycles: 1201658619 heartbeat IPC: 0.94812 cumulative IPC: 0.848974 (Simulation time: 4 hr 35 min 48 sec) 
Heartbeat CPU 2 instructions: 680000000 cycles: 1203532761 heartbeat IPC: 0.434295 cumulative IPC: 0.434357 (Simulation time: 4 hr 36 min 8 sec) 
Heartbeat CPU 3 instructions: 1380000000 cycles: 1208102941 heartbeat IPC: 1.00989 cumulative IPC: 1.02634 (Simulation time: 4 hr 36 min 56 sec) 
Heartbeat CPU 1 instructions: 1170000000 cycles: 1212525140 heartbeat IPC: 0.920258 cumulative IPC: 0.849669 (Simulation time: 4 hr 37 min 41 sec) 
Heartbeat CPU 3 instructions: 1390000003 cycles: 1217184189 heartbeat IPC: 1.10117 cumulative IPC: 1.02695 (Simulation time: 4 hr 38 min 32 sec) 
Heartbeat CPU 1 instructions: 1180000000 cycles: 1223451694 heartbeat IPC: 0.915202 cumulative IPC: 0.850305 (Simulation time: 4 hr 39 min 35 sec) 
Heartbeat CPU 2 instructions: 690000003 cycles: 1226972737 heartbeat IPC: 0.426622 cumulative IPC: 0.434196 (Simulation time: 4 hr 40 min 11 sec) 
Heartbeat CPU 3 instructions: 1400000000 cycles: 1226985174 heartbeat IPC: 1.02031 cumulative IPC: 1.02689 (Simulation time: 4 hr 40 min 11 sec) 
Heartbeat CPU 0 instructions: 1450000001 cycles: 1226988268 heartbeat IPC: 0.390812 cumulative IPC: 1.0763 (Simulation time: 4 hr 40 min 11 sec) 
Heartbeat CPU 1 instructions: 1190000000 cycles: 1233753452 heartbeat IPC: 0.970708 cumulative IPC: 0.851398 (Simulation time: 4 hr 41 min 24 sec) 
Heartbeat CPU 3 instructions: 1410000003 cycles: 1237860187 heartbeat IPC: 0.919539 cumulative IPC: 1.02587 (Simulation time: 4 hr 42 min 8 sec) 
Heartbeat CPU 1 instructions: 1200000000 cycles: 1244538626 heartbeat IPC: 0.927199 cumulative IPC: 0.852111 (Simulation time: 4 hr 43 min 19 sec) 
Heartbeat CPU 3 instructions: 1420000000 cycles: 1247276045 heartbeat IPC: 1.06204 cumulative IPC: 1.02617 (Simulation time: 4 hr 43 min 51 sec) 
Heartbeat CPU 0 instructions: 1460000000 cycles: 1248410005 heartbeat IPC: 0.466816 cumulative IPC: 1.06495 (Simulation time: 4 hr 44 min 4 sec) 
Heartbeat CPU 2 instructions: 700000000 cycles: 1249699212 heartbeat IPC: 0.440015 cumulative IPC: 0.434311 (Simulation time: 4 hr 44 min 19 sec) 
Heartbeat CPU 1 instructions: 1210000003 cycles: 1255112199 heartbeat IPC: 0.945754 cumulative IPC: 0.852967 (Simulation time: 4 hr 45 min 21 sec) 
Heartbeat CPU 3 instructions: 1430000003 cycles: 1255149522 heartbeat IPC: 1.27009 cumulative IPC: 1.02783 (Simulation time: 4 hr 45 min 22 sec) 
Heartbeat CPU 3 instructions: 1440000000 cycles: 1265315509 heartbeat IPC: 0.983672 cumulative IPC: 1.02744 (Simulation time: 4 hr 47 min 12 sec) 
Heartbeat CPU 1 instructions: 1220000000 cycles: 1265885241 heartbeat IPC: 0.928243 cumulative IPC: 0.853662 (Simulation time: 4 hr 47 min 19 sec) 
Heartbeat CPU 0 instructions: 1470000000 cycles: 1269000451 heartbeat IPC: 0.485662 cumulative IPC: 1.05476 (Simulation time: 4 hr 47 min 54 sec) 
Finished CPU 1 instructions: 1000000000 cycles: 1171036873 cumulative IPC: 0.853944 (Simulation time: 4 hr 48 min 0 sec) 
Heartbeat CPU 2 instructions: 710000002 cycles: 1271642156 heartbeat IPC: 0.455727 cumulative IPC: 0.434711 (Simulation time: 4 hr 48 min 25 sec) 
Heartbeat CPU 3 instructions: 1450000001 cycles: 1275159679 heartbeat IPC: 1.01583 cumulative IPC: 1.02734 (Simulation time: 4 hr 49 min 5 sec) 
Heartbeat CPU 1 instructions: 1230000001 cycles: 1276532313 heartbeat IPC: 0.939225 cumulative IPC: 0.854435 (Simulation time: 4 hr 49 min 21 sec) 
Heartbeat CPU 3 instructions: 1460000000 cycles: 1285689302 heartbeat IPC: 0.949702 cumulative IPC: 1.02666 (Simulation time: 4 hr 51 min 5 sec) 
Heartbeat CPU 1 instructions: 1240000000 cycles: 1287523718 heartbeat IPC: 0.909802 cumulative IPC: 0.854947 (Simulation time: 4 hr 51 min 26 sec) 
Heartbeat CPU 0 instructions: 1480000000 cycles: 1289172221 heartbeat IPC: 0.495742 cumulative IPC: 1.04529 (Simulation time: 4 hr 51 min 46 sec) 
Heartbeat CPU 2 instructions: 720000000 cycles: 1293622201 heartbeat IPC: 0.454958 cumulative IPC: 0.435084 (Simulation time: 4 hr 52 min 38 sec) 
Heartbeat CPU 3 instructions: 1470000000 cycles: 1295024215 heartbeat IPC: 1.07125 cumulative IPC: 1.027 (Simulation time: 4 hr 52 min 55 sec) 
Heartbeat CPU 1 instructions: 1250000003 cycles: 1298674339 heartbeat IPC: 0.896811 cumulative IPC: 0.855336 (Simulation time: 4 hr 53 min 38 sec) 
Heartbeat CPU 3 instructions: 1480000000 cycles: 1304324881 heartbeat IPC: 1.07519 cumulative IPC: 1.02737 (Simulation time: 4 hr 54 min 44 sec) 
Heartbeat CPU 0 instructions: 1490000003 cycles: 1309315931 heartbeat IPC: 0.496433 cumulative IPC: 1.03616 (Simulation time: 4 hr 55 min 44 sec) 
Heartbeat CPU 1 instructions: 1260000000 cycles: 1309785081 heartbeat IPC: 0.90003 cumulative IPC: 0.855746 (Simulation time: 4 hr 55 min 50 sec) 
Heartbeat CPU 3 instructions: 1490000002 cycles: 1313642714 heartbeat IPC: 1.07321 cumulative IPC: 1.02773 (Simulation time: 4 hr 56 min 34 sec) 
Heartbeat CPU 2 instructions: 730000000 cycles: 1315010253 heartbeat IPC: 0.467551 cumulative IPC: 0.435655 (Simulation time: 4 hr 56 min 50 sec) 
Heartbeat CPU 1 instructions: 1270000001 cycles: 1320976678 heartbeat IPC: 0.893528 cumulative IPC: 0.856092 (Simulation time: 4 hr 58 min 1 sec) 
Heartbeat CPU 3 instructions: 1500000000 cycles: 1322930617 heartbeat IPC: 1.07667 cumulative IPC: 1.0281 (Simulation time: 4 hr 58 min 24 sec) 
Heartbeat CPU 0 instructions: 1500000000 cycles: 1329503087 heartbeat IPC: 0.495364 cumulative IPC: 1.02729 (Simulation time: 4 hr 59 min 42 sec) 
Heartbeat CPU 1 instructions: 1280000000 cycles: 1332118723 heartbeat IPC: 0.897501 cumulative IPC: 0.856466 (Simulation time: 5 hr 0 min 12 sec) 
Heartbeat CPU 3 instructions: 1510000002 cycles: 1332258116 heartbeat IPC: 1.0721 cumulative IPC: 1.02843 (Simulation time: 5 hr 0 min 14 sec) 
Heartbeat CPU 2 instructions: 740000000 cycles: 1336267318 heartbeat IPC: 0.470432 cumulative IPC: 0.436252 (Simulation time: 5 hr 1 min 1 sec) 
Heartbeat CPU 3 instructions: 1520000000 cycles: 1341717711 heartbeat IPC: 1.05713 cumulative IPC: 1.02865 (Simulation time: 5 hr 2 min 5 sec) 
Heartbeat CPU 1 instructions: 1290000003 cycles: 1343297840 heartbeat IPC: 0.894525 cumulative IPC: 0.856807 (Simulation time: 5 hr 2 min 23 sec) 
Heartbeat CPU 0 instructions: 1510000003 cycles: 1349696935 heartbeat IPC: 0.4952 cumulative IPC: 1.0187 (Simulation time: 5 hr 3 min 37 sec) 
Heartbeat CPU 3 instructions: 1530000003 cycles: 1351268703 heartbeat IPC: 1.04701 cumulative IPC: 1.02879 (Simulation time: 5 hr 3 min 56 sec) 
Heartbeat CPU 1 instructions: 1300000000 cycles: 1354337568 heartbeat IPC: 0.905819 cumulative IPC: 0.857238 (Simulation time: 5 hr 4 min 33 sec) 
Heartbeat CPU 2 instructions: 750000001 cycles: 1357331572 heartbeat IPC: 0.474738 cumulative IPC: 0.436896 (Simulation time: 5 hr 5 min 10 sec) 
Heartbeat CPU 3 instructions: 1540000000 cycles: 1359205789 heartbeat IPC: 1.25991 cumulative IPC: 1.03024 (Simulation time: 5 hr 5 min 32 sec) 
Heartbeat CPU 1 instructions: 1310000001 cycles: 1364962678 heartbeat IPC: 0.941167 cumulative IPC: 0.857942 (Simulation time: 5 hr 6 min 34 sec) 
Heartbeat CPU 3 instructions: 1550000001 cycles: 1369489697 heartbeat IPC: 0.972393 cumulative IPC: 1.02978 (Simulation time: 5 hr 7 min 22 sec) 
Heartbeat CPU 0 instructions: 1520000000 cycles: 1369947833 heartbeat IPC: 0.493805 cumulative IPC: 1.01034 (Simulation time: 5 hr 7 min 27 sec) 
Heartbeat CPU 1 instructions: 1320000000 cycles: 1375467230 heartbeat IPC: 0.951968 cumulative IPC: 0.858716 (Simulation time: 5 hr 8 min 27 sec) 
Heartbeat CPU 2 instructions: 760000000 cycles: 1378571128 heartbeat IPC: 0.47082 cumulative IPC: 0.437459 (Simulation time: 5 hr 9 min 0 sec) 
Heartbeat CPU 3 instructions: 1560000000 cycles: 1380016855 heartbeat IPC: 0.949924 cumulative IPC: 1.02912 (Simulation time: 5 hr 9 min 16 sec) 
Heartbeat CPU 1 instructions: 1330000000 cycles: 1386067294 heartbeat IPC: 0.943391 cumulative IPC: 0.859413 (Simulation time: 5 hr 10 min 20 sec) 
Heartbeat CPU 3 instructions: 1570000001 cycles: 1389625925 heartbeat IPC: 1.04068 cumulative IPC: 1.02921 (Simulation time: 5 hr 10 min 57 sec) 
Heartbeat CPU 0 instructions: 1530000000 cycles: 1394517628 heartbeat IPC: 0.407004 cumulative IPC: 0.998904 (Simulation time: 5 hr 11 min 49 sec) 
Heartbeat CPU 1 instructions: 1340000000 cycles: 1397155457 heartbeat IPC: 0.901863 cumulative IPC: 0.859775 (Simulation time: 5 hr 12 min 15 sec) 
Heartbeat CPU 3 instructions: 1580000000 cycles: 1398902626 heartbeat IPC: 1.07797 cumulative IPC: 1.02955 (Simulation time: 5 hr 12 min 33 sec) 
Heartbeat CPU 2 instructions: 770000002 cycles: 1401222171 heartbeat IPC: 0.441481 cumulative IPC: 0.437529 (Simulation time: 5 hr 12 min 57 sec) 
Heartbeat CPU 1 instructions: 1350000002 cycles: 1407353571 heartbeat IPC: 0.980574 cumulative IPC: 0.860717 (Simulation time: 5 hr 14 min 2 sec) 
Heartbeat CPU 3 instructions: 1590000002 cycles: 1408436103 heartbeat IPC: 1.04894 cumulative IPC: 1.02969 (Simulation time: 5 hr 14 min 13 sec) 
Heartbeat CPU 1 instructions: 1360000000 cycles: 1417927917 heartbeat IPC: 0.945685 cumulative IPC: 0.861398 (Simulation time: 5 hr 15 min 45 sec) 
Heartbeat CPU 0 instructions: 1540000000 cycles: 1419516017 heartbeat IPC: 0.400026 cumulative IPC: 0.987571 (Simulation time: 5 hr 16 min 2 sec) 
Heartbeat CPU 3 instructions: 1600000000 cycles: 1420301988 heartbeat IPC: 0.842752 cumulative IPC: 1.02802 (Simulation time: 5 hr 16 min 10 sec) 
Heartbeat CPU 2 instructions: 780000000 cycles: 1422877325 heartbeat IPC: 0.461784 cumulative IPC: 0.437925 (Simulation time: 5 hr 16 min 39 sec) 
Heartbeat CPU 3 instructions: 1610000001 cycles: 1427582062 heartbeat IPC: 1.37361 cumulative IPC: 1.02991 (Simulation time: 5 hr 17 min 28 sec) 
Heartbeat CPU 1 instructions: 1370000000 cycles: 1428282646 heartbeat IPC: 0.965742 cumulative IPC: 0.86221 (Simulation time: 5 hr 17 min 36 sec) 
Heartbeat CPU 3 instructions: 1620000000 cycles: 1436435701 heartbeat IPC: 1.12948 cumulative IPC: 1.03057 (Simulation time: 5 hr 19 min 2 sec) 
Heartbeat CPU 1 instructions: 1380000000 cycles: 1439123635 heartbeat IPC: 0.922425 cumulative IPC: 0.862697 (Simulation time: 5 hr 19 min 29 sec) 
Heartbeat CPU 0 instructions: 1550000003 cycles: 1441023323 heartbeat IPC: 0.464958 cumulative IPC: 0.9792 (Simulation time: 5 hr 19 min 49 sec) 
Heartbeat CPU 2 instructions: 790000000 cycles: 1445595328 heartbeat IPC: 0.44018 cumulative IPC: 0.437963 (Simulation time: 5 hr 20 min 38 sec) 
Heartbeat CPU 3 instructions: 1630000001 cycles: 1446595037 heartbeat IPC: 0.984316 cumulative IPC: 1.03022 (Simulation time: 5 hr 20 min 49 sec) 
Heartbeat CPU 1 instructions: 1390000002 cycles: 1449626315 heartbeat IPC: 0.952138 cumulative IPC: 0.863392 (Simulation time: 5 hr 21 min 22 sec) 
Heartbeat CPU 3 instructions: 1640000000 cycles: 1456947741 heartbeat IPC: 0.965931 cumulative IPC: 1.02973 (Simulation time: 5 hr 22 min 41 sec) 
Heartbeat CPU 1 instructions: 1400000000 cycles: 1460374725 heartbeat IPC: 0.93037 cumulative IPC: 0.863921 (Simulation time: 5 hr 23 min 17 sec) 
Heartbeat CPU 0 instructions: 1560000000 cycles: 1460970280 heartbeat IPC: 0.501329 cumulative IPC: 0.972204 (Simulation time: 5 hr 23 min 24 sec) 
Heartbeat CPU 3 instructions: 1650000002 cycles: 1466791759 heartbeat IPC: 1.01585 cumulative IPC: 1.02963 (Simulation time: 5 hr 24 min 29 sec) 
Heartbeat CPU 2 instructions: 800000000 cycles: 1467832834 heartbeat IPC: 0.449691 cumulative IPC: 0.438154 (Simulation time: 5 hr 24 min 40 sec) 
[...]
Heartbeat CPU 1 instructions: 2060000000 cycles: 2220857376 heartbeat IPC: 0.878117 cumulative IPC: 0.865336 (Simulation time: 7 hr 29 min 24 sec) 
Heartbeat CPU 2 instructions: 1140000000 cycles: 2221200091 heartbeat IPC: 0.46828 cumulative IPC: 0.442822 (Simulation time: 7 hr 29 min 28 sec) 
Heartbeat CPU 3 instructions: 2440000000 cycles: 2225590449 heartbeat IPC: 1.23494 cumulative IPC: 1.03373 (Simulation time: 7 hr 30 min 16 sec) 
Heartbeat CPU 0 instructions: 1820000000 cycles: 2228130860 heartbeat IPC: 0.527111 cumulative IPC: 0.744077 (Simulation time: 7 hr 30 min 41 sec) 
Heartbeat CPU 1 instructions: 2070000000 cycles: 2231737354 heartbeat IPC: 0.919119 cumulative IPC: 0.86561 (Simulation time: 7 hr 31 min 20 sec) 
Heartbeat CPU 3 instructions: 2450000000 cycles: 2236730028 heartbeat IPC: 0.8977 cumulative IPC: 1.03302 (Simulation time: 7 hr 32 min 11 sec) 
Heartbeat CPU 1 instructions: 2080000000 cycles: 2242324180 heartbeat IPC: 0.94457 cumulative IPC: 0.866 (Simulation time: 7 hr 33 min 9 sec) 
Heartbeat CPU 2 instructions: 1150000003 cycles: 2242378980 heartbeat IPC: 0.472168 cumulative IPC: 0.443112 (Simulation time: 7 hr 33 min 9 sec) 
Heartbeat CPU 3 instructions: 2460000000 cycles: 2246162017 heartbeat IPC: 1.06022 cumulative IPC: 1.03314 (Simulation time: 7 hr 33 min 50 sec) 
Heartbeat CPU 0 instructions: 1830000000 cycles: 2249365577 heartbeat IPC: 0.470927 cumulative IPC: 0.741381 (Simulation time: 7 hr 34 min 24 sec) 
Heartbeat CPU 1 instructions: 2090000001 cycles: 2253482864 heartbeat IPC: 0.896163 cumulative IPC: 0.866156 (Simulation time: 7 hr 35 min 6 sec) 
Heartbeat CPU 3 instructions: 2470000003 cycles: 2255759576 heartbeat IPC: 1.04193 cumulative IPC: 1.03318 (Simulation time: 7 hr 35 min 30 sec) 
Heartbeat CPU 1 instructions: 2100000000 cycles: 2264880722 heartbeat IPC: 0.877358 cumulative IPC: 0.866215 (Simulation time: 7 hr 37 min 5 sec) 
Heartbeat CPU 2 instructions: 1160000000 cycles: 2264962690 heartbeat IPC: 0.442797 cumulative IPC: 0.443108 (Simulation time: 7 hr 37 min 6 sec) 
Heartbeat CPU 3 instructions: 2480000000 cycles: 2265234237 heartbeat IPC: 1.05545 cumulative IPC: 1.03328 (Simulation time: 7 hr 37 min 9 sec) 
Heartbeat CPU 0 instructions: 1840000000 cycles: 2268551325 heartbeat IPC: 0.52122 cumulative IPC: 0.739434 (Simulation time: 7 hr 37 min 44 sec) 
Heartbeat CPU 3 instructions: 2490000000 cycles: 2274949748 heartbeat IPC: 1.02928 cumulative IPC: 1.03326 (Simulation time: 7 hr 38 min 50 sec) 
Heartbeat CPU 1 instructions: 2110000001 cycles: 2275801375 heartbeat IPC: 0.915696 cumulative IPC: 0.866463 (Simulation time: 7 hr 38 min 58 sec) 
Heartbeat CPU 3 instructions: 2500000000 cycles: 2285861748 heartbeat IPC: 0.916422 cumulative IPC: 1.03268 (Simulation time: 7 hr 40 min 40 sec) 
Heartbeat CPU 2 instructions: 1170000001 cycles: 2286694309 heartbeat IPC: 0.460159 cumulative IPC: 0.443278 (Simulation time: 7 hr 40 min 49 sec) 
Heartbeat CPU 1 instructions: 2120000000 cycles: 2286696680 heartbeat IPC: 0.917826 cumulative IPC: 0.866719 (Simulation time: 7 hr 40 min 49 sec) 
Heartbeat CPU 0 instructions: 1850000000 cycles: 2287427138 heartbeat IPC: 0.529778 cumulative IPC: 0.737626 (Simulation time: 7 hr 40 min 57 sec) 
Heartbeat CPU 3 instructions: 2510000001 cycles: 2293397356 heartbeat IPC: 1.32703 cumulative IPC: 1.03369 (Simulation time: 7 hr 41 min 59 sec) 
Heartbeat CPU 1 instructions: 2130000003 cycles: 2297817061 heartbeat IPC: 0.89925 cumulative IPC: 0.866883 (Simulation time: 7 hr 42 min 44 sec) 
Heartbeat CPU 3 instructions: 2520000000 cycles: 2303264003 heartbeat IPC: 1.01352 cumulative IPC: 1.0336 (Simulation time: 7 hr 43 min 39 sec) 
Heartbeat CPU 0 instructions: 1860000000 cycles: 2306421897 heartbeat IPC: 0.526461 cumulative IPC: 0.73581 (Simulation time: 7 hr 44 min 12 sec) 
Heartbeat CPU 2 instructions: 1180000000 cycles: 2308721318 heartbeat IPC: 0.453988 cumulative IPC: 0.443384 (Simulation time: 7 hr 44 min 36 sec) 
Heartbeat CPU 1 instructions: 2140000000 cycles: 2308847830 heartbeat IPC: 0.906555 cumulative IPC: 0.867081 (Simulation time: 7 hr 44 min 37 sec) 
Heartbeat CPU 3 instructions: 2530000001 cycles: 2312642830 heartbeat IPC: 1.06623 cumulative IPC: 1.03373 (Simulation time: 7 hr 45 min 16 sec) 
Heartbeat CPU 1 instructions: 2150000001 cycles: 2319873971 heartbeat IPC: 0.906936 cumulative IPC: 0.867279 (Simulation time: 7 hr 46 min 33 sec) 
Heartbeat CPU 3 instructions: 2540000000 cycles: 2323345312 heartbeat IPC: 0.934363 cumulative IPC: 1.03326 (Simulation time: 7 hr 47 min 8 sec) 
Heartbeat CPU 0 instructions: 1870000002 cycles: 2325432649 heartbeat IPC: 0.526018 cumulative IPC: 0.734019 (Simulation time: 7 hr 47 min 31 sec) 
Heartbeat CPU 2 instructions: 1190000002 cycles: 2330409573 heartbeat IPC: 0.461079 cumulative IPC: 0.443556 (Simulation time: 7 hr 48 min 26 sec) 
Heartbeat CPU 1 instructions: 2160000000 cycles: 2331477569 heartbeat IPC: 0.861802 cumulative IPC: 0.867251 (Simulation time: 7 hr 48 min 38 sec) 
Heartbeat CPU 3 instructions: 2550000003 cycles: 2332725510 heartbeat IPC: 1.06608 cumulative IPC: 1.03339 (Simulation time: 7 hr 48 min 51 sec) 
Heartbeat CPU 3 instructions: 2560000000 cycles: 2342046603 heartbeat IPC: 1.07284 cumulative IPC: 1.03356 (Simulation time: 7 hr 50 min 35 sec) 
Heartbeat CPU 1 instructions: 2170000002 cycles: 2342960967 heartbeat IPC: 0.870823 cumulative IPC: 0.867269 (Simulation time: 7 hr 50 min 45 sec) 
Heartbeat CPU 0 instructions: 1880000000 cycles: 2344440348 heartbeat IPC: 0.526102 cumulative IPC: 0.732259 (Simulation time: 7 hr 51 min 1 sec) 
Heartbeat CPU 3 instructions: 2570000000 cycles: 2351347677 heartbeat IPC: 1.07514 cumulative IPC: 1.03373 (Simulation time: 7 hr 52 min 17 sec) 
Heartbeat CPU 2 instructions: 1200000000 cycles: 2352348975 heartbeat IPC: 0.455801 cumulative IPC: 0.443676 (Simulation time: 7 hr 52 min 28 sec) 
Finished CPU 2 instructions: 1000000000 cycles: 2253898976 cumulative IPC: 0.443676 (Simulation time: 7 hr 52 min 28 sec) 

CPU 0 Branch Prediction Accuracy: 99.4766% MPKI: 0.0386671

CPU 1 Branch Prediction Accuracy: 99.9541% MPKI: 0.00803904

CPU 2 Branch Prediction Accuracy: 97.1061% MPKI: 0.518355

CPU 3 Branch Prediction Accuracy: 97.6063% MPKI: 3.50469

ChampSim completed all CPUs

Total Simulation Statistics (not including warmup)

CPU 0 cumulative IPC: 0.731529 instructions: 1648792851 cycles: 2253898976
L1D TOTAL     ACCESS:  585652700  HIT:  555609494  MISS:   30043206
L1D LOAD      ACCESS:  492871827  HIT:  462828657  MISS:   30043170
L1D RFO       ACCESS:   92780873  HIT:   92780837  MISS:         36
L1D PREFETCH  ACCESS:          0  HIT:          0  MISS:          0
L1D WRITEBACK ACCESS:          0  HIT:          0  MISS:          0
L1I TOTAL     ACCESS:  390398688  HIT:  390398388  MISS:        300
L1I LOAD      ACCESS:  390398688  HIT:  390398388  MISS:        300
L1I RFO       ACCESS:          0  HIT:          0  MISS:          0
L1I PREFETCH  ACCESS:          0  HIT:          0  MISS:          0
L1I WRITEBACK ACCESS:          0  HIT:          0  MISS:          0
L2C TOTAL     ACCESS:   57733822  HIT:   27584034  MISS:   30149788
L2C LOAD      ACCESS:   30043468  HIT:   14856361  MISS:   15187107
L2C RFO       ACCESS:         35  HIT:          8  MISS:         27
L2C PREFETCH  ACCESS:   16732934  HIT:    1770762  MISS:   14962172
L2C WRITEBACK ACCESS:   10957385  HIT:   10956903  MISS:        482
LLC TOTAL     ACCESS:  159752728  HIT:  124082672  MISS:   35670056
LLC LOAD      ACCESS:   14989164  HIT:   10970750  MISS:    4018414
LLC RFO       ACCESS:         27  HIT:         20  MISS:          7
LLC PREFETCH  ACCESS:  133839656  HIT:  102188414  MISS:   31651242
LLC WRITEBACK ACCESS:   10923881  HIT:   10923488  MISS:        393

CPU 1 cumulative IPC: 0.867249 instructions: 1954691231 cycles: 2253898976
L1D TOTAL     ACCESS:  415279145  HIT:  389453744  MISS:   25825401
L1D LOAD      ACCESS:  278012748  HIT:  252219284  MISS:   25793464
L1D RFO       ACCESS:  137266397  HIT:  137234460  MISS:      31937
L1D PREFETCH  ACCESS:          0  HIT:          0  MISS:          0
L1D WRITEBACK ACCESS:          0  HIT:          0  MISS:          0
L1I TOTAL     ACCESS:  402373259  HIT:  402372982  MISS:        277
L1I LOAD      ACCESS:  402373259  HIT:  402372982  MISS:        277
L1I RFO       ACCESS:          0  HIT:          0  MISS:          0
L1I PREFETCH  ACCESS:          0  HIT:          0  MISS:          0
L1I WRITEBACK ACCESS:          0  HIT:          0  MISS:          0
L2C TOTAL     ACCESS:   60950057  HIT:   35791629  MISS:   25158428
L2C LOAD      ACCESS:   25793741  HIT:   14642979  MISS:   11150762
L2C RFO       ACCESS:      31937  HIT:       6013  MISS:      25924
L2C PREFETCH  ACCESS:   17980751  HIT:    3999013  MISS:   13981738
L2C WRITEBACK ACCESS:   17143628  HIT:   17143624  MISS:          4
LLC TOTAL     ACCESS:  140094869  HIT:  122945811  MISS:   17149058
LLC LOAD      ACCESS:    8619796  HIT:    7778038  MISS:     841758
LLC RFO       ACCESS:      25924  HIT:      25283  MISS:        641
LLC PREFETCH  ACCESS:  114316672  HIT:   98014092  MISS:   16302580
LLC WRITEBACK ACCESS:   17132477  HIT:   17128398  MISS:       4079

CPU 2 cumulative IPC: 0.443676 instructions: 1000000000 cycles: 2253898976
L1D TOTAL     ACCESS:  283980361  HIT:  205681841  MISS:   78298520
L1D LOAD      ACCESS:  101006615  HIT:   89134094  MISS:   11872521
L1D RFO       ACCESS:  182973746  HIT:  116547747  MISS:   66425999
L1D PREFETCH  ACCESS:          0  HIT:          0  MISS:          0
L1D WRITEBACK ACCESS:          0  HIT:          0  MISS:          0
L1I TOTAL     ACCESS:  244173950  HIT:  244173950  MISS:          0
L1I LOAD      ACCESS:  244173950  HIT:  244173950  MISS:          0
L1I RFO       ACCESS:          0  HIT:          0  MISS:          0
L1I PREFETCH  ACCESS:          0  HIT:          0  MISS:          0
L1I WRITEBACK ACCESS:          0  HIT:          0  MISS:          0
L2C TOTAL     ACCESS:  147526128  HIT:   88737228  MISS:   58788900
L2C LOAD      ACCESS:   11872521  HIT:    2735305  MISS:    9137216
L2C RFO       ACCESS:   66425921  HIT:   19519993  MISS:   46905928
L2C PREFETCH  ACCESS:    2801685  HIT:      73078  MISS:    2728607
L2C WRITEBACK ACCESS:   66426001  HIT:   66408852  MISS:      17149
LLC TOTAL     ACCESS:  129425843  HIT:   81994716  MISS:   47431127
LLC LOAD      ACCESS:    7810925  HIT:    6885621  MISS:     925304
LLC RFO       ACCESS:   46880137  HIT:   11311526  MISS:   35568611
LLC PREFETCH  ACCESS:   27812474  HIT:   16879235  MISS:   10933239
LLC WRITEBACK ACCESS:   46922307  HIT:   46918334  MISS:       3973

CPU 3 cumulative IPC: 1.03375 instructions: 2329962736 cycles: 2253898977
L1D TOTAL     ACCESS:  429511889  HIT:  389939557  MISS:   39572332
L1D LOAD      ACCESS:  307481370  HIT:  281270518  MISS:   26210852
L1D RFO       ACCESS:  122030519  HIT:  108669039  MISS:   13361480
L1D PREFETCH  ACCESS:          0  HIT:          0  MISS:          0
L1D WRITEBACK ACCESS:          0  HIT:          0  MISS:          0
L1I TOTAL     ACCESS:  562826759  HIT:  561695020  MISS:    1131739
L1I LOAD      ACCESS:  562826759  HIT:  561695020  MISS:    1131739
L1I RFO       ACCESS:          0  HIT:          0  MISS:          0
L1I PREFETCH  ACCESS:          0  HIT:          0  MISS:          0
L1I WRITEBACK ACCESS:          0  HIT:          0  MISS:          0
L2C TOTAL     ACCESS:  120505389  HIT:  101573252  MISS:   18932137
L2C LOAD      ACCESS:   27340788  HIT:   18726947  MISS:    8613841
L2C RFO       ACCESS:   13361008  HIT:    6882848  MISS:    6478160
L2C PREFETCH  ACCESS:   62826820  HIT:   59000053  MISS:    3826767
L2C WRITEBACK ACCESS:   16976773  HIT:   16963404  MISS:      13369
LLC TOTAL     ACCESS:   62745099  HIT:   53050262  MISS:    9694837
LLC LOAD      ACCESS:    7129311  HIT:    6401103  MISS:     728208
LLC RFO       ACCESS:    6477936  HIT:    3112805  MISS:    3365131
LLC PREFETCH  ACCESS:   40195159  HIT:   34786356  MISS:    5408803
LLC WRITEBACK ACCESS:    8942693  HIT:    8749998  MISS:     192695

Region of Interest Statistics

CPU 0 cumulative IPC: 1.17617 instructions: 1000000002 cycles: 850214502
L1D TOTAL     ACCESS:  282759327  HIT:  265925591  MISS:   16833736
L1D LOAD      ACCESS:  233587155  HIT:  216753419  MISS:   16833736
L1D RFO       ACCESS:   49172172  HIT:   49172172  MISS:          0
L1D PREFETCH  ACCESS:          0  HIT:          0  MISS:          0
L1D WRITEBACK ACCESS:          0  HIT:          0  MISS:          0
L1D PREFETCH  REQUESTED:          0  ISSUED:          0  USEFUL:          0  USELESS:          0
L1I TOTAL     ACCESS:  214432890  HIT:  214432890  MISS:          0
L1I LOAD      ACCESS:  214432890  HIT:  214432890  MISS:          0
L1I RFO       ACCESS:          0  HIT:          0  MISS:          0
L1I PREFETCH  ACCESS:          0  HIT:          0  MISS:          0
L1I WRITEBACK ACCESS:          0  HIT:          0  MISS:          0
L1I PREFETCH  REQUESTED:          0  ISSUED:          0  USEFUL:          0  USELESS:          0
L2C TOTAL     ACCESS:   34111828  HIT:   17429746  MISS:   16682082
L2C LOAD      ACCESS:   16833734  HIT:   10783707  MISS:    6050027
L2C RFO       ACCESS:          0  HIT:          0  MISS:          0
L2C PREFETCH  ACCESS:   12056803  HIT:    1425062  MISS:   10631741
L2C WRITEBACK ACCESS:    5221291  HIT:    5220977  MISS:        314
L2C PREFETCH  REQUESTED:  168383633  ISSUED:  165550293  USEFUL:   16733106  USELESS:     763341
LLC TOTAL     ACCESS:  102457594  HIT:   85052485  MISS:   17405109
LLC LOAD      ACCESS:    5905202  HIT:    5518264  MISS:     386938
LLC RFO       ACCESS:          0  HIT:          0  MISS:          0
LLC PREFETCH  ACCESS:   91359981  HIT:   74342073  MISS:   17017908
LLC WRITEBACK ACCESS:    5192411  HIT:    5192148  MISS:        263
LLC PREFETCH  REQUESTED:          0  ISSUED:          0  USEFUL:   27888680  USELESS:   45310326
Major fault: 0 Minor fault: 870498

CPU 1 cumulative IPC: 0.853944 instructions: 1000000000 cycles: 1171036873
L1D TOTAL     ACCESS:  212413956  HIT:  199222741  MISS:   13191215
L1D LOAD      ACCESS:  142140044  HIT:  128966122  MISS:   13173922
L1D RFO       ACCESS:   70273912  HIT:   70256619  MISS:      17293
L1D PREFETCH  ACCESS:          0  HIT:          0  MISS:          0
L1D WRITEBACK ACCESS:          0  HIT:          0  MISS:          0
L1D PREFETCH  REQUESTED:          0  ISSUED:          0  USEFUL:          0  USELESS:          0
L1I TOTAL     ACCESS:  205916839  HIT:  205916562  MISS:        277
L1I LOAD      ACCESS:  205916839  HIT:  205916562  MISS:        277
L1I RFO       ACCESS:          0  HIT:          0  MISS:          0
L1I PREFETCH  ACCESS:          0  HIT:          0  MISS:          0
L1I WRITEBACK ACCESS:          0  HIT:          0  MISS:          0
L1I PREFETCH  REQUESTED:          0  ISSUED:          0  USEFUL:          0  USELESS:          0
L2C TOTAL     ACCESS:   31089490  HIT:   18276134  MISS:   12813356
L2C LOAD      ACCESS:   13174199  HIT:    7245746  MISS:    5928453
L2C RFO       ACCESS:      17293  HIT:       3729  MISS:      13564
L2C PREFETCH  ACCESS:    9141335  HIT:    2270000  MISS:    6871335
L2C WRITEBACK ACCESS:    8756663  HIT:    8756659  MISS:          4
L2C PREFETCH  REQUESTED:  176049999  ISSUED:  176048925  USEFUL:   15829106  USELESS:       9212
LLC TOTAL     ACCESS:   70513246  HIT:   61750098  MISS:    8763148
LLC LOAD      ACCESS:    4487299  HIT:    4040956  MISS:     446343
LLC RFO       ACCESS:      13564  HIT:      12926  MISS:        638
LLC PREFETCH  ACCESS:   57261380  HIT:   48949134  MISS:    8312246
LLC WRITEBACK ACCESS:    8751003  HIT:    8747082  MISS:       3921
LLC PREFETCH  REQUESTED:          0  ISSUED:          0  USEFUL:   27888680  USELESS:   45310326
Major fault: 0 Minor fault: 274047

CPU 2 cumulative IPC: 0.443676 instructions: 1000000000 cycles: 2253898976
L1D TOTAL     ACCESS:  283980361  HIT:  205681841  MISS:   78298520
L1D LOAD      ACCESS:  101006615  HIT:   89134094  MISS:   11872521
L1D RFO       ACCESS:  182973746  HIT:  116547747  MISS:   66425999
L1D PREFETCH  ACCESS:          0  HIT:          0  MISS:          0
L1D WRITEBACK ACCESS:          0  HIT:          0  MISS:          0
L1D PREFETCH  REQUESTED:          0  ISSUED:          0  USEFUL:          0  USELESS:          0
L1I TOTAL     ACCESS:  244173950  HIT:  244173950  MISS:          0
L1I LOAD      ACCESS:  244173950  HIT:  244173950  MISS:          0
L1I RFO       ACCESS:          0  HIT:          0  MISS:          0
L1I PREFETCH  ACCESS:          0  HIT:          0  MISS:          0
L1I WRITEBACK ACCESS:          0  HIT:          0  MISS:          0
L1I PREFETCH  REQUESTED:          0  ISSUED:          0  USEFUL:          0  USELESS:          0
L2C TOTAL     ACCESS:  147526128  HIT:   88737228  MISS:   58788900
L2C LOAD      ACCESS:   11872521  HIT:    2735305  MISS:    9137216
L2C RFO       ACCESS:   66425921  HIT:   19519993  MISS:   46905928
L2C PREFETCH  ACCESS:    2801685  HIT:      73078  MISS:    2728607
L2C WRITEBACK ACCESS:   66426001  HIT:   66408852  MISS:      17149
L2C PREFETCH  REQUESTED:   83068576  ISSUED:   83068576  USEFUL:    3856353  USELESS:        800
LLC TOTAL     ACCESS:  129425843  HIT:   81994716  MISS:   47431127
LLC LOAD      ACCESS:    7810925  HIT:    6885621  MISS:     925304
LLC RFO       ACCESS:   46880137  HIT:   11311526  MISS:   35568611
LLC PREFETCH  ACCESS:   27812474  HIT:   16879235  MISS:   10933239
LLC WRITEBACK ACCESS:   46922307  HIT:   46918334  MISS:       3973
LLC PREFETCH  REQUESTED:          0  ISSUED:          0  USEFUL:   27888680  USELESS:   45310326
Major fault: 0 Minor fault: 447831

CPU 3 cumulative IPC: 1.02228 instructions: 1000000002 cycles: 978202583
L1D TOTAL     ACCESS:  184287477  HIT:  167409808  MISS:   16877669
L1D LOAD      ACCESS:  132153146  HIT:  121052777  MISS:   11100369
L1D RFO       ACCESS:   52134331  HIT:   46357031  MISS:    5777300
L1D PREFETCH  ACCESS:          0  HIT:          0  MISS:          0
L1D WRITEBACK ACCESS:          0  HIT:          0  MISS:          0
L1D PREFETCH  REQUESTED:          0  ISSUED:          0  USEFUL:          0  USELESS:          0
L1I TOTAL     ACCESS:  241717143  HIT:  241253249  MISS:     463894
L1I LOAD      ACCESS:  241717143  HIT:  241253249  MISS:     463894
L1I RFO       ACCESS:          0  HIT:          0  MISS:          0
L1I PREFETCH  ACCESS:          0  HIT:          0  MISS:          0
L1I WRITEBACK ACCESS:          0  HIT:          0  MISS:          0
L1I PREFETCH  REQUESTED:          0  ISSUED:          0  USEFUL:          0  USELESS:          0
L2C TOTAL     ACCESS:   51539248  HIT:   43488119  MISS:    8051129
L2C LOAD      ACCESS:   11563599  HIT:    7840608  MISS:    3722991
L2C RFO       ACCESS:    5777081  HIT:    2983475  MISS:    2793606
L2C PREFETCH  ACCESS:   26894432  HIT:   25365481  MISS:    1528951
L2C WRITEBACK ACCESS:    7304136  HIT:    7298555  MISS:       5581
L2C PREFETCH  REQUESTED:  157434445  ISSUED:  153660906  USEFUL:    4320420  USELESS:     188764
LLC TOTAL     ACCESS:   26280784  HIT:   22050383  MISS:    4230401
LLC LOAD      ACCESS:    3030564  HIT:    2713860  MISS:     316704
LLC RFO       ACCESS:    2793508  HIT:    1297523  MISS:    1495985
LLC PREFETCH  ACCESS:   16618562  HIT:   14289865  MISS:    2328697
LLC WRITEBACK ACCESS:    3838150  HIT:    3749135  MISS:      89015
LLC PREFETCH  REQUESTED:          0  ISSUED:          0  USEFUL:   27888680  USELESS:   45310326
Major fault: 0 Minor fault: 54915

DRAM Statistics
 CHANNEL 0
 RQ ROW_BUFFER_HIT:   16782703  ROW_BUFFER_MISS:   38048772
 DBUS_CONGESTED:  141659554
 WQ ROW_BUFFER_HIT:    3114465  ROW_BUFFER_MISS:   31030715  FULL:          0

 CHANNEL 1
 RQ ROW_BUFFER_HIT:   16770444  ROW_BUFFER_MISS:   38141515
 DBUS_CONGESTED:  141659554
 WQ ROW_BUFFER_HIT:    3121783  ROW_BUFFER_MISS:   31023939  FULL:          0

 AVG_CONGESTED_CYCLE: 14
