Initialize SIGNATURE TABLE
ST_SET: 1
ST_WAY: 256
ST_TAG_BIT: 16
ST_TAG_MASK: ffff

Initialize PATTERN TABLE
PT_SET: 512
PT_WAY: 4
SIG_DELTA_BIT: 7
C_SIG_BIT: 4
C_DELTA_BIT: 4

Initialize PREFETCH FILTER
FILTER_SET: 1024

*** ChampSim Multicore Out-of-Order Simulator ***

Warmup Instructions: 200000000
Simulation Instructions: 1000000000
Number of CPUs: 4
LLC sets: 8192
LLC ways: 16
Off-chip DRAM Size: 8192 MB Channels: 2 Width: 64-bit Data Rate: 1600 MT/s

CPU 0 runs /scratch/user/djimenez/champsim-traces/speccpu2017/xz/620.omnetpp_s/620.omnetpp_s-874B.champsimtrace.xz
CPU 1 runs /scratch/user/djimenez/champsim-traces/speccpu2017/xz/603.bwaves_s/603.bwaves_s-2931B.champsimtrace.xz
CPU 2 runs /scratch/user/djimenez/champsim-traces/speccpu2017/xz/649.fotonik3d_s/649.fotonik3d_s-7084B.champsimtrace.xz
CPU 3 runs /scratch/user/djimenez/champsim-traces/speccpu2017/xz/607.cactuBSSN_s/607.cactuBSSN_s-4004B.champsimtrace.xz
Heartbeat CPU 2 instructions: 10000000 cycles: 4193155 heartbeat IPC: 2.38484 cumulative IPC: 2.38484 (Simulation time: 0 hr 1 min 47 sec) 
Heartbeat CPU 1 instructions: 10000003 cycles: 5229201 heartbeat IPC: 1.91234 cumulative IPC: 1.91234 (Simulation time: 0 hr 2 min 14 sec) 
Heartbeat CPU 3 instructions: 10000000 cycles: 5802417 heartbeat IPC: 1.72342 cumulative IPC: 1.72342 (Simulation time: 0 hr 2 min 30 sec) 
Heartbeat CPU 0 instructions: 10000000 cycles: 7365572 heartbeat IPC: 1.35767 cumulative IPC: 1.35767 (Simulation time: 0 hr 3 min 9 sec) 
Heartbeat CPU 2 instructions: 20000000 cycles: 8384980 heartbeat IPC: 2.3856 cumulative IPC: 2.38522 (Simulation time: 0 hr 3 min 35 sec) 
Heartbeat CPU 1 instructions: 20000000 cycles: 10457828 heartbeat IPC: 1.91255 cumulative IPC: 1.91244 (Simulation time: 0 hr 4 min 27 sec) 
Heartbeat CPU 3 instructions: 20000000 cycles: 11605291 heartbeat IPC: 1.72328 cumulative IPC: 1.72335 (Simulation time: 0 hr 4 min 56 sec) 
Heartbeat CPU 2 instructions: 30000000 cycles: 12568153 heartbeat IPC: 2.39053 cumulative IPC: 2.38699 (Simulation time: 0 hr 5 min 20 sec) 
Heartbeat CPU 0 instructions: 20000000 cycles: 14713020 heartbeat IPC: 1.36102 cumulative IPC: 1.35934 (Simulation time: 0 hr 6 min 14 sec) 
Heartbeat CPU 1 instructions: 30000002 cycles: 15686550 heartbeat IPC: 1.91251 cumulative IPC: 1.91247 (Simulation time: 0 hr 6 min 39 sec) 
Heartbeat CPU 2 instructions: 40000000 cycles: 16745310 heartbeat IPC: 2.39397 cumulative IPC: 2.38873 (Simulation time: 0 hr 7 min 6 sec) 
Heartbeat CPU 3 instructions: 30000001 cycles: 17407812 heartbeat IPC: 1.72339 cumulative IPC: 1.72336 (Simulation time: 0 hr 7 min 22 sec) 
Heartbeat CPU 1 instructions: 40000000 cycles: 20915002 heartbeat IPC: 1.91261 cumulative IPC: 1.9125 (Simulation time: 0 hr 8 min 52 sec) 
Heartbeat CPU 2 instructions: 50000001 cycles: 20918902 heartbeat IPC: 2.39602 cumulative IPC: 2.39018 (Simulation time: 0 hr 8 min 52 sec) 
Heartbeat CPU 0 instructions: 30000001 cycles: 22062277 heartbeat IPC: 1.36068 cumulative IPC: 1.35979 (Simulation time: 0 hr 9 min 21 sec) 
Heartbeat CPU 3 instructions: 40000000 cycles: 23209663 heartbeat IPC: 1.72359 cumulative IPC: 1.72342 (Simulation time: 0 hr 9 min 50 sec) 
Heartbeat CPU 2 instructions: 60000000 cycles: 25105435 heartbeat IPC: 2.38861 cumulative IPC: 2.38992 (Simulation time: 0 hr 10 min 38 sec) 
Heartbeat CPU 1 instructions: 50000002 cycles: 26143885 heartbeat IPC: 1.91245 cumulative IPC: 1.91249 (Simulation time: 0 hr 11 min 4 sec) 
Heartbeat CPU 3 instructions: 50000001 cycles: 29012726 heartbeat IPC: 1.72323 cumulative IPC: 1.72338 (Simulation time: 0 hr 12 min 17 sec) 
Heartbeat CPU 2 instructions: 70000003 cycles: 29292780 heartbeat IPC: 2.38815 cumulative IPC: 2.38967 (Simulation time: 0 hr 12 min 24 sec) 
Heartbeat CPU 0 instructions: 40000000 cycles: 29420814 heartbeat IPC: 1.35897 cumulative IPC: 1.35958 (Simulation time: 0 hr 12 min 27 sec) 
Heartbeat CPU 1 instructions: 60000000 cycles: 31372579 heartbeat IPC: 1.91252 cumulative IPC: 1.9125 (Simulation time: 0 hr 13 min 13 sec) 
Heartbeat CPU 2 instructions: 80000000 cycles: 33485879 heartbeat IPC: 2.38487 cumulative IPC: 2.38907 (Simulation time: 0 hr 14 min 2 sec) 
Heartbeat CPU 3 instructions: 60000000 cycles: 34815446 heartbeat IPC: 1.72333 cumulative IPC: 1.72337 (Simulation time: 0 hr 14 min 33 sec) 
Heartbeat CPU 1 instructions: 70000001 cycles: 36601416 heartbeat IPC: 1.91247 cumulative IPC: 1.91249 (Simulation time: 0 hr 15 min 15 sec) 
Heartbeat CPU 0 instructions: 50000000 cycles: 36779420 heartbeat IPC: 1.35895 cumulative IPC: 1.35946 (Simulation time: 0 hr 15 min 19 sec) 
Heartbeat CPU 2 instructions: 90000000 cycles: 37674158 heartbeat IPC: 2.38762 cumulative IPC: 2.38891 (Simulation time: 0 hr 15 min 40 sec) 
Heartbeat CPU 3 instructions: 70000002 cycles: 40617830 heartbeat IPC: 1.72343 cumulative IPC: 1.72338 (Simulation time: 0 hr 16 min 50 sec) 
Heartbeat CPU 1 instructions: 80000000 cycles: 41830219 heartbeat IPC: 1.91248 cumulative IPC: 1.91249 (Simulation time: 0 hr 17 min 18 sec) 
Heartbeat CPU 2 instructions: 100000000 cycles: 41859095 heartbeat IPC: 2.38952 cumulative IPC: 2.38897 (Simulation time: 0 hr 17 min 19 sec) 
Heartbeat CPU 0 instructions: 60000000 cycles: 44145076 heartbeat IPC: 1.35765 cumulative IPC: 1.35915 (Simulation time: 0 hr 18 min 13 sec) 
Heartbeat CPU 2 instructions: 110000001 cycles: 46034002 heartbeat IPC: 2.39526 cumulative IPC: 2.38954 (Simulation time: 0 hr 18 min 57 sec) 
Heartbeat CPU 3 instructions: 80000000 cycles: 46419719 heartbeat IPC: 1.72358 cumulative IPC: 1.72341 (Simulation time: 0 hr 19 min 6 sec) 
Heartbeat CPU 1 instructions: 90000002 cycles: 47059190 heartbeat IPC: 1.91242 cumulative IPC: 1.91249 (Simulation time: 0 hr 19 min 21 sec) 
Heartbeat CPU 2 instructions: 120000000 cycles: 50208637 heartbeat IPC: 2.39542 cumulative IPC: 2.39003 (Simulation time: 0 hr 20 min 36 sec) 
Heartbeat CPU 0 instructions: 70000000 cycles: 51499798 heartbeat IPC: 1.35967 cumulative IPC: 1.35923 (Simulation time: 0 hr 21 min 6 sec) 
Heartbeat CPU 3 instructions: 90000000 cycles: 52223213 heartbeat IPC: 1.7231 cumulative IPC: 1.72337 (Simulation time: 0 hr 21 min 24 sec) 
Heartbeat CPU 1 instructions: 100000000 cycles: 52287889 heartbeat IPC: 1.91252 cumulative IPC: 1.91249 (Simulation time: 0 hr 21 min 25 sec) 
Heartbeat CPU 2 instructions: 130000001 cycles: 54395304 heartbeat IPC: 2.38854 cumulative IPC: 2.38991 (Simulation time: 0 hr 22 min 13 sec) 
Heartbeat CPU 1 instructions: 110000000 cycles: 57516582 heartbeat IPC: 1.91252 cumulative IPC: 1.91249 (Simulation time: 0 hr 23 min 31 sec) 
Heartbeat CPU 3 instructions: 100000000 cycles: 58025541 heartbeat IPC: 1.72345 cumulative IPC: 1.72338 (Simulation time: 0 hr 23 min 47 sec) 
Heartbeat CPU 2 instructions: 140000000 cycles: 58584682 heartbeat IPC: 2.38699 cumulative IPC: 2.3897 (Simulation time: 0 hr 24 min 1 sec) 
Heartbeat CPU 0 instructions: 80000000 cycles: 58848463 heartbeat IPC: 1.36079 cumulative IPC: 1.35942 (Simulation time: 0 hr 24 min 8 sec) 
Heartbeat CPU 1 instructions: 120000000 cycles: 62745279 heartbeat IPC: 1.91252 cumulative IPC: 1.91249 (Simulation time: 0 hr 25 min 46 sec) 
Heartbeat CPU 2 instructions: 150000002 cycles: 62778211 heartbeat IPC: 2.38463 cumulative IPC: 2.38936 (Simulation time: 0 hr 25 min 47 sec) 
Heartbeat CPU 3 instructions: 110000002 cycles: 63827669 heartbeat IPC: 1.72351 cumulative IPC: 1.72339 (Simulation time: 0 hr 26 min 13 sec) 
Heartbeat CPU 0 instructions: 90000000 cycles: 66199883 heartbeat IPC: 1.36028 cumulative IPC: 1.35952 (Simulation time: 0 hr 27 min 13 sec) 
Heartbeat CPU 2 instructions: 160000000 cycles: 66962915 heartbeat IPC: 2.38965 cumulative IPC: 2.38938 (Simulation time: 0 hr 27 min 32 sec) 
Heartbeat CPU 1 instructions: 130000001 cycles: 67974177 heartbeat IPC: 1.91245 cumulative IPC: 1.91249 (Simulation time: 0 hr 27 min 57 sec) 
Heartbeat CPU 3 instructions: 120000000 cycles: 69629748 heartbeat IPC: 1.72352 cumulative IPC: 1.7234 (Simulation time: 0 hr 28 min 39 sec) 
Heartbeat CPU 2 instructions: 170000001 cycles: 71144206 heartbeat IPC: 2.39161 cumulative IPC: 2.38951 (Simulation time: 0 hr 29 min 17 sec) 
Heartbeat CPU 1 instructions: 140000000 cycles: 73202478 heartbeat IPC: 1.91267 cumulative IPC: 1.9125 (Simulation time: 0 hr 30 min 10 sec) 
Heartbeat CPU 0 instructions: 100000000 cycles: 73570645 heartbeat IPC: 1.35671 cumulative IPC: 1.35924 (Simulation time: 0 hr 30 min 20 sec) 
Heartbeat CPU 2 instructions: 180000000 cycles: 75315605 heartbeat IPC: 2.39728 cumulative IPC: 2.38994 (Simulation time: 0 hr 31 min 7 sec) 
Heartbeat CPU 3 instructions: 130000003 cycles: 75432783 heartbeat IPC: 1.72324 cumulative IPC: 1.72339 (Simulation time: 0 hr 31 min 12 sec) 
Heartbeat CPU 1 instructions: 150000000 cycles: 78431256 heartbeat IPC: 1.91249 cumulative IPC: 1.9125 (Simulation time: 0 hr 32 min 31 sec) 
Heartbeat CPU 2 instructions: 190000003 cycles: 79493355 heartbeat IPC: 2.39363 cumulative IPC: 2.39014 (Simulation time: 0 hr 32 min 59 sec) 
Heartbeat CPU 0 instructions: 110000003 cycles: 80905197 heartbeat IPC: 1.36341 cumulative IPC: 1.35962 (Simulation time: 0 hr 33 min 34 sec) 
Heartbeat CPU 3 instructions: 140000000 cycles: 81234660 heartbeat IPC: 1.72358 cumulative IPC: 1.7234 (Simulation time: 0 hr 33 min 43 sec) 
Heartbeat CPU 1 instructions: 160000000 cycles: 83660001 heartbeat IPC: 1.9125 cumulative IPC: 1.9125 (Simulation time: 0 hr 34 min 44 sec) 
Heartbeat CPU 2 instructions: 200000000 cycles: 83679765 heartbeat IPC: 2.38868 cumulative IPC: 2.39006 (Simulation time: 0 hr 34 min 44 sec) 
Heartbeat CPU 3 instructions: 150000001 cycles: 87037114 heartbeat IPC: 1.72341 cumulative IPC: 1.7234 (Simulation time: 0 hr 36 min 9 sec) 
Heartbeat CPU 2 instructions: 210000001 cycles: 87869516 heartbeat IPC: 2.38678 cumulative IPC: 0.113805 (Simulation time: 0 hr 36 min 30 sec) 
Heartbeat CPU 0 instructions: 120000000 cycles: 88259740 heartbeat IPC: 1.3597 cumulative IPC: 1.35962 (Simulation time: 0 hr 36 min 40 sec) 
Heartbeat CPU 1 instructions: 170000002 cycles: 88888708 heartbeat IPC: 1.91252 cumulative IPC: 1.9125 (Simulation time: 0 hr 36 min 55 sec) 
Heartbeat CPU 2 instructions: 220000000 cycles: 92060305 heartbeat IPC: 2.38619 cumulative IPC: 0.217249 (Simulation time: 0 hr 38 min 15 sec) 
Heartbeat CPU 3 instructions: 160000000 cycles: 92839145 heartbeat IPC: 1.72353 cumulative IPC: 1.72341 (Simulation time: 0 hr 38 min 35 sec) 
Heartbeat CPU 1 instructions: 180000000 cycles: 94118000 heartbeat IPC: 1.9123 cumulative IPC: 1.91249 (Simulation time: 0 hr 39 min 6 sec) 
Heartbeat CPU 0 instructions: 130000000 cycles: 95597787 heartbeat IPC: 1.36276 cumulative IPC: 1.35986 (Simulation time: 0 hr 39 min 41 sec) 
Heartbeat CPU 2 instructions: 230000003 cycles: 96244691 heartbeat IPC: 2.38984 cumulative IPC: 0.311706 (Simulation time: 0 hr 39 min 56 sec) 
Heartbeat CPU 3 instructions: 170000000 cycles: 98641706 heartbeat IPC: 1.72338 cumulative IPC: 1.72341 (Simulation time: 0 hr 40 min 53 sec) 
Heartbeat CPU 1 instructions: 190000003 cycles: 99346806 heartbeat IPC: 1.91248 cumulative IPC: 1.91249 (Simulation time: 0 hr 41 min 10 sec) 
Heartbeat CPU 2 instructions: 240000000 cycles: 100423481 heartbeat IPC: 2.39304 cumulative IPC: 0.398313 (Simulation time: 0 hr 41 min 36 sec) 
Heartbeat CPU 0 instructions: 140000000 cycles: 102960964 heartbeat IPC: 1.35811 cumulative IPC: 1.35974 (Simulation time: 0 hr 42 min 39 sec) 
Heartbeat CPU 3 instructions: 180000000 cycles: 104443523 heartbeat IPC: 1.7236 cumulative IPC: 1.72342 (Simulation time: 0 hr 43 min 17 sec) 
Heartbeat CPU 1 instructions: 200000000 cycles: 104575131 heartbeat IPC: 1.91266 cumulative IPC: 1.9125 (Simulation time: 0 hr 43 min 20 sec) 
Heartbeat CPU 2 instructions: 250000000 cycles: 104596445 heartbeat IPC: 2.39638 cumulative IPC: 0.478028 (Simulation time: 0 hr 43 min 21 sec) 
Heartbeat CPU 2 instructions: 260000000 cycles: 108778423 heartbeat IPC: 2.39121 cumulative IPC: 0.55158 (Simulation time: 0 hr 45 min 6 sec) 
Heartbeat CPU 1 instructions: 210000003 cycles: 109803981 heartbeat IPC: 1.91247 cumulative IPC: 0.0910714 (Simulation time: 0 hr 45 min 32 sec) 
Heartbeat CPU 3 instructions: 190000002 cycles: 110246575 heartbeat IPC: 1.72323 cumulative IPC: 1.72341 (Simulation time: 0 hr 45 min 43 sec) 
Heartbeat CPU 0 instructions: 150000001 cycles: 110331508 heartbeat IPC: 1.35675 cumulative IPC: 1.35954 (Simulation time: 0 hr 45 min 45 sec) 
Heartbeat CPU 2 instructions: 270000000 cycles: 112964065 heartbeat IPC: 2.38912 cumulative IPC: 0.619666 (Simulation time: 0 hr 46 min 51 sec) 
Heartbeat CPU 1 instructions: 220000000 cycles: 115032770 heartbeat IPC: 1.91249 cumulative IPC: 0.173864 (Simulation time: 0 hr 47 min 43 sec) 
Heartbeat CPU 3 instructions: 200000000 cycles: 116048415 heartbeat IPC: 1.72359 cumulative IPC: 1.72342 (Simulation time: 0 hr 48 min 9 sec) 
Heartbeat CPU 2 instructions: 280000000 cycles: 117158284 heartbeat IPC: 2.38423 cumulative IPC: 0.682837 (Simulation time: 0 hr 48 min 37 sec) 
Heartbeat CPU 0 instructions: 160000000 cycles: 117707331 heartbeat IPC: 1.35578 cumulative IPC: 1.3593 (Simulation time: 0 hr 48 min 51 sec) 
Heartbeat CPU 1 instructions: 230000003 cycles: 120261259 heartbeat IPC: 1.9126 cumulative IPC: 0.249457 (Simulation time: 0 hr 49 min 57 sec) 
Heartbeat CPU 2 instructions: 290000001 cycles: 121347088 heartbeat IPC: 2.38732 cumulative IPC: 0.741674 (Simulation time: 0 hr 50 min 24 sec) 
Heartbeat CPU 3 instructions: 210000000 cycles: 121851087 heartbeat IPC: 1.72334 cumulative IPC: 0.0820674 (Simulation time: 0 hr 50 min 37 sec) 
Heartbeat CPU 0 instructions: 170000003 cycles: 125060801 heartbeat IPC: 1.3599 cumulative IPC: 1.35934 (Simulation time: 0 hr 51 min 58 sec) 
Heartbeat CPU 1 instructions: 240000000 cycles: 125489818 heartbeat IPC: 1.91257 cumulative IPC: 0.318751 (Simulation time: 0 hr 52 min 9 sec) 
Heartbeat CPU 2 instructions: 300000000 cycles: 125528980 heartbeat IPC: 2.39126 cumulative IPC: 0.796629 (Simulation time: 0 hr 52 min 10 sec) 
Heartbeat CPU 3 instructions: 220000000 cycles: 127653589 heartbeat IPC: 1.72339 cumulative IPC: 0.156674 (Simulation time: 0 hr 53 min 3 sec) 
Heartbeat CPU 2 instructions: 310000000 cycles: 129703806 heartbeat IPC: 2.39531 cumulative IPC: 0.848086 (Simulation time: 0 hr 53 min 55 sec) 
Heartbeat CPU 1 instructions: 250000003 cycles: 130718836 heartbeat IPC: 1.91241 cumulative IPC: 0.3825 (Simulation time: 0 hr 54 min 21 sec) 
Heartbeat CPU 0 instructions: 180000000 cycles: 132424271 heartbeat IPC: 1.35805 cumulative IPC: 1.35927 (Simulation time: 0 hr 55 min 4 sec) 
Heartbeat CPU 3 instructions: 230000000 cycles: 133456228 heartbeat IPC: 1.72335 cumulative IPC: 0.224793 (Simulation time: 0 hr 55 min 30 sec) 
Heartbeat CPU 2 instructions: 320000000 cycles: 133877343 heartbeat IPC: 2.39605 cumulative IPC: 0.896343 (Simulation time: 0 hr 55 min 41 sec) 
Heartbeat CPU 1 instructions: 260000000 cycles: 135947439 heartbeat IPC: 1.91256 cumulative IPC: 0.441347 (Simulation time: 0 hr 56 min 33 sec) 
Heartbeat CPU 2 instructions: 330000002 cycles: 138063898 heartbeat IPC: 2.3886 cumulative IPC: 0.941593 (Simulation time: 0 hr 57 min 26 sec) 
Heartbeat CPU 3 instructions: 240000000 cycles: 139258413 heartbeat IPC: 1.72349 cumulative IPC: 0.287236 (Simulation time: 0 hr 57 min 56 sec) 
Heartbeat CPU 0 instructions: 190000002 cycles: 139771842 heartbeat IPC: 1.36099 cumulative IPC: 1.35936 (Simulation time: 0 hr 58 min 9 sec) 
Heartbeat CPU 1 instructions: 270000000 cycles: 141175888 heartbeat IPC: 1.91261 cumulative IPC: 0.495835 (Simulation time: 0 hr 58 min 44 sec) 
Heartbeat CPU 2 instructions: 340000000 cycles: 142252627 heartbeat IPC: 2.38736 cumulative IPC: 0.984165 (Simulation time: 0 hr 59 min 11 sec) 
Heartbeat CPU 3 instructions: 250000003 cycles: 145060615 heartbeat IPC: 1.72348 cumulative IPC: 0.344684 (Simulation time: 1 hr 0 min 22 sec) 
Heartbeat CPU 1 instructions: 280000000 cycles: 146404981 heartbeat IPC: 1.91238 cumulative IPC: 0.54643 (Simulation time: 1 hr 0 min 55 sec) 
Heartbeat CPU 2 instructions: 350000000 cycles: 146446339 heartbeat IPC: 2.38452 cumulative IPC: 1.02427 (Simulation time: 1 hr 0 min 56 sec) 
Heartbeat CPU 0 instructions: 200000000 cycles: 147122789 heartbeat IPC: 1.36037 cumulative IPC: 1.35941 (Simulation time: 1 hr 1 min 13 sec) 

Warmup complete CPU 0 instructions: 200000001 cycles: 147122791 (Simulation time: 1 hr 1 min 13 sec) 
Warmup complete CPU 1 instructions: 281372673 cycles: 147122790 (Simulation time: 1 hr 1 min 13 sec) 
Warmup complete CPU 2 instructions: 351613707 cycles: 147122790 (Simulation time: 1 hr 1 min 13 sec) 
Warmup complete CPU 3 instructions: 253553921 cycles: 147122790 (Simulation time: 1 hr 1 min 13 sec) 

Heartbeat CPU 3 instructions: 260000000 cycles: 153493843 heartbeat IPC: 1.18579 cumulative IPC: 1.01178 (Simulation time: 1 hr 2 min 43 sec) 
Heartbeat CPU 2 instructions: 360000000 cycles: 154498658 heartbeat IPC: 1.24188 cumulative IPC: 1.13699 (Simulation time: 1 hr 2 min 57 sec) 
Heartbeat CPU 1 instructions: 290000002 cycles: 155161073 heartbeat IPC: 1.14206 cumulative IPC: 1.07328 (Simulation time: 1 hr 3 min 7 sec) 
Heartbeat CPU 3 instructions: 270000003 cycles: 163347203 heartbeat IPC: 1.01488 cumulative IPC: 1.01366 (Simulation time: 1 hr 5 min 19 sec) 
Heartbeat CPU 2 instructions: 370000003 cycles: 163367259 heartbeat IPC: 1.12757 cumulative IPC: 1.13185 (Simulation time: 1 hr 5 min 19 sec) 
Heartbeat CPU 1 instructions: 300000000 cycles: 164513198 heartbeat IPC: 1.06928 cumulative IPC: 1.07113 (Simulation time: 1 hr 5 min 37 sec) 
Heartbeat CPU 2 instructions: 380000000 cycles: 172271118 heartbeat IPC: 1.12311 cumulative IPC: 1.12875 (Simulation time: 1 hr 7 min 35 sec) 
Heartbeat CPU 3 instructions: 280000000 cycles: 173210264 heartbeat IPC: 1.01388 cumulative IPC: 1.01375 (Simulation time: 1 hr 7 min 52 sec) 
Heartbeat CPU 1 instructions: 310000003 cycles: 173849344 heartbeat IPC: 1.07111 cumulative IPC: 1.07112 (Simulation time: 1 hr 8 min 1 sec) 
Heartbeat CPU 2 instructions: 390000003 cycles: 181135173 heartbeat IPC: 1.12815 cumulative IPC: 1.1286 (Simulation time: 1 hr 9 min 44 sec) 
Heartbeat CPU 3 instructions: 290000001 cycles: 183114304 heartbeat IPC: 1.00969 cumulative IPC: 1.01263 (Simulation time: 1 hr 10 min 11 sec) 
Heartbeat CPU 1 instructions: 320000000 cycles: 183176431 heartbeat IPC: 1.07215 cumulative IPC: 1.07138 (Simulation time: 1 hr 10 min 12 sec) 
Heartbeat CPU 2 instructions: 400000000 cycles: 189976352 heartbeat IPC: 1.13107 cumulative IPC: 1.12911 (Simulation time: 1 hr 11 min 47 sec) 
Heartbeat CPU 1 instructions: 330000000 cycles: 192480231 heartbeat IPC: 1.07483 cumulative IPC: 1.07209 (Simulation time: 1 hr 12 min 21 sec) 
Heartbeat CPU 3 instructions: 300000000 cycles: 192998973 heartbeat IPC: 1.01167 cumulative IPC: 1.01242 (Simulation time: 1 hr 12 min 28 sec) 
Heartbeat CPU 0 instructions: 210000003 cycles: 195239928 heartbeat IPC: 0.207826 cumulative IPC: 0.207826 (Simulation time: 1 hr 12 min 59 sec) 
Heartbeat CPU 2 instructions: 410000000 cycles: 198855699 heartbeat IPC: 1.12621 cumulative IPC: 1.12861 (Simulation time: 1 hr 13 min 47 sec) 
Heartbeat CPU 1 instructions: 340000000 cycles: 201824283 heartbeat IPC: 1.0702 cumulative IPC: 1.07177 (Simulation time: 1 hr 14 min 26 sec) 
Heartbeat CPU 3 instructions: 310000003 cycles: 202940768 heartbeat IPC: 1.00585 cumulative IPC: 1.01125 (Simulation time: 1 hr 14 min 41 sec) 
Heartbeat CPU 2 instructions: 420000000 cycles: 207710226 heartbeat IPC: 1.12937 cumulative IPC: 1.12872 (Simulation time: 1 hr 15 min 43 sec) 
Heartbeat CPU 1 instructions: 350000000 cycles: 211147725 heartbeat IPC: 1.07257 cumulative IPC: 1.07188 (Simulation time: 1 hr 16 min 29 sec) 
Heartbeat CPU 3 instructions: 320000000 cycles: 212858765 heartbeat IPC: 1.00827 cumulative IPC: 1.0108 (Simulation time: 1 hr 16 min 51 sec) 
Heartbeat CPU 2 instructions: 430000001 cycles: 216605582 heartbeat IPC: 1.12418 cumulative IPC: 1.12814 (Simulation time: 1 hr 17 min 43 sec) 
Heartbeat CPU 1 instructions: 360000000 cycles: 220497124 heartbeat IPC: 1.06959 cumulative IPC: 1.07159 (Simulation time: 1 hr 18 min 37 sec) 
Heartbeat CPU 3 instructions: 330000000 cycles: 222742174 heartbeat IPC: 1.0118 cumulative IPC: 1.01093 (Simulation time: 1 hr 19 min 8 sec) 
Heartbeat CPU 2 instructions: 440000000 cycles: 225505192 heartbeat IPC: 1.12364 cumulative IPC: 1.12763 (Simulation time: 1 hr 19 min 46 sec) 
Heartbeat CPU 1 instructions: 370000000 cycles: 229840842 heartbeat IPC: 1.07024 cumulative IPC: 1.07144 (Simulation time: 1 hr 20 min 46 sec) 
Heartbeat CPU 3 instructions: 340000000 cycles: 232622111 heartbeat IPC: 1.01215 cumulative IPC: 1.01107 (Simulation time: 1 hr 21 min 23 sec) 
Heartbeat CPU 2 instructions: 450000002 cycles: 234389609 heartbeat IPC: 1.12557 cumulative IPC: 1.12742 (Simulation time: 1 hr 21 min 47 sec) 
Heartbeat CPU 1 instructions: 380000000 cycles: 239172021 heartbeat IPC: 1.07168 cumulative IPC: 1.07146 (Simulation time: 1 hr 22 min 50 sec) 
Heartbeat CPU 3 instructions: 350000002 cycles: 242486035 heartbeat IPC: 1.0138 cumulative IPC: 1.01135 (Simulation time: 1 hr 23 min 33 sec) 
Heartbeat CPU 2 instructions: 460000000 cycles: 243261841 heartbeat IPC: 1.12711 cumulative IPC: 1.12739 (Simulation time: 1 hr 23 min 43 sec) 
Heartbeat CPU 0 instructions: 220000000 cycles: 243324630 heartbeat IPC: 0.207966 cumulative IPC: 0.207896 (Simulation time: 1 hr 23 min 44 sec) 
Heartbeat CPU 1 instructions: 390000001 cycles: 248527810 heartbeat IPC: 1.06886 cumulative IPC: 1.07122 (Simulation time: 1 hr 24 min 57 sec) 
Heartbeat CPU 2 instructions: 470000002 cycles: 252154478 heartbeat IPC: 1.12453 cumulative IPC: 1.12715 (Simulation time: 1 hr 25 min 47 sec) 
Heartbeat CPU 3 instructions: 360000000 cycles: 252369108 heartbeat IPC: 1.01183 cumulative IPC: 1.0114 (Simulation time: 1 hr 25 min 50 sec) 
Heartbeat CPU 1 instructions: 400000000 cycles: 257849657 heartbeat IPC: 1.07275 cumulative IPC: 1.07135 (Simulation time: 1 hr 27 min 6 sec) 
Heartbeat CPU 2 instructions: 480000000 cycles: 261015054 heartbeat IPC: 1.12859 cumulative IPC: 1.12726 (Simulation time: 1 hr 27 min 50 sec) 
Heartbeat CPU 3 instructions: 370000003 cycles: 262263344 heartbeat IPC: 1.01069 cumulative IPC: 1.01134 (Simulation time: 1 hr 28 min 7 sec) 
Heartbeat CPU 1 instructions: 410000002 cycles: 267165777 heartbeat IPC: 1.07341 cumulative IPC: 1.07151 (Simulation time: 1 hr 29 min 15 sec) 
Heartbeat CPU 2 instructions: 490000003 cycles: 269881583 heartbeat IPC: 1.12784 cumulative IPC: 1.1273 (Simulation time: 1 hr 29 min 53 sec) 
Heartbeat CPU 3 instructions: 380000000 cycles: 272118601 heartbeat IPC: 1.01469 cumulative IPC: 1.0116 (Simulation time: 1 hr 30 min 24 sec) 
Heartbeat CPU 1 instructions: 420000000 cycles: 276502782 heartbeat IPC: 1.07101 cumulative IPC: 1.07147 (Simulation time: 1 hr 31 min 25 sec) 
Heartbeat CPU 2 instructions: 500000000 cycles: 278678940 heartbeat IPC: 1.1367 cumulative IPC: 1.12793 (Simulation time: 1 hr 31 min 55 sec) 
Heartbeat CPU 3 instructions: 390000003 cycles: 282119011 heartbeat IPC: 0.999959 cumulative IPC: 1.01074 (Simulation time: 1 hr 32 min 43 sec) 
Heartbeat CPU 1 instructions: 430000001 cycles: 285825415 heartbeat IPC: 1.07266 cumulative IPC: 1.07155 (Simulation time: 1 hr 33 min 34 sec) 
Heartbeat CPU 2 instructions: 510000002 cycles: 287496013 heartbeat IPC: 1.13416 cumulative IPC: 1.12832 (Simulation time: 1 hr 33 min 57 sec) 
Heartbeat CPU 0 instructions: 230000002 cycles: 290546305 heartbeat IPC: 0.211767 cumulative IPC: 0.209171 (Simulation time: 1 hr 34 min 40 sec) 
Heartbeat CPU 3 instructions: 400000000 cycles: 292062985 heartbeat IPC: 1.00563 cumulative IPC: 1.01039 (Simulation time: 1 hr 35 min 1 sec) 
Heartbeat CPU 1 instructions: 440000000 cycles: 295154310 heartbeat IPC: 1.07194 cumulative IPC: 1.07158 (Simulation time: 1 hr 35 min 44 sec) 
Heartbeat CPU 2 instructions: 520000000 cycles: 296349432 heartbeat IPC: 1.12951 cumulative IPC: 1.12839 (Simulation time: 1 hr 36 min 0 sec) 
Heartbeat CPU 3 instructions: 410000002 cycles: 301914578 heartbeat IPC: 1.01506 cumulative IPC: 1.01069 (Simulation time: 1 hr 37 min 18 sec) 
Heartbeat CPU 1 instructions: 450000000 cycles: 304483870 heartbeat IPC: 1.07186 cumulative IPC: 1.07159 (Simulation time: 1 hr 37 min 53 sec) 
Heartbeat CPU 2 instructions: 530000001 cycles: 305201871 heartbeat IPC: 1.12963 cumulative IPC: 1.12846 (Simulation time: 1 hr 38 min 3 sec) 
Heartbeat CPU 3 instructions: 420000000 cycles: 311773960 heartbeat IPC: 1.01426 cumulative IPC: 1.0109 (Simulation time: 1 hr 39 min 35 sec) 
Heartbeat CPU 1 instructions: 460000000 cycles: 313840444 heartbeat IPC: 1.06877 cumulative IPC: 1.07144 (Simulation time: 1 hr 40 min 3 sec) 
Heartbeat CPU 2 instructions: 540000000 cycles: 314110248 heartbeat IPC: 1.12254 cumulative IPC: 1.12815 (Simulation time: 1 hr 40 min 7 sec) 
Heartbeat CPU 3 instructions: 430000000 cycles: 321660218 heartbeat IPC: 1.01151 cumulative IPC: 1.01094 (Simulation time: 1 hr 41 min 48 sec) 
Heartbeat CPU 2 instructions: 550000003 cycles: 322959406 heartbeat IPC: 1.13005 cumulative IPC: 1.12824 (Simulation time: 1 hr 42 min 5 sec) 
Heartbeat CPU 1 instructions: 470000001 cycles: 323153547 heartbeat IPC: 1.07376 cumulative IPC: 1.07156 (Simulation time: 1 hr 42 min 8 sec) 
Heartbeat CPU 3 instructions: 440000000 cycles: 331564690 heartbeat IPC: 1.00964 cumulative IPC: 1.01087 (Simulation time: 1 hr 43 min 58 sec) 
Heartbeat CPU 2 instructions: 560000000 cycles: 331828749 heartbeat IPC: 1.12748 cumulative IPC: 1.12821 (Simulation time: 1 hr 44 min 2 sec) 
Heartbeat CPU 1 instructions: 480000000 cycles: 332515430 heartbeat IPC: 1.06816 cumulative IPC: 1.07139 (Simulation time: 1 hr 44 min 11 sec) 
Heartbeat CPU 0 instructions: 240000000 cycles: 338697135 heartbeat IPC: 0.207681 cumulative IPC: 0.208796 (Simulation time: 1 hr 45 min 33 sec) 
Heartbeat CPU 2 instructions: 570000001 cycles: 340668501 heartbeat IPC: 1.13125 cumulative IPC: 1.12834 (Simulation time: 1 hr 45 min 58 sec) 
Heartbeat CPU 3 instructions: 450000001 cycles: 341432955 heartbeat IPC: 1.01335 cumulative IPC: 1.01099 (Simulation time: 1 hr 46 min 9 sec) 
Heartbeat CPU 1 instructions: 490000001 cycles: 341842651 heartbeat IPC: 1.07213 cumulative IPC: 1.07142 (Simulation time: 1 hr 46 min 14 sec) 
Heartbeat CPU 2 instructions: 580000000 cycles: 349565467 heartbeat IPC: 1.12398 cumulative IPC: 1.12815 (Simulation time: 1 hr 47 min 55 sec) 
Heartbeat CPU 1 instructions: 500000000 cycles: 351201898 heartbeat IPC: 1.06846 cumulative IPC: 1.07129 (Simulation time: 1 hr 48 min 17 sec) 
Heartbeat CPU 3 instructions: 460000000 cycles: 351403144 heartbeat IPC: 1.00299 cumulative IPC: 1.0106 (Simulation time: 1 hr 48 min 19 sec) 
Heartbeat CPU 2 instructions: 590000001 cycles: 358512939 heartbeat IPC: 1.11763 cumulative IPC: 1.12771 (Simulation time: 1 hr 49 min 53 sec) 
Heartbeat CPU 1 instructions: 510000001 cycles: 360529733 heartbeat IPC: 1.07206 cumulative IPC: 1.07132 (Simulation time: 1 hr 50 min 20 sec) 
Heartbeat CPU 3 instructions: 470000002 cycles: 361259132 heartbeat IPC: 1.01461 cumulative IPC: 1.01079 (Simulation time: 1 hr 50 min 29 sec) 
Heartbeat CPU 2 instructions: 600000000 cycles: 367456477 heartbeat IPC: 1.11813 cumulative IPC: 1.12732 (Simulation time: 1 hr 51 min 51 sec) 
Heartbeat CPU 1 instructions: 520000000 cycles: 369857070 heartbeat IPC: 1.07212 cumulative IPC: 1.07135 (Simulation time: 1 hr 52 min 23 sec) 
Heartbeat CPU 3 instructions: 480000000 cycles: 371168176 heartbeat IPC: 1.00918 cumulative IPC: 1.01072 (Simulation time: 1 hr 52 min 40 sec) 
Heartbeat CPU 2 instructions: 610000003 cycles: 376320780 heartbeat IPC: 1.12812 cumulative IPC: 1.12735 (Simulation time: 1 hr 53 min 48 sec) 
Heartbeat CPU 1 instructions: 530000001 cycles: 379218898 heartbeat IPC: 1.06817 cumulative IPC: 1.07123 (Simulation time: 1 hr 54 min 27 sec) 
Heartbeat CPU 3 instructions: 490000003 cycles: 381028670 heartbeat IPC: 1.01415 cumulative IPC: 1.01086 (Simulation time: 1 hr 54 min 51 sec) 
Heartbeat CPU 2 instructions: 620000000 cycles: 385205714 heartbeat IPC: 1.1255 cumulative IPC: 1.12728 (Simulation time: 1 hr 55 min 46 sec) 
Heartbeat CPU 0 instructions: 250000000 cycles: 386450272 heartbeat IPC: 0.20941 cumulative IPC: 0.208919 (Simulation time: 1 hr 56 min 3 sec) 
Heartbeat CPU 1 instructions: 540000000 cycles: 388537354 heartbeat IPC: 1.07314 cumulative IPC: 1.0713 (Simulation time: 1 hr 56 min 31 sec) 
Heartbeat CPU 3 instructions: 500000000 cycles: 390902611 heartbeat IPC: 1.01277 cumulative IPC: 1.01094 (Simulation time: 1 hr 57 min 2 sec) 
Heartbeat CPU 2 instructions: 630000001 cycles: 394163563 heartbeat IPC: 1.11634 cumulative IPC: 1.12688 (Simulation time: 1 hr 57 min 45 sec) 
Heartbeat CPU 1 instructions: 550000000 cycles: 397901491 heartbeat IPC: 1.0679 cumulative IPC: 1.07117 (Simulation time: 1 hr 58 min 35 sec) 
Heartbeat CPU 3 instructions: 510000002 cycles: 400760894 heartbeat IPC: 1.01438 cumulative IPC: 1.01107 (Simulation time: 1 hr 59 min 13 sec) 
Heartbeat CPU 2 instructions: 640000000 cycles: 403071423 heartbeat IPC: 1.1226 cumulative IPC: 1.12674 (Simulation time: 1 hr 59 min 44 sec) 
Heartbeat CPU 1 instructions: 560000000 cycles: 407243623 heartbeat IPC: 1.07042 cumulative IPC: 1.07115 (Simulation time: 2 hr 0 min 39 sec) 
Heartbeat CPU 3 instructions: 520000000 cycles: 410655789 heartbeat IPC: 1.01062 cumulative IPC: 1.01105 (Simulation time: 2 hr 1 min 26 sec) 
Heartbeat CPU 2 instructions: 650000000 cycles: 411895308 heartbeat IPC: 1.13329 cumulative IPC: 1.12695 (Simulation time: 2 hr 1 min 43 sec) 
Heartbeat CPU 1 instructions: 570000001 cycles: 416561300 heartbeat IPC: 1.07323 cumulative IPC: 1.07122 (Simulation time: 2 hr 2 min 47 sec) 
Heartbeat CPU 3 instructions: 530000000 cycles: 420522528 heartbeat IPC: 1.01351 cumulative IPC: 1.01114 (Simulation time: 2 hr 3 min 43 sec) 
Heartbeat CPU 2 instructions: 660000000 cycles: 420773797 heartbeat IPC: 1.12632 cumulative IPC: 1.12693 (Simulation time: 2 hr 3 min 46 sec) 
Heartbeat CPU 1 instructions: 580000000 cycles: 425880801 heartbeat IPC: 1.07302 cumulative IPC: 1.07128 (Simulation time: 2 hr 4 min 57 sec) 
Heartbeat CPU 2 instructions: 670000001 cycles: 429671080 heartbeat IPC: 1.12394 cumulative IPC: 1.12684 (Simulation time: 2 hr 5 min 50 sec) 
Heartbeat CPU 3 instructions: 540000000 cycles: 430510272 heartbeat IPC: 1.00123 cumulative IPC: 1.01079 (Simulation time: 2 hr 6 min 2 sec) 
Heartbeat CPU 0 instructions: 260000000 cycles: 434233128 heartbeat IPC: 0.20928 cumulative IPC: 0.208979 (Simulation time: 2 hr 6 min 54 sec) 
Heartbeat CPU 1 instructions: 590000002 cycles: 435200293 heartbeat IPC: 1.07302 cumulative IPC: 1.07133 (Simulation time: 2 hr 7 min 7 sec) 
Heartbeat CPU 2 instructions: 680000000 cycles: 438552591 heartbeat IPC: 1.12593 cumulative IPC: 1.12681 (Simulation time: 2 hr 7 min 54 sec) 
Heartbeat CPU 3 instructions: 550000000 cycles: 440419517 heartbeat IPC: 1.00916 cumulative IPC: 1.01074 (Simulation time: 2 hr 8 min 20 sec) 
Heartbeat CPU 1 instructions: 600000000 cycles: 444531775 heartbeat IPC: 1.07164 cumulative IPC: 1.07134 (Simulation time: 2 hr 10 min 13 sec) 
Heartbeat CPU 2 instructions: 690000002 cycles: 447421115 heartbeat IPC: 1.12758 cumulative IPC: 1.12683 (Simulation time: 2 hr 11 min 37 sec) 
Heartbeat CPU 3 instructions: 560000000 cycles: 450273598 heartbeat IPC: 1.01481 cumulative IPC: 1.01087 (Simulation time: 2 hr 12 min 54 sec) 
Heartbeat CPU 1 instructions: 610000002 cycles: 453860678 heartbeat IPC: 1.07194 cumulative IPC: 1.07136 (Simulation time: 2 hr 14 min 38 sec) 
Heartbeat CPU 2 instructions: 700000000 cycles: 456362131 heartbeat IPC: 1.11844 cumulative IPC: 1.12659 (Simulation time: 2 hr 15 min 25 sec) 
Heartbeat CPU 3 instructions: 570000000 cycles: 460132992 heartbeat IPC: 1.01426 cumulative IPC: 1.01098 (Simulation time: 2 hr 16 min 24 sec) 
Heartbeat CPU 1 instructions: 620000000 cycles: 463180329 heartbeat IPC: 1.073 cumulative IPC: 1.07141 (Simulation time: 2 hr 17 min 13 sec) 
Heartbeat CPU 2 instructions: 710000002 cycles: 465302095 heartbeat IPC: 1.11857 cumulative IPC: 1.12637 (Simulation time: 2 hr 17 min 47 sec) 
Heartbeat CPU 3 instructions: 580000000 cycles: 470014938 heartbeat IPC: 1.01195 cumulative IPC: 1.01101 (Simulation time: 2 hr 19 min 6 sec) 
Heartbeat CPU 1 instructions: 630000000 cycles: 472531334 heartbeat IPC: 1.0694 cumulative IPC: 1.07135 (Simulation time: 2 hr 19 min 42 sec) 
Heartbeat CPU 2 instructions: 720000000 cycles: 474261769 heartbeat IPC: 1.11611 cumulative IPC: 1.12609 (Simulation time: 2 hr 20 min 6 sec) 
Heartbeat CPU 3 instructions: 590000003 cycles: 479907613 heartbeat IPC: 1.01085 cumulative IPC: 1.011 (Simulation time: 2 hr 21 min 25 sec) 
Heartbeat CPU 1 instructions: 640000000 cycles: 481889535 heartbeat IPC: 1.06858 cumulative IPC: 1.07128 (Simulation time: 2 hr 21 min 53 sec) 
Heartbeat CPU 0 instructions: 270000000 cycles: 482942302 heartbeat IPC: 0.2053 cumulative IPC: 0.208445 (Simulation time: 2 hr 22 min 8 sec) 
Heartbeat CPU 2 instructions: 730000001 cycles: 483185190 heartbeat IPC: 1.12065 cumulative IPC: 1.12594 (Simulation time: 2 hr 22 min 11 sec) 
Heartbeat CPU 3 instructions: 600000000 cycles: 489773823 heartbeat IPC: 1.01356 cumulative IPC: 1.01108 (Simulation time: 2 hr 23 min 42 sec) 
Heartbeat CPU 1 instructions: 650000000 cycles: 491196582 heartbeat IPC: 1.07445 cumulative IPC: 1.07136 (Simulation time: 2 hr 24 min 2 sec) 
Heartbeat CPU 2 instructions: 740000000 cycles: 492129680 heartbeat IPC: 1.11801 cumulative IPC: 1.12573 (Simulation time: 2 hr 24 min 15 sec) 
Heartbeat CPU 3 instructions: 610000000 cycles: 499670429 heartbeat IPC: 1.01045 cumulative IPC: 1.01106 (Simulation time: 2 hr 26 min 1 sec) 
Heartbeat CPU 1 instructions: 660000000 cycles: 500501471 heartbeat IPC: 1.0747 cumulative IPC: 1.07145 (Simulation time: 2 hr 26 min 12 sec) 
Heartbeat CPU 2 instructions: 750000000 cycles: 500979679 heartbeat IPC: 1.12994 cumulative IPC: 1.12584 (Simulation time: 2 hr 26 min 19 sec) 
Heartbeat CPU 3 instructions: 620000000 cycles: 509519508 heartbeat IPC: 1.01532 cumulative IPC: 1.01117 (Simulation time: 2 hr 28 min 17 sec) 
Heartbeat CPU 1 instructions: 670000001 cycles: 509848453 heartbeat IPC: 1.06986 cumulative IPC: 1.07141 (Simulation time: 2 hr 28 min 22 sec) 
Heartbeat CPU 2 instructions: 760000000 cycles: 509882591 heartbeat IPC: 1.12323 cumulative IPC: 1.12578 (Simulation time: 2 hr 28 min 22 sec) 
Heartbeat CPU 2 instructions: 770000002 cycles: 518806065 heartbeat IPC: 1.12064 cumulative IPC: 1.12565 (Simulation time: 2 hr 30 min 26 sec) 
Heartbeat CPU 1 instructions: 680000000 cycles: 519231285 heartbeat IPC: 1.06578 cumulative IPC: 1.07127 (Simulation time: 2 hr 30 min 32 sec) 
Heartbeat CPU 3 instructions: 630000003 cycles: 519373039 heartbeat IPC: 1.01486 cumulative IPC: 1.01127 (Simulation time: 2 hr 30 min 34 sec) 
Heartbeat CPU 2 instructions: 780000000 cycles: 527685194 heartbeat IPC: 1.12624 cumulative IPC: 1.12567 (Simulation time: 2 hr 32 min 29 sec) 
Heartbeat CPU 1 instructions: 690000002 cycles: 528572303 heartbeat IPC: 1.07055 cumulative IPC: 1.07125 (Simulation time: 2 hr 32 min 42 sec) 
Heartbeat CPU 3 instructions: 640000000 cycles: 529240548 heartbeat IPC: 1.01343 cumulative IPC: 1.01133 (Simulation time: 2 hr 32 min 51 sec) 
Heartbeat CPU 0 instructions: 280000000 cycles: 531314305 heartbeat IPC: 0.206731 cumulative IPC: 0.208229 (Simulation time: 2 hr 33 min 20 sec) 
Heartbeat CPU 2 instructions: 790000002 cycles: 536558558 heartbeat IPC: 1.12697 cumulative IPC: 1.1257 (Simulation time: 2 hr 34 min 32 sec) 
Heartbeat CPU 1 instructions: 700000000 cycles: 537896142 heartbeat IPC: 1.07252 cumulative IPC: 1.07128 (Simulation time: 2 hr 34 min 50 sec) 
Heartbeat CPU 3 instructions: 650000002 cycles: 539175165 heartbeat IPC: 1.00658 cumulative IPC: 1.01121 (Simulation time: 2 hr 35 min 8 sec) 
Heartbeat CPU 2 instructions: 800000000 cycles: 545457453 heartbeat IPC: 1.12373 cumulative IPC: 1.12565 (Simulation time: 2 hr 36 min 35 sec) 
Heartbeat CPU 1 instructions: 710000001 cycles: 547232824 heartbeat IPC: 1.07104 cumulative IPC: 1.07127 (Simulation time: 2 hr 36 min 59 sec) 
Heartbeat CPU 3 instructions: 660000000 cycles: 549060304 heartbeat IPC: 1.01162 cumulative IPC: 1.01122 (Simulation time: 2 hr 37 min 25 sec) 
Heartbeat CPU 2 instructions: 810000002 cycles: 554331771 heartbeat IPC: 1.12685 cumulative IPC: 1.12568 (Simulation time: 2 hr 38 min 51 sec) 
Heartbeat CPU 1 instructions: 720000000 cycles: 556579754 heartbeat IPC: 1.06987 cumulative IPC: 1.07124 (Simulation time: 2 hr 39 min 28 sec) 
Heartbeat CPU 3 instructions: 670000003 cycles: 558937542 heartbeat IPC: 1.01243 cumulative IPC: 1.01125 (Simulation time: 2 hr 40 min 1 sec) 
Heartbeat CPU 2 instructions: 820000000 cycles: 563205608 heartbeat IPC: 1.12691 cumulative IPC: 1.1257 (Simulation time: 2 hr 41 min 1 sec) 
Heartbeat CPU 1 instructions: 730000001 cycles: 565909994 heartbeat IPC: 1.07178 cumulative IPC: 1.07125 (Simulation time: 2 hr 41 min 38 sec) 
Heartbeat CPU 3 instructions: 680000000 cycles: 568824356 heartbeat IPC: 1.01145 cumulative IPC: 1.01125 (Simulation time: 2 hr 42 min 19 sec) 
Heartbeat CPU 2 instructions: 830000003 cycles: 572137310 heartbeat IPC: 1.11961 cumulative IPC: 1.12558 (Simulation time: 2 hr 43 min 4 sec) 
Heartbeat CPU 1 instructions: 740000000 cycles: 575247592 heartbeat IPC: 1.07094 cumulative IPC: 1.07125 (Simulation time: 2 hr 43 min 47 sec) 
Heartbeat CPU 3 instructions: 690000000 cycles: 578853653 heartbeat IPC: 0.997079 cumulative IPC: 1.01092 (Simulation time: 2 hr 44 min 37 sec) 
Heartbeat CPU 0 instructions: 290000000 cycles: 579580555 heartbeat IPC: 0.207184 cumulative IPC: 0.208113 (Simulation time: 2 hr 44 min 47 sec) 
Heartbeat CPU 2 instructions: 840000000 cycles: 581103437 heartbeat IPC: 1.11531 cumulative IPC: 1.12536 (Simulation time: 2 hr 45 min 8 sec) 
Heartbeat CPU 1 instructions: 750000003 cycles: 584581871 heartbeat IPC: 1.07132 cumulative IPC: 1.07125 (Simulation time: 2 hr 45 min 57 sec) 
Heartbeat CPU 3 instructions: 700000000 cycles: 588768900 heartbeat IPC: 1.00855 cumulative IPC: 1.01087 (Simulation time: 2 hr 47 min 58 sec) 
Heartbeat CPU 2 instructions: 850000000 cycles: 589939185 heartbeat IPC: 1.13177 cumulative IPC: 1.12549 (Simulation time: 2 hr 48 min 32 sec) 
Heartbeat CPU 1 instructions: 760000000 cycles: 593916545 heartbeat IPC: 1.07127 cumulative IPC: 1.07125 (Simulation time: 2 hr 50 min 28 sec) 
Heartbeat CPU 3 instructions: 710000000 cycles: 598653704 heartbeat IPC: 1.01165 cumulative IPC: 1.01089 (Simulation time: 2 hr 52 min 18 sec) 
Heartbeat CPU 2 instructions: 860000000 cycles: 598864596 heartbeat IPC: 1.1204 cumulative IPC: 1.12539 (Simulation time: 2 hr 52 min 21 sec) 
Heartbeat CPU 1 instructions: 770000001 cycles: 603262386 heartbeat IPC: 1.06999 cumulative IPC: 1.07122 (Simulation time: 2 hr 54 min 5 sec) 
Heartbeat CPU 2 instructions: 870000001 cycles: 607779035 heartbeat IPC: 1.12178 cumulative IPC: 1.12532 (Simulation time: 2 hr 56 min 18 sec) 
Heartbeat CPU 3 instructions: 720000000 cycles: 608500711 heartbeat IPC: 1.01554 cumulative IPC: 1.01098 (Simulation time: 2 hr 56 min 31 sec) 
Heartbeat CPU 1 instructions: 780000000 cycles: 612590110 heartbeat IPC: 1.07207 cumulative IPC: 1.07124 (Simulation time: 2 hr 57 min 33 sec) 
Heartbeat CPU 2 instructions: 880000000 cycles: 616654216 heartbeat IPC: 1.12674 cumulative IPC: 1.12535 (Simulation time: 2 hr 58 min 29 sec) 
Heartbeat CPU 3 instructions: 730000003 cycles: 618388024 heartbeat IPC: 1.0114 cumulative IPC: 1.01099 (Simulation time: 2 hr 58 min 53 sec) 
Heartbeat CPU 1 instructions: 790000003 cycles: 621931244 heartbeat IPC: 1.07053 cumulative IPC: 1.07123 (Simulation time: 2 hr 59 min 43 sec) 
Heartbeat CPU 2 instructions: 890000000 cycles: 625498889 heartbeat IPC: 1.13062 cumulative IPC: 1.12545 (Simulation time: 3 hr 0 min 32 sec) 
Heartbeat CPU 0 instructions: 300000000 cycles: 627752764 heartbeat IPC: 0.207589 cumulative IPC: 0.20806 (Simulation time: 3 hr 1 min 4 sec) 
Heartbeat CPU 3 instructions: 740000000 cycles: 628293618 heartbeat IPC: 1.00953 cumulative IPC: 1.01096 (Simulation time: 3 hr 1 min 11 sec) 
Heartbeat CPU 1 instructions: 800000000 cycles: 631271552 heartbeat IPC: 1.07063 cumulative IPC: 1.07121 (Simulation time: 3 hr 1 min 53 sec) 
Heartbeat CPU 2 instructions: 900000000 cycles: 634358426 heartbeat IPC: 1.12873 cumulative IPC: 1.12551 (Simulation time: 3 hr 2 min 37 sec) 
Heartbeat CPU 3 instructions: 750000003 cycles: 638162843 heartbeat IPC: 1.01325 cumulative IPC: 1.01101 (Simulation time: 3 hr 3 min 30 sec) 
Heartbeat CPU 1 instructions: 810000003 cycles: 640604068 heartbeat IPC: 1.07152 cumulative IPC: 1.07122 (Simulation time: 3 hr 4 min 22 sec) 
Heartbeat CPU 2 instructions: 910000002 cycles: 643166596 heartbeat IPC: 1.13531 cumulative IPC: 1.12568 (Simulation time: 3 hr 5 min 37 sec) 
Heartbeat CPU 3 instructions: 760000000 cycles: 648097573 heartbeat IPC: 1.00657 cumulative IPC: 1.01092 (Simulation time: 3 hr 7 min 56 sec) 
Heartbeat CPU 1 instructions: 820000000 cycles: 649898174 heartbeat IPC: 1.07595 cumulative IPC: 1.07131 (Simulation time: 3 hr 8 min 23 sec) 
Heartbeat CPU 2 instructions: 920000000 cycles: 651985709 heartbeat IPC: 1.1339 cumulative IPC: 1.12582 (Simulation time: 3 hr 8 min 52 sec) 
Heartbeat CPU 3 instructions: 770000002 cycles: 657983768 heartbeat IPC: 1.01151 cumulative IPC: 1.01093 (Simulation time: 3 hr 10 min 15 sec) 
Heartbeat CPU 1 instructions: 830000002 cycles: 659239510 heartbeat IPC: 1.07051 cumulative IPC: 1.07129 (Simulation time: 3 hr 10 min 34 sec) 
Heartbeat CPU 2 instructions: 930000003 cycles: 660826895 heartbeat IPC: 1.13107 cumulative IPC: 1.12591 (Simulation time: 3 hr 10 min 58 sec) 
Heartbeat CPU 3 instructions: 780000000 cycles: 667881191 heartbeat IPC: 1.01036 cumulative IPC: 1.01092 (Simulation time: 3 hr 12 min 49 sec) 
Heartbeat CPU 1 instructions: 840000000 cycles: 668579085 heartbeat IPC: 1.07071 cumulative IPC: 1.07128 (Simulation time: 3 hr 13 min 1 sec) 
Heartbeat CPU 2 instructions: 940000000 cycles: 669726966 heartbeat IPC: 1.12359 cumulative IPC: 1.12587 (Simulation time: 3 hr 13 min 18 sec) 
Heartbeat CPU 0 instructions: 310000000 cycles: 675254409 heartbeat IPC: 0.210519 cumulative IPC: 0.208281 (Simulation time: 3 hr 14 min 42 sec) 
Heartbeat CPU 3 instructions: 790000001 cycles: 677713536 heartbeat IPC: 1.01705 cumulative IPC: 1.01104 (Simulation time: 3 hr 15 min 22 sec) 
Heartbeat CPU 1 instructions: 850000001 cycles: 677893259 heartbeat IPC: 1.07363 cumulative IPC: 1.07132 (Simulation time: 3 hr 15 min 24 sec) 
Heartbeat CPU 2 instructions: 950000000 cycles: 678490560 heartbeat IPC: 1.14108 cumulative IPC: 1.12612 (Simulation time: 3 hr 15 min 33 sec) 
Heartbeat CPU 1 instructions: 860000000 cycles: 687218603 heartbeat IPC: 1.07235 cumulative IPC: 1.07134 (Simulation time: 3 hr 17 min 48 sec) 
Heartbeat CPU 2 instructions: 960000000 cycles: 687359692 heartbeat IPC: 1.12751 cumulative IPC: 1.12615 (Simulation time: 3 hr 17 min 50 sec) 
Heartbeat CPU 3 instructions: 800000000 cycles: 687600345 heartbeat IPC: 1.01145 cumulative IPC: 1.01104 (Simulation time: 3 hr 17 min 53 sec) 
Heartbeat CPU 2 instructions: 970000001 cycles: 696236555 heartbeat IPC: 1.12652 cumulative IPC: 1.12615 (Simulation time: 3 hr 19 min 53 sec) 
Heartbeat CPU 1 instructions: 870000001 cycles: 696570934 heartbeat IPC: 1.06925 cumulative IPC: 1.07131 (Simulation time: 3 hr 19 min 58 sec) 
Heartbeat CPU 3 instructions: 810000000 cycles: 697464756 heartbeat IPC: 1.01375 cumulative IPC: 1.01109 (Simulation time: 3 hr 20 min 10 sec) 
Heartbeat CPU 2 instructions: 980000000 cycles: 705173382 heartbeat IPC: 1.11897 cumulative IPC: 1.12604 (Simulation time: 3 hr 21 min 59 sec) 
Heartbeat CPU 1 instructions: 880000000 cycles: 705904686 heartbeat IPC: 1.07138 cumulative IPC: 1.07131 (Simulation time: 3 hr 22 min 9 sec) 
Heartbeat CPU 3 instructions: 820000000 cycles: 707348103 heartbeat IPC: 1.0118 cumulative IPC: 1.0111 (Simulation time: 3 hr 22 min 29 sec) 
Heartbeat CPU 2 instructions: 990000002 cycles: 714057216 heartbeat IPC: 1.12564 cumulative IPC: 1.12603 (Simulation time: 3 hr 24 min 2 sec) 
Heartbeat CPU 1 instructions: 890000000 cycles: 715246835 heartbeat IPC: 1.07042 cumulative IPC: 1.07129 (Simulation time: 3 hr 24 min 19 sec) 
Heartbeat CPU 3 instructions: 830000000 cycles: 717225037 heartbeat IPC: 1.01246 cumulative IPC: 1.01113 (Simulation time: 3 hr 24 min 46 sec) 
Heartbeat CPU 2 instructions: 1000000000 cycles: 723006831 heartbeat IPC: 1.11737 cumulative IPC: 1.1259 (Simulation time: 3 hr 26 min 6 sec) 
Heartbeat CPU 0 instructions: 320000000 cycles: 723271624 heartbeat IPC: 0.208259 cumulative IPC: 0.20828 (Simulation time: 3 hr 26 min 10 sec) 
Heartbeat CPU 1 instructions: 900000000 cycles: 724596001 heartbeat IPC: 1.06961 cumulative IPC: 1.07127 (Simulation time: 3 hr 26 min 28 sec) 
Heartbeat CPU 3 instructions: 840000000 cycles: 727265156 heartbeat IPC: 0.996004 cumulative IPC: 1.01087 (Simulation time: 3 hr 27 min 6 sec) 
Heartbeat CPU 2 instructions: 1010000002 cycles: 731830383 heartbeat IPC: 1.13333 cumulative IPC: 1.12601 (Simulation time: 3 hr 28 min 10 sec) 
Heartbeat CPU 1 instructions: 910000000 cycles: 733899796 heartbeat IPC: 1.07483 cumulative IPC: 1.07132 (Simulation time: 3 hr 28 min 38 sec) 
Heartbeat CPU 3 instructions: 850000003 cycles: 737162748 heartbeat IPC: 1.01035 cumulative IPC: 1.01086 (Simulation time: 3 hr 29 min 24 sec) 
Heartbeat CPU 2 instructions: 1020000000 cycles: 740702834 heartbeat IPC: 1.12708 cumulative IPC: 1.12603 (Simulation time: 3 hr 30 min 14 sec) 
Heartbeat CPU 1 instructions: 920000000 cycles: 743212262 heartbeat IPC: 1.07383 cumulative IPC: 1.07136 (Simulation time: 3 hr 30 min 49 sec) 
Heartbeat CPU 3 instructions: 860000000 cycles: 747064288 heartbeat IPC: 1.00994 cumulative IPC: 1.01084 (Simulation time: 3 hr 31 min 42 sec) 
Heartbeat CPU 2 instructions: 1030000000 cycles: 749556284 heartbeat IPC: 1.1295 cumulative IPC: 1.12608 (Simulation time: 3 hr 32 min 17 sec) 
Heartbeat CPU 1 instructions: 930000000 cycles: 752545580 heartbeat IPC: 1.07143 cumulative IPC: 1.07136 (Simulation time: 3 hr 32 min 59 sec) 
Heartbeat CPU 3 instructions: 870000000 cycles: 756941755 heartbeat IPC: 1.01241 cumulative IPC: 1.01087 (Simulation time: 3 hr 34 min 1 sec) 
Heartbeat CPU 2 instructions: 1040000000 cycles: 758430543 heartbeat IPC: 1.12685 cumulative IPC: 1.12609 (Simulation time: 3 hr 34 min 21 sec) 
Heartbeat CPU 1 instructions: 940000000 cycles: 761903879 heartbeat IPC: 1.06857 cumulative IPC: 1.07132 (Simulation time: 3 hr 35 min 10 sec) 
Heartbeat CPU 3 instructions: 880000000 cycles: 766821032 heartbeat IPC: 1.01222 cumulative IPC: 1.01089 (Simulation time: 3 hr 36 min 19 sec) 
Heartbeat CPU 2 instructions: 1050000001 cycles: 767296660 heartbeat IPC: 1.12789 cumulative IPC: 1.12611 (Simulation time: 3 hr 36 min 26 sec) 
Heartbeat CPU 1 instructions: 950000000 cycles: 771223275 heartbeat IPC: 1.07303 cumulative IPC: 1.07135 (Simulation time: 3 hr 37 min 21 sec) 
Heartbeat CPU 0 instructions: 330000003 cycles: 771524182 heartbeat IPC: 0.207243 cumulative IPC: 0.208199 (Simulation time: 3 hr 37 min 25 sec) 
Heartbeat CPU 2 instructions: 1060000000 cycles: 776139577 heartbeat IPC: 1.13085 cumulative IPC: 1.12618 (Simulation time: 3 hr 38 min 30 sec) 
Heartbeat CPU 3 instructions: 890000002 cycles: 776686645 heartbeat IPC: 1.01362 cumulative IPC: 1.01093 (Simulation time: 3 hr 38 min 37 sec) 
Heartbeat CPU 1 instructions: 960000000 cycles: 780540387 heartbeat IPC: 1.07329 cumulative IPC: 1.07137 (Simulation time: 3 hr 39 min 31 sec) 
Heartbeat CPU 2 instructions: 1070000002 cycles: 785043337 heartbeat IPC: 1.12312 cumulative IPC: 1.12614 (Simulation time: 3 hr 40 min 34 sec) 
Heartbeat CPU 3 instructions: 900000000 cycles: 786551180 heartbeat IPC: 1.01373 cumulative IPC: 1.01097 (Simulation time: 3 hr 40 min 56 sec) 
Heartbeat CPU 1 instructions: 970000003 cycles: 789885154 heartbeat IPC: 1.07012 cumulative IPC: 1.07136 (Simulation time: 3 hr 41 min 42 sec) 
Heartbeat CPU 2 instructions: 1080000000 cycles: 793987833 heartbeat IPC: 1.11801 cumulative IPC: 1.12603 (Simulation time: 3 hr 42 min 51 sec) 
Heartbeat CPU 3 instructions: 910000001 cycles: 796409101 heartbeat IPC: 1.01441 cumulative IPC: 1.01103 (Simulation time: 3 hr 43 min 25 sec) 
Heartbeat CPU 1 instructions: 980000000 cycles: 799221857 heartbeat IPC: 1.07104 cumulative IPC: 1.07135 (Simulation time: 3 hr 44 min 4 sec) 
Heartbeat CPU 2 instructions: 1090000000 cycles: 802930202 heartbeat IPC: 1.11827 cumulative IPC: 1.12592 (Simulation time: 3 hr 44 min 55 sec) 
Heartbeat CPU 3 instructions: 920000000 cycles: 806302865 heartbeat IPC: 1.01074 cumulative IPC: 1.01102 (Simulation time: 3 hr 45 min 42 sec) 
Heartbeat CPU 1 instructions: 990000003 cycles: 808553454 heartbeat IPC: 1.07163 cumulative IPC: 1.07136 (Simulation time: 3 hr 46 min 13 sec) 
Heartbeat CPU 2 instructions: 1100000000 cycles: 811786859 heartbeat IPC: 1.12909 cumulative IPC: 1.12596 (Simulation time: 3 hr 47 min 16 sec) 
Heartbeat CPU 3 instructions: 930000003 cycles: 816206244 heartbeat IPC: 1.00976 cumulative IPC: 1.011 (Simulation time: 3 hr 48 min 34 sec) 
Heartbeat CPU 1 instructions: 1000000000 cycles: 817898743 heartbeat IPC: 1.07006 cumulative IPC: 1.07134 (Simulation time: 3 hr 49 min 4 sec) 
Heartbeat CPU 0 instructions: 340000000 cycles: 819796860 heartbeat IPC: 0.207156 cumulative IPC: 0.208125 (Simulation time: 3 hr 49 min 30 sec) 
Heartbeat CPU 2 instructions: 1110000000 cycles: 820714137 heartbeat IPC: 1.12016 cumulative IPC: 1.12588 (Simulation time: 3 hr 49 min 43 sec) 
Heartbeat CPU 3 instructions: 940000000 cycles: 826067329 heartbeat IPC: 1.01409 cumulative IPC: 1.01105 (Simulation time: 3 hr 50 min 58 sec) 
Heartbeat CPU 1 instructions: 1010000002 cycles: 827243344 heartbeat IPC: 1.07014 cumulative IPC: 1.07132 (Simulation time: 3 hr 51 min 14 sec) 
Heartbeat CPU 2 instructions: 1120000000 cycles: 829693692 heartbeat IPC: 1.11364 cumulative IPC: 1.12572 (Simulation time: 3 hr 51 min 49 sec) 
Heartbeat CPU 3 instructions: 950000002 cycles: 835928295 heartbeat IPC: 1.0141 cumulative IPC: 1.01109 (Simulation time: 3 hr 53 min 24 sec) 
Heartbeat CPU 1 instructions: 1020000000 cycles: 836591336 heartbeat IPC: 1.06975 cumulative IPC: 1.0713 (Simulation time: 3 hr 53 min 43 sec) 
Heartbeat CPU 2 instructions: 1130000001 cycles: 838633416 heartbeat IPC: 1.1186 cumulative IPC: 1.12563 (Simulation time: 3 hr 54 min 43 sec) 
Heartbeat CPU 3 instructions: 960000000 cycles: 845827837 heartbeat IPC: 1.01015 cumulative IPC: 1.01108 (Simulation time: 3 hr 57 min 47 sec) 
Heartbeat CPU 1 instructions: 1030000003 cycles: 845929890 heartbeat IPC: 1.07083 cumulative IPC: 1.07129 (Simulation time: 3 hr 57 min 48 sec) 
Heartbeat CPU 2 instructions: 1140000000 cycles: 847491939 heartbeat IPC: 1.12886 cumulative IPC: 1.12567 (Simulation time: 3 hr 58 min 10 sec) 
Heartbeat CPU 1 instructions: 1040000000 cycles: 855249348 heartbeat IPC: 1.07302 cumulative IPC: 1.07132 (Simulation time: 3 hr 59 min 58 sec) 
Heartbeat CPU 3 instructions: 970000001 cycles: 855694909 heartbeat IPC: 1.01347 cumulative IPC: 1.01111 (Simulation time: 4 hr 0 min 5 sec) 
Heartbeat CPU 2 instructions: 1150000001 cycles: 856382128 heartbeat IPC: 1.12484 cumulative IPC: 1.12566 (Simulation time: 4 hr 0 min 14 sec) 
Heartbeat CPU 1 instructions: 1050000001 cycles: 864583301 heartbeat IPC: 1.07136 cumulative IPC: 1.07132 (Simulation time: 4 hr 2 min 9 sec) 
Heartbeat CPU 2 instructions: 1160000000 cycles: 865260524 heartbeat IPC: 1.12633 cumulative IPC: 1.12567 (Simulation time: 4 hr 2 min 18 sec) 
Heartbeat CPU 3 instructions: 980000000 cycles: 865578980 heartbeat IPC: 1.01173 cumulative IPC: 1.01112 (Simulation time: 4 hr 2 min 23 sec) 
Heartbeat CPU 0 instructions: 350000001 cycles: 868456895 heartbeat IPC: 0.205507 cumulative IPC: 0.207948 (Simulation time: 4 hr 3 min 2 sec) 
Heartbeat CPU 1 instructions: 1060000000 cycles: 873933349 heartbeat IPC: 1.06951 cumulative IPC: 1.07129 (Simulation time: 4 hr 4 min 18 sec) 
Heartbeat CPU 2 instructions: 1170000001 cycles: 874141733 heartbeat IPC: 1.12597 cumulative IPC: 1.12567 (Simulation time: 4 hr 4 min 21 sec) 
Heartbeat CPU 3 instructions: 990000003 cycles: 875602073 heartbeat IPC: 0.997696 cumulative IPC: 1.01094 (Simulation time: 4 hr 4 min 41 sec) 
Heartbeat CPU 2 instructions: 1180000000 cycles: 883052137 heartbeat IPC: 1.12228 cumulative IPC: 1.12563 (Simulation time: 4 hr 6 min 27 sec) 
Heartbeat CPU 1 instructions: 1070000002 cycles: 883301016 heartbeat IPC: 1.0675 cumulative IPC: 1.07125 (Simulation time: 4 hr 6 min 30 sec) 
Heartbeat CPU 3 instructions: 1000000000 cycles: 885463254 heartbeat IPC: 1.01408 cumulative IPC: 1.01098 (Simulation time: 4 hr 7 min 5 sec) 
Heartbeat CPU 2 instructions: 1190000001 cycles: 891956494 heartbeat IPC: 1.12305 cumulative IPC: 1.1256 (Simulation time: 4 hr 8 min 35 sec) 
Heartbeat CPU 1 instructions: 1080000000 cycles: 892636700 heartbeat IPC: 1.07116 cumulative IPC: 1.07124 (Simulation time: 4 hr 8 min 45 sec) 
Heartbeat CPU 3 instructions: 1010000002 cycles: 895342692 heartbeat IPC: 1.0122 cumulative IPC: 1.01099 (Simulation time: 4 hr 9 min 22 sec) 
Heartbeat CPU 2 instructions: 1200000000 cycles: 900831411 heartbeat IPC: 1.12677 cumulative IPC: 1.12562 (Simulation time: 4 hr 10 min 39 sec) 
Heartbeat CPU 1 instructions: 1090000002 cycles: 901997019 heartbeat IPC: 1.06834 cumulative IPC: 1.07121 (Simulation time: 4 hr 10 min 55 sec) 
Heartbeat CPU 3 instructions: 1020000000 cycles: 905246260 heartbeat IPC: 1.00974 cumulative IPC: 1.01098 (Simulation time: 4 hr 11 min 41 sec) 
Heartbeat CPU 2 instructions: 1210000000 cycles: 909733968 heartbeat IPC: 1.12327 cumulative IPC: 1.12559 (Simulation time: 4 hr 12 min 48 sec) 
Heartbeat CPU 1 instructions: 1100000000 cycles: 911353424 heartbeat IPC: 1.06879 cumulative IPC: 1.07118 (Simulation time: 4 hr 13 min 10 sec) 
Heartbeat CPU 3 instructions: 1030000002 cycles: 915121253 heartbeat IPC: 1.01266 cumulative IPC: 1.011 (Simulation time: 4 hr 14 min 3 sec) 
Heartbeat CPU 0 instructions: 360000000 cycles: 916973059 heartbeat IPC: 0.206117 cumulative IPC: 0.207833 (Simulation time: 4 hr 14 min 29 sec) 
Heartbeat CPU 2 instructions: 1220000000 cycles: 918600364 heartbeat IPC: 1.12785 cumulative IPC: 1.12561 (Simulation time: 4 hr 14 min 51 sec) 
Heartbeat CPU 1 instructions: 1110000003 cycles: 920700118 heartbeat IPC: 1.0699 cumulative IPC: 1.07116 (Simulation time: 4 hr 15 min 21 sec) 
Heartbeat CPU 3 instructions: 1040000000 cycles: 924982085 heartbeat IPC: 1.01411 cumulative IPC: 1.01104 (Simulation time: 4 hr 16 min 21 sec) 
Heartbeat CPU 2 instructions: 1230000003 cycles: 927529654 heartbeat IPC: 1.11991 cumulative IPC: 1.12555 (Simulation time: 4 hr 16 min 56 sec) 
Heartbeat CPU 1 instructions: 1120000000 cycles: 930053239 heartbeat IPC: 1.06916 cumulative IPC: 1.07114 (Simulation time: 4 hr 17 min 31 sec) 
Heartbeat CPU 3 instructions: 1050000001 cycles: 934833510 heartbeat IPC: 1.01508 cumulative IPC: 1.01109 (Simulation time: 4 hr 18 min 38 sec) 
Heartbeat CPU 2 instructions: 1240000000 cycles: 936444056 heartbeat IPC: 1.12178 cumulative IPC: 1.12551 (Simulation time: 4 hr 19 min 1 sec) 
Heartbeat CPU 1 instructions: 1130000002 cycles: 939367285 heartbeat IPC: 1.07365 cumulative IPC: 1.07117 (Simulation time: 4 hr 19 min 42 sec) 
Heartbeat CPU 3 instructions: 1060000000 cycles: 944744489 heartbeat IPC: 1.00898 cumulative IPC: 1.01106 (Simulation time: 4 hr 20 min 57 sec) 
Heartbeat CPU 2 instructions: 1250000003 cycles: 945296708 heartbeat IPC: 1.12961 cumulative IPC: 1.12555 (Simulation time: 4 hr 21 min 4 sec) 
Heartbeat CPU 1 instructions: 1140000000 cycles: 948698781 heartbeat IPC: 1.07164 cumulative IPC: 1.07117 (Simulation time: 4 hr 21 min 52 sec) 
Heartbeat CPU 2 instructions: 1260000000 cycles: 954262374 heartbeat IPC: 1.11537 cumulative IPC: 1.12544 (Simulation time: 4 hr 23 min 9 sec) 
Heartbeat CPU 3 instructions: 1070000003 cycles: 954615376 heartbeat IPC: 1.01308 cumulative IPC: 1.01109 (Simulation time: 4 hr 23 min 14 sec) 
Heartbeat CPU 1 instructions: 1150000003 cycles: 958023414 heartbeat IPC: 1.07243 cumulative IPC: 1.07119 (Simulation time: 4 hr 24 min 2 sec) 
Heartbeat CPU 2 instructions: 1270000003 cycles: 963119824 heartbeat IPC: 1.12899 cumulative IPC: 1.12548 (Simulation time: 4 hr 25 min 13 sec) 
Heartbeat CPU 3 instructions: 1080000000 cycles: 964461834 heartbeat IPC: 1.01559 cumulative IPC: 1.01114 (Simulation time: 4 hr 25 min 32 sec) 
Heartbeat CPU 0 instructions: 370000001 cycles: 964861268 heartbeat IPC: 0.20882 cumulative IPC: 0.20789 (Simulation time: 4 hr 25 min 38 sec) 
Heartbeat CPU 1 instructions: 1160000000 cycles: 967359534 heartbeat IPC: 1.07111 cumulative IPC: 1.07119 (Simulation time: 4 hr 26 min 12 sec) 
Heartbeat CPU 2 instructions: 1280000000 cycles: 972046644 heartbeat IPC: 1.12022 cumulative IPC: 1.12542 (Simulation time: 4 hr 28 min 3 sec) 
Heartbeat CPU 3 instructions: 1090000000 cycles: 974323564 heartbeat IPC: 1.01402 cumulative IPC: 1.01118 (Simulation time: 4 hr 28 min 35 sec) 
Heartbeat CPU 1 instructions: 1170000001 cycles: 976705257 heartbeat IPC: 1.07001 cumulative IPC: 1.07117 (Simulation time: 4 hr 29 min 8 sec) 
Heartbeat CPU 2 instructions: 1290000001 cycles: 980976918 heartbeat IPC: 1.11979 cumulative IPC: 1.12536 (Simulation time: 4 hr 30 min 7 sec) 
Heartbeat CPU 3 instructions: 1100000000 cycles: 984161733 heartbeat IPC: 1.01645 cumulative IPC: 1.01124 (Simulation time: 4 hr 30 min 57 sec) 
Heartbeat CPU 1 instructions: 1180000000 cycles: 986037398 heartbeat IPC: 1.07157 cumulative IPC: 1.07118 (Simulation time: 4 hr 31 min 23 sec) 
Heartbeat CPU 2 instructions: 1300000000 cycles: 989758736 heartbeat IPC: 1.13872 cumulative IPC: 1.1255 (Simulation time: 4 hr 32 min 15 sec) 
Heartbeat CPU 3 instructions: 1110000001 cycles: 994054886 heartbeat IPC: 1.0108 cumulative IPC: 1.01123 (Simulation time: 4 hr 33 min 15 sec) 
Heartbeat CPU 1 instructions: 1190000002 cycles: 995358534 heartbeat IPC: 1.07283 cumulative IPC: 1.0712 (Simulation time: 4 hr 33 min 33 sec) 
Heartbeat CPU 2 instructions: 1310000000 cycles: 998630844 heartbeat IPC: 1.12713 cumulative IPC: 1.12552 (Simulation time: 4 hr 34 min 21 sec) 
Heartbeat CPU 3 instructions: 1120000000 cycles: 1003925182 heartbeat IPC: 1.01314 cumulative IPC: 1.01126 (Simulation time: 4 hr 35 min 35 sec) 
Heartbeat CPU 1 instructions: 1200000000 cycles: 1004728845 heartbeat IPC: 1.0672 cumulative IPC: 1.07115 (Simulation time: 4 hr 35 min 46 sec) 
Heartbeat CPU 2 instructions: 1320000000 cycles: 1007545170 heartbeat IPC: 1.12179 cumulative IPC: 1.12548 (Simulation time: 4 hr 36 min 25 sec) 
Heartbeat CPU 0 instructions: 380000000 cycles: 1012788766 heartbeat IPC: 0.208648 cumulative IPC: 0.207932 (Simulation time: 4 hr 37 min 37 sec) 
Heartbeat CPU 3 instructions: 1130000002 cycles: 1013780547 heartbeat IPC: 1.01468 cumulative IPC: 1.01129 (Simulation time: 4 hr 37 min 51 sec) 
Heartbeat CPU 1 instructions: 1210000000 cycles: 1014054669 heartbeat IPC: 1.07229 cumulative IPC: 1.07117 (Simulation time: 4 hr 37 min 55 sec) 
Heartbeat CPU 2 instructions: 1330000001 cycles: 1016367208 heartbeat IPC: 1.13353 cumulative IPC: 1.12556 (Simulation time: 4 hr 38 min 28 sec) 
Heartbeat CPU 1 instructions: 1220000000 cycles: 1023368692 heartbeat IPC: 1.07365 cumulative IPC: 1.07119 (Simulation time: 4 hr 40 min 5 sec) 
Heartbeat CPU 3 instructions: 1140000000 cycles: 1023660579 heartbeat IPC: 1.01214 cumulative IPC: 1.0113 (Simulation time: 4 hr 40 min 9 sec) 
Heartbeat CPU 2 instructions: 1340000000 cycles: 1025209131 heartbeat IPC: 1.13098 cumulative IPC: 1.12561 (Simulation time: 4 hr 40 min 30 sec) 
Heartbeat CPU 1 instructions: 1230000003 cycles: 1032701291 heartbeat IPC: 1.07151 cumulative IPC: 1.0712 (Simulation time: 4 hr 42 min 30 sec) 
Heartbeat CPU 3 instructions: 1150000001 cycles: 1033693842 heartbeat IPC: 0.996685 cumulative IPC: 1.01114 (Simulation time: 4 hr 42 min 44 sec) 
Heartbeat CPU 2 instructions: 1350000002 cycles: 1034044999 heartbeat IPC: 1.13175 cumulative IPC: 1.12568 (Simulation time: 4 hr 42 min 49 sec) 
Finished CPU 2 instructions: 1000000003 cycles: 888372432 cumulative IPC: 1.12565 (Simulation time: 4 hr 43 min 9 sec) 
Heartbeat CPU 1 instructions: 1240000000 cycles: 1042030759 heartbeat IPC: 1.07187 cumulative IPC: 1.0712 (Simulation time: 4 hr 44 min 40 sec) 
Heartbeat CPU 2 instructions: 1360000000 cycles: 1042949046 heartbeat IPC: 1.12308 cumulative IPC: 1.12565 (Simulation time: 4 hr 44 min 53 sec) 
Heartbeat CPU 3 instructions: 1160000000 cycles: 1043602209 heartbeat IPC: 1.00925 cumulative IPC: 1.01112 (Simulation time: 4 hr 45 min 2 sec) 
Heartbeat CPU 1 instructions: 1250000000 cycles: 1051360312 heartbeat IPC: 1.07186 cumulative IPC: 1.07121 (Simulation time: 4 hr 46 min 50 sec) 
Heartbeat CPU 2 instructions: 1370000000 cycles: 1051838984 heartbeat IPC: 1.12487 cumulative IPC: 1.12564 (Simulation time: 4 hr 46 min 57 sec) 
Heartbeat CPU 3 instructions: 1170000001 cycles: 1053484041 heartbeat IPC: 1.01196 cumulative IPC: 1.01113 (Simulation time: 4 hr 47 min 20 sec) 
Heartbeat CPU 0 instructions: 390000002 cycles: 1060374747 heartbeat IPC: 0.210146 cumulative IPC: 0.208048 (Simulation time: 4 hr 48 min 44 sec) 
Heartbeat CPU 1 instructions: 1260000000 cycles: 1060727559 heartbeat IPC: 1.06755 cumulative IPC: 1.07117 (Simulation time: 4 hr 48 min 49 sec) 
Heartbeat CPU 3 instructions: 1180000000 cycles: 1063364063 heartbeat IPC: 1.01214 cumulative IPC: 1.01114 (Simulation time: 4 hr 49 min 21 sec) 
Heartbeat CPU 2 instructions: 1380000000 cycles: 1069655577 heartbeat IPC: 0.561275 cumulative IPC: 1.11474 (Simulation time: 4 hr 50 min 37 sec) 
Heartbeat CPU 1 instructions: 1270000000 cycles: 1070189656 heartbeat IPC: 1.05685 cumulative IPC: 1.07102 (Simulation time: 4 hr 50 min 43 sec) 
Heartbeat CPU 3 instructions: 1190000003 cycles: 1073213252 heartbeat IPC: 1.01531 cumulative IPC: 1.01118 (Simulation time: 4 hr 51 min 20 sec) 
Heartbeat CPU 1 instructions: 1280000000 cycles: 1079626663 heartbeat IPC: 1.05966 cumulative IPC: 1.07091 (Simulation time: 4 hr 52 min 37 sec) 
Finished CPU 1 instructions: 1000000000 cycles: 933790497 cumulative IPC: 1.0709 (Simulation time: 4 hr 52 min 53 sec) 
Heartbeat CPU 3 instructions: 1200000000 cycles: 1083062430 heartbeat IPC: 1.01531 cumulative IPC: 1.01123 (Simulation time: 4 hr 53 min 19 sec) 
Heartbeat CPU 1 instructions: 1290000003 cycles: 1089056467 heartbeat IPC: 1.06047 cumulative IPC: 1.07081 (Simulation time: 4 hr 54 min 31 sec) 
Heartbeat CPU 2 instructions: 1390000001 cycles: 1091322868 heartbeat IPC: 0.461525 cumulative IPC: 1.09975 (Simulation time: 4 hr 54 min 59 sec) 
Heartbeat CPU 3 instructions: 1210000000 cycles: 1092936228 heartbeat IPC: 1.01278 cumulative IPC: 1.01124 (Simulation time: 4 hr 55 min 18 sec) 
Heartbeat CPU 1 instructions: 1300000000 cycles: 1098487694 heartbeat IPC: 1.06031 cumulative IPC: 1.0707 (Simulation time: 4 hr 56 min 26 sec) 
Heartbeat CPU 3 instructions: 1220000000 cycles: 1102766126 heartbeat IPC: 1.0173 cumulative IPC: 1.0113 (Simulation time: 4 hr 57 min 18 sec) 
Heartbeat CPU 0 instructions: 400000000 cycles: 1106812846 heartbeat IPC: 0.21534 cumulative IPC: 0.208401 (Simulation time: 4 hr 58 min 7 sec) 
Heartbeat CPU 1 instructions: 1310000000 cycles: 1107916886 heartbeat IPC: 1.06054 cumulative IPC: 1.0706 (Simulation time: 4 hr 58 min 21 sec) 
Heartbeat CPU 3 instructions: 1230000000 cycles: 1112643905 heartbeat IPC: 1.01237 cumulative IPC: 1.01132 (Simulation time: 4 hr 59 min 18 sec) 
Heartbeat CPU 2 instructions: 1400000000 cycles: 1112848473 heartbeat IPC: 0.464563 cumulative IPC: 1.08559 (Simulation time: 4 hr 59 min 22 sec) 
Heartbeat CPU 1 instructions: 1320000000 cycles: 1117345992 heartbeat IPC: 1.06055 cumulative IPC: 1.0705 (Simulation time: 5 hr 0 min 16 sec) 
Heartbeat CPU 3 instructions: 1240000000 cycles: 1122479395 heartbeat IPC: 1.01673 cumulative IPC: 1.01137 (Simulation time: 5 hr 1 min 19 sec) 
Heartbeat CPU 1 instructions: 1330000000 cycles: 1126780952 heartbeat IPC: 1.05989 cumulative IPC: 1.0704 (Simulation time: 5 hr 2 min 11 sec) 
Heartbeat CPU 3 instructions: 1250000000 cycles: 1132296721 heartbeat IPC: 1.01861 cumulative IPC: 1.01144 (Simulation time: 5 hr 3 min 18 sec) 
Heartbeat CPU 2 instructions: 1410000000 cycles: 1134375789 heartbeat IPC: 0.464526 cumulative IPC: 1.07205 (Simulation time: 5 hr 3 min 44 sec) 
Finished CPU 3 instructions: 1000000000 cycles: 988675555 cumulative IPC: 1.01145 (Simulation time: 5 hr 4 min 1 sec) 
Heartbeat CPU 1 instructions: 1340000000 cycles: 1136216971 heartbeat IPC: 1.05977 cumulative IPC: 1.0703 (Simulation time: 5 hr 4 min 6 sec) 
Heartbeat CPU 3 instructions: 1260000000 cycles: 1142147007 heartbeat IPC: 1.0152 cumulative IPC: 1.01148 (Simulation time: 5 hr 5 min 18 sec) 
Heartbeat CPU 1 instructions: 1350000001 cycles: 1145657332 heartbeat IPC: 1.05928 cumulative IPC: 1.0702 (Simulation time: 5 hr 6 min 0 sec) 
Heartbeat CPU 3 instructions: 1270000001 cycles: 1152017004 heartbeat IPC: 1.01317 cumulative IPC: 1.0115 (Simulation time: 5 hr 7 min 18 sec) 
Heartbeat CPU 0 instructions: 410000000 cycles: 1153130136 heartbeat IPC: 0.215902 cumulative IPC: 0.208746 (Simulation time: 5 hr 7 min 31 sec) 
Heartbeat CPU 1 instructions: 1360000000 cycles: 1155102381 heartbeat IPC: 1.05876 cumulative IPC: 1.07009 (Simulation time: 5 hr 7 min 55 sec) 
Heartbeat CPU 2 instructions: 1420000000 cycles: 1155907438 heartbeat IPC: 0.464433 cumulative IPC: 1.05908 (Simulation time: 5 hr 8 min 5 sec) 
Heartbeat CPU 3 instructions: 1280000000 cycles: 1161892070 heartbeat IPC: 1.01265 cumulative IPC: 1.01151 (Simulation time: 5 hr 9 min 18 sec) 
Heartbeat CPU 1 instructions: 1370000000 cycles: 1164507001 heartbeat IPC: 1.06331 cumulative IPC: 1.07003 (Simulation time: 5 hr 9 min 49 sec) 
Heartbeat CPU 3 instructions: 1290000001 cycles: 1171701045 heartbeat IPC: 1.01947 cumulative IPC: 1.01158 (Simulation time: 5 hr 11 min 18 sec) 
Heartbeat CPU 1 instructions: 1380000000 cycles: 1173971365 heartbeat IPC: 1.0566 cumulative IPC: 1.0699 (Simulation time: 5 hr 11 min 44 sec) 
Heartbeat CPU 2 instructions: 1430000001 cycles: 1177542752 heartbeat IPC: 0.462207 cumulative IPC: 1.04655 (Simulation time: 5 hr 12 min 28 sec) 
Heartbeat CPU 3 instructions: 1300000000 cycles: 1181706684 heartbeat IPC: 0.999436 cumulative IPC: 1.01147 (Simulation time: 5 hr 13 min 18 sec) 
Heartbeat CPU 1 instructions: 1390000000 cycles: 1183391838 heartbeat IPC: 1.06152 cumulative IPC: 1.06983 (Simulation time: 5 hr 13 min 39 sec) 
Heartbeat CPU 3 instructions: 1310000000 cycles: 1191554005 heartbeat IPC: 1.0155 cumulative IPC: 1.0115 (Simulation time: 5 hr 15 min 18 sec) 
Heartbeat CPU 1 instructions: 1400000000 cycles: 1192808373 heartbeat IPC: 1.06196 cumulative IPC: 1.06975 (Simulation time: 5 hr 15 min 33 sec) 
Heartbeat CPU 0 instructions: 420000000 cycles: 1198800719 heartbeat IPC: 0.218959 cumulative IPC: 0.20919 (Simulation time: 5 hr 16 min 43 sec) 
Heartbeat CPU 2 instructions: 1440000000 cycles: 1198925645 heartbeat IPC: 0.467664 cumulative IPC: 1.03478 (Simulation time: 5 hr 16 min 44 sec) 
Heartbeat CPU 3 instructions: 1320000000 cycles: 1201399022 heartbeat IPC: 1.01574 cumulative IPC: 1.01154 (Simulation time: 5 hr 17 min 13 sec) 
Heartbeat CPU 1 instructions: 1410000002 cycles: 1202255040 heartbeat IPC: 1.05857 cumulative IPC: 1.06965 (Simulation time: 5 hr 17 min 23 sec) 
Heartbeat CPU 3 instructions: 1330000002 cycles: 1211257883 heartbeat IPC: 1.01432 cumulative IPC: 1.01157 (Simulation time: 5 hr 19 min 7 sec) 
Heartbeat CPU 1 instructions: 1420000000 cycles: 1211677552 heartbeat IPC: 1.06129 cumulative IPC: 1.06958 (Simulation time: 5 hr 19 min 12 sec) 
Heartbeat CPU 2 instructions: 1450000000 cycles: 1220499143 heartbeat IPC: 0.463532 cumulative IPC: 1.0233 (Simulation time: 5 hr 20 min 55 sec) 
Heartbeat CPU 1 instructions: 1430000002 cycles: 1221111168 heartbeat IPC: 1.06004 cumulative IPC: 1.0695 (Simulation time: 5 hr 21 min 2 sec) 
Heartbeat CPU 3 instructions: 1340000000 cycles: 1221184672 heartbeat IPC: 1.00737 cumulative IPC: 1.01153 (Simulation time: 5 hr 21 min 3 sec) 
Heartbeat CPU 1 instructions: 1440000000 cycles: 1230535703 heartbeat IPC: 1.06106 cumulative IPC: 1.06942 (Simulation time: 5 hr 22 min 56 sec) 
Heartbeat CPU 3 instructions: 1350000001 cycles: 1231072934 heartbeat IPC: 1.0113 cumulative IPC: 1.01153 (Simulation time: 5 hr 23 min 3 sec) 
Heartbeat CPU 1 instructions: 1450000002 cycles: 1239927521 heartbeat IPC: 1.06476 cumulative IPC: 1.06938 (Simulation time: 5 hr 24 min 50 sec) 
Heartbeat CPU 3 instructions: 1360000000 cycles: 1240964555 heartbeat IPC: 1.01096 cumulative IPC: 1.01152 (Simulation time: 5 hr 25 min 3 sec) 
Heartbeat CPU 2 instructions: 1460000000 cycles: 1242109538 heartbeat IPC: 0.46274 cumulative IPC: 1.01224 (Simulation time: 5 hr 25 min 16 sec) 
Heartbeat CPU 0 instructions: 430000000 cycles: 1244967733 heartbeat IPC: 0.216605 cumulative IPC: 0.209501 (Simulation time: 5 hr 25 min 51 sec) 
Heartbeat CPU 1 instructions: 1460000000 cycles: 1249372843 heartbeat IPC: 1.05872 cumulative IPC: 1.06929 (Simulation time: 5 hr 26 min 44 sec) 
Heartbeat CPU 3 instructions: 1370000003 cycles: 1250850414 heartbeat IPC: 1.01155 cumulative IPC: 1.01152 (Simulation time: 5 hr 27 min 2 sec) 
Heartbeat CPU 1 instructions: 1470000000 cycles: 1258754578 heartbeat IPC: 1.0659 cumulative IPC: 1.06926 (Simulation time: 5 hr 28 min 38 sec) 
Heartbeat CPU 3 instructions: 1380000000 cycles: 1260718894 heartbeat IPC: 1.01333 cumulative IPC: 1.01154 (Simulation time: 5 hr 29 min 2 sec) 
Heartbeat CPU 2 instructions: 1470000000 cycles: 1263838928 heartbeat IPC: 0.460206 cumulative IPC: 1.0015 (Simulation time: 5 hr 29 min 40 sec) 
Heartbeat CPU 1 instructions: 1480000000 cycles: 1268196990 heartbeat IPC: 1.05905 cumulative IPC: 1.06918 (Simulation time: 5 hr 30 min 33 sec) 
Heartbeat CPU 3 instructions: 1390000003 cycles: 1270571603 heartbeat IPC: 1.01495 cumulative IPC: 1.01157 (Simulation time: 5 hr 31 min 2 sec) 
Heartbeat CPU 1 instructions: 1490000001 cycles: 1277608335 heartbeat IPC: 1.06255 cumulative IPC: 1.06912 (Simulation time: 5 hr 32 min 27 sec) 
Heartbeat CPU 3 instructions: 1400000000 cycles: 1280456493 heartbeat IPC: 1.01164 cumulative IPC: 1.01157 (Simulation time: 5 hr 33 min 2 sec) 
Heartbeat CPU 2 instructions: 1480000000 cycles: 1285474114 heartbeat IPC: 0.46221 cumulative IPC: 0.991246 (Simulation time: 5 hr 34 min 3 sec) 
Heartbeat CPU 1 instructions: 1500000000 cycles: 1287057593 heartbeat IPC: 1.05828 cumulative IPC: 1.06903 (Simulation time: 5 hr 34 min 22 sec) 
Heartbeat CPU 3 instructions: 1410000000 cycles: 1290312872 heartbeat IPC: 1.01457 cumulative IPC: 1.0116 (Simulation time: 5 hr 35 min 1 sec) 
Heartbeat CPU 0 instructions: 440000000 cycles: 1290602685 heartbeat IPC: 0.21913 cumulative IPC: 0.209886 (Simulation time: 5 hr 35 min 5 sec) 
Heartbeat CPU 1 instructions: 1510000000 cycles: 1296480612 heartbeat IPC: 1.06123 cumulative IPC: 1.06897 (Simulation time: 5 hr 36 min 16 sec) 
Heartbeat CPU 3 instructions: 1420000000 cycles: 1300167949 heartbeat IPC: 1.01471 cumulative IPC: 1.01162 (Simulation time: 5 hr 37 min 1 sec) 
Heartbeat CPU 1 instructions: 1520000000 cycles: 1305914791 heartbeat IPC: 1.05998 cumulative IPC: 1.0689 (Simulation time: 5 hr 38 min 10 sec) 
Heartbeat CPU 2 instructions: 1490000003 cycles: 1306941448 heartbeat IPC: 0.465824 cumulative IPC: 0.981521 (Simulation time: 5 hr 38 min 23 sec) 
Heartbeat CPU 3 instructions: 1430000001 cycles: 1310003094 heartbeat IPC: 1.01676 cumulative IPC: 1.01167 (Simulation time: 5 hr 39 min 0 sec) 
Heartbeat CPU 1 instructions: 1530000001 cycles: 1315359620 heartbeat IPC: 1.05878 cumulative IPC: 1.06881 (Simulation time: 5 hr 40 min 5 sec) 
Heartbeat CPU 3 instructions: 1440000000 cycles: 1319830633 heartbeat IPC: 1.01755 cumulative IPC: 1.01171 (Simulation time: 5 hr 40 min 59 sec) 
Heartbeat CPU 1 instructions: 1540000000 cycles: 1324803979 heartbeat IPC: 1.05883 cumulative IPC: 1.06873 (Simulation time: 5 hr 41 min 59 sec) 
Heartbeat CPU 2 instructions: 1500000000 cycles: 1328443500 heartbeat IPC: 0.465072 cumulative IPC: 0.972121 (Simulation time: 5 hr 42 min 43 sec) 
Heartbeat CPU 3 instructions: 1450000001 cycles: 1329837919 heartbeat IPC: 0.999272 cumulative IPC: 1.01161 (Simulation time: 5 hr 43 min 0 sec) 
Heartbeat CPU 1 instructions: 1550000003 cycles: 1334225001 heartbeat IPC: 1.06146 cumulative IPC: 1.06868 (Simulation time: 5 hr 43 min 53 sec) 
Heartbeat CPU 0 instructions: 450000002 cycles: 1336879602 heartbeat IPC: 0.216091 cumulative IPC: 0.210127 (Simulation time: 5 hr 44 min 25 sec) 
Heartbeat CPU 3 instructions: 1460000000 cycles: 1339724230 heartbeat IPC: 1.0115 cumulative IPC: 1.01161 (Simulation time: 5 hr 45 min 0 sec) 
Heartbeat CPU 1 instructions: 1560000000 cycles: 1343654066 heartbeat IPC: 1.06055 cumulative IPC: 1.06861 (Simulation time: 5 hr 45 min 47 sec) 
Heartbeat CPU 3 instructions: 1470000001 cycles: 1349550578 heartbeat IPC: 1.01767 cumulative IPC: 1.01166 (Simulation time: 5 hr 47 min 0 sec) 
Heartbeat CPU 2 instructions: 1510000000 cycles: 1349722234 heartbeat IPC: 0.469953 cumulative IPC: 0.963235 (Simulation time: 5 hr 47 min 2 sec) 
Heartbeat CPU 1 instructions: 1570000002 cycles: 1353082150 heartbeat IPC: 1.06066 cumulative IPC: 1.06855 (Simulation time: 5 hr 47 min 43 sec) 
Heartbeat CPU 3 instructions: 1480000000 cycles: 1359397476 heartbeat IPC: 1.01555 cumulative IPC: 1.01169 (Simulation time: 5 hr 48 min 59 sec) 
Heartbeat CPU 1 instructions: 1580000000 cycles: 1362513643 heartbeat IPC: 1.06028 cumulative IPC: 1.06849 (Simulation time: 5 hr 49 min 37 sec) 
Heartbeat CPU 3 instructions: 1490000001 cycles: 1369320637 heartbeat IPC: 1.00774 cumulative IPC: 1.01166 (Simulation time: 5 hr 51 min 0 sec) 
Heartbeat CPU 2 instructions: 1520000000 cycles: 1371291348 heartbeat IPC: 0.463626 cumulative IPC: 0.954433 (Simulation time: 5 hr 51 min 24 sec) 
Heartbeat CPU 1 instructions: 1590000001 cycles: 1371934686 heartbeat IPC: 1.06145 cumulative IPC: 1.06843 (Simulation time: 5 hr 51 min 32 sec) 
Heartbeat CPU 3 instructions: 1500000000 cycles: 1379161174 heartbeat IPC: 1.0162 cumulative IPC: 1.01169 (Simulation time: 5 hr 53 min 0 sec) 
Heartbeat CPU 1 instructions: 1600000000 cycles: 1381349083 heartbeat IPC: 1.0622 cumulative IPC: 1.06838 (Simulation time: 5 hr 53 min 26 sec) 
Heartbeat CPU 0 instructions: 460000000 cycles: 1382394358 heartbeat IPC: 0.219709 cumulative IPC: 0.21048 (Simulation time: 5 hr 53 min 39 sec) 
Heartbeat CPU 3 instructions: 1510000001 cycles: 1389009874 heartbeat IPC: 1.01536 cumulative IPC: 1.01172 (Simulation time: 5 hr 54 min 59 sec) 
Heartbeat CPU 1 instructions: 1610000001 cycles: 1390767074 heartbeat IPC: 1.0618 cumulative IPC: 1.06833 (Simulation time: 5 hr 55 min 20 sec) 
Heartbeat CPU 2 instructions: 1530000000 cycles: 1392798184 heartbeat IPC: 0.464968 cumulative IPC: 0.945982 (Simulation time: 5 hr 55 min 45 sec) 
Heartbeat CPU 3 instructions: 1520000000 cycles: 1398883589 heartbeat IPC: 1.01279 cumulative IPC: 1.01173 (Simulation time: 5 hr 56 min 59 sec) 
Heartbeat CPU 1 instructions: 1620000000 cycles: 1400213694 heartbeat IPC: 1.05858 cumulative IPC: 1.06826 (Simulation time: 5 hr 57 min 15 sec) 
Heartbeat CPU 3 instructions: 1530000000 cycles: 1408819668 heartbeat IPC: 1.00643 cumulative IPC: 1.01169 (Simulation time: 5 hr 58 min 59 sec) 
Heartbeat CPU 1 instructions: 1630000003 cycles: 1409623899 heartbeat IPC: 1.06268 cumulative IPC: 1.06822 (Simulation time: 5 hr 59 min 9 sec) 
Heartbeat CPU 2 instructions: 1540000000 cycles: 1414458253 heartbeat IPC: 0.461679 cumulative IPC: 0.937705 (Simulation time: 6 hr 0 min 7 sec) 
Heartbeat CPU 3 instructions: 1540000000 cycles: 1418680610 heartbeat IPC: 1.0141 cumulative IPC: 1.01171 (Simulation time: 6 hr 0 min 59 sec) 
Heartbeat CPU 1 instructions: 1640000000 cycles: 1419072019 heartbeat IPC: 1.05841 cumulative IPC: 1.06815 (Simulation time: 6 hr 1 min 3 sec) 
Heartbeat CPU 0 instructions: 470000001 cycles: 1428377525 heartbeat IPC: 0.217471 cumulative IPC: 0.210731 (Simulation time: 6 hr 2 min 56 sec) 
Heartbeat CPU 1 instructions: 1650000003 cycles: 1428504401 heartbeat IPC: 1.06018 cumulative IPC: 1.06809 (Simulation time: 6 hr 2 min 58 sec) 
Heartbeat CPU 3 instructions: 1550000001 cycles: 1428572830 heartbeat IPC: 1.0109 cumulative IPC: 1.0117 (Simulation time: 6 hr 2 min 58 sec) 
Heartbeat CPU 2 instructions: 1550000003 cycles: 1436029594 heartbeat IPC: 0.463578 cumulative IPC: 0.92977 (Simulation time: 6 hr 4 min 28 sec) 
Heartbeat CPU 1 instructions: 1660000000 cycles: 1437929164 heartbeat IPC: 1.06103 cumulative IPC: 1.06804 (Simulation time: 6 hr 4 min 52 sec) 
Heartbeat CPU 3 instructions: 1560000000 cycles: 1438465051 heartbeat IPC: 1.0109 cumulative IPC: 1.0117 (Simulation time: 6 hr 4 min 58 sec) 
Heartbeat CPU 1 instructions: 1670000000 cycles: 1447334191 heartbeat IPC: 1.06326 cumulative IPC: 1.068 (Simulation time: 6 hr 6 min 46 sec) 
Heartbeat CPU 3 instructions: 1570000002 cycles: 1448362098 heartbeat IPC: 1.0104 cumulative IPC: 1.01169 (Simulation time: 6 hr 6 min 59 sec) 
Heartbeat CPU 1 instructions: 1680000000 cycles: 1456771283 heartbeat IPC: 1.05965 cumulative IPC: 1.06794 (Simulation time: 6 hr 8 min 41 sec) 
Heartbeat CPU 2 instructions: 1560000000 cycles: 1457751246 heartbeat IPC: 0.46037 cumulative IPC: 0.92199 (Simulation time: 6 hr 8 min 52 sec) 
Heartbeat CPU 3 instructions: 1580000000 cycles: 1458229994 heartbeat IPC: 1.01339 cumulative IPC: 1.0117 (Simulation time: 6 hr 8 min 58 sec) 
Heartbeat CPU 1 instructions: 1690000002 cycles: 1466207254 heartbeat IPC: 1.05977 cumulative IPC: 1.06788 (Simulation time: 6 hr 10 min 35 sec) 
Heartbeat CPU 3 instructions: 1590000003 cycles: 1468071837 heartbeat IPC: 1.01607 cumulative IPC: 1.01173 (Simulation time: 6 hr 10 min 57 sec) 
Heartbeat CPU 0 instructions: 480000000 cycles: 1474432698 heartbeat IPC: 0.217131 cumulative IPC: 0.210953 (Simulation time: 6 hr 12 min 14 sec) 
Heartbeat CPU 1 instructions: 1700000000 cycles: 1475619134 heartbeat IPC: 1.06249 cumulative IPC: 1.06784 (Simulation time: 6 hr 12 min 29 sec) 
Heartbeat CPU 3 instructions: 1600000000 cycles: 1478096453 heartbeat IPC: 0.997544 cumulative IPC: 1.01162 (Simulation time: 6 hr 12 min 58 sec) 
Heartbeat CPU 2 instructions: 1570000003 cycles: 1479319015 heartbeat IPC: 0.463655 cumulative IPC: 0.91457 (Simulation time: 6 hr 13 min 13 sec) 
Heartbeat CPU 1 instructions: 1710000001 cycles: 1485029504 heartbeat IPC: 1.06266 cumulative IPC: 1.06781 (Simulation time: 6 hr 14 min 23 sec) 
Heartbeat CPU 3 instructions: 1610000003 cycles: 1487932816 heartbeat IPC: 1.01664 cumulative IPC: 1.01166 (Simulation time: 6 hr 14 min 58 sec) 
Heartbeat CPU 1 instructions: 1720000000 cycles: 1494444319 heartbeat IPC: 1.06216 cumulative IPC: 1.06777 (Simulation time: 6 hr 16 min 17 sec) 
Heartbeat CPU 3 instructions: 1620000000 cycles: 1497781718 heartbeat IPC: 1.01534 cumulative IPC: 1.01169 (Simulation time: 6 hr 16 min 57 sec) 
Heartbeat CPU 2 instructions: 1580000000 cycles: 1500977516 heartbeat IPC: 0.461712 cumulative IPC: 0.907325 (Simulation time: 6 hr 17 min 36 sec) 
Heartbeat CPU 1 instructions: 1730000000 cycles: 1503887779 heartbeat IPC: 1.05893 cumulative IPC: 1.06771 (Simulation time: 6 hr 18 min 11 sec) 
Heartbeat CPU 3 instructions: 1630000001 cycles: 1507664847 heartbeat IPC: 1.01183 cumulative IPC: 1.01169 (Simulation time: 6 hr 18 min 56 sec) 
Heartbeat CPU 1 instructions: 1740000000 cycles: 1513297229 heartbeat IPC: 1.06276 cumulative IPC: 1.06767 (Simulation time: 6 hr 20 min 2 sec) 
[...]
Heartbeat CPU 1 instructions: 5120000000 cycles: 4710165850 heartbeat IPC: 1.05156 cumulative IPC: 1.06039 (Simulation time: 16 hr 40 min 27 sec) 
Heartbeat CPU 3 instructions: 4870000000 cycles: 4716135228 heartbeat IPC: 0.989673 cumulative IPC: 1.01038 (Simulation time: 16 hr 41 min 24 sec) 
Heartbeat CPU 1 instructions: 5130000002 cycles: 4719680724 heartbeat IPC: 1.05099 cumulative IPC: 1.06038 (Simulation time: 16 hr 41 min 58 sec) 
Heartbeat CPU 3 instructions: 4880000000 cycles: 4726239024 heartbeat IPC: 0.989727 cumulative IPC: 1.01034 (Simulation time: 16 hr 43 min 0 sec) 
Heartbeat CPU 0 instructions: 1170000000 cycles: 4728242631 heartbeat IPC: 0.209221 cumulative IPC: 0.211739 (Simulation time: 16 hr 43 min 19 sec) 
Heartbeat CPU 1 instructions: 5140000000 cycles: 4729168440 heartbeat IPC: 1.05399 cumulative IPC: 1.06036 (Simulation time: 16 hr 43 min 27 sec) 
Heartbeat CPU 2 instructions: 3770000000 cycles: 4729251840 heartbeat IPC: 0.129591 cumulative IPC: 0.746026 (Simulation time: 16 hr 43 min 28 sec) 
Heartbeat CPU 3 instructions: 4890000002 cycles: 4736331456 heartbeat IPC: 0.990842 cumulative IPC: 1.01029 (Simulation time: 16 hr 44 min 35 sec) 
Heartbeat CPU 1 instructions: 5150000003 cycles: 4738689860 heartbeat IPC: 1.05026 cumulative IPC: 1.06034 (Simulation time: 16 hr 44 min 58 sec) 
Heartbeat CPU 3 instructions: 4900000000 cycles: 4746332239 heartbeat IPC: 0.999922 cumulative IPC: 1.01027 (Simulation time: 16 hr 46 min 11 sec) 
Heartbeat CPU 1 instructions: 5160000000 cycles: 4748202388 heartbeat IPC: 1.05124 cumulative IPC: 1.06032 (Simulation time: 16 hr 46 min 28 sec) 
Heartbeat CPU 3 instructions: 4910000001 cycles: 4756410104 heartbeat IPC: 0.992274 cumulative IPC: 1.01023 (Simulation time: 16 hr 47 min 46 sec) 
Heartbeat CPU 1 instructions: 5170000001 cycles: 4757726966 heartbeat IPC: 1.04992 cumulative IPC: 1.0603 (Simulation time: 16 hr 47 min 58 sec) 
Heartbeat CPU 3 instructions: 4920000000 cycles: 4766598214 heartbeat IPC: 0.981536 cumulative IPC: 1.01017 (Simulation time: 16 hr 49 min 21 sec) 
Heartbeat CPU 1 instructions: 5180000000 cycles: 4767174385 heartbeat IPC: 1.05849 cumulative IPC: 1.0603 (Simulation time: 16 hr 49 min 27 sec) 
Heartbeat CPU 0 instructions: 1180000000 cycles: 4776679847 heartbeat IPC: 0.206453 cumulative IPC: 0.211683 (Simulation time: 16 hr 50 min 56 sec) 
Heartbeat CPU 1 instructions: 5190000002 cycles: 4776686294 heartbeat IPC: 1.05131 cumulative IPC: 1.06028 (Simulation time: 16 hr 50 min 56 sec) 
Heartbeat CPU 3 instructions: 4930000003 cycles: 4776787263 heartbeat IPC: 0.981446 cumulative IPC: 1.0101 (Simulation time: 16 hr 50 min 57 sec) 
Heartbeat CPU 1 instructions: 5200000000 cycles: 4786243238 heartbeat IPC: 1.04636 cumulative IPC: 1.06025 (Simulation time: 16 hr 52 min 27 sec) 
Heartbeat CPU 3 instructions: 4940000000 cycles: 4786801160 heartbeat IPC: 0.998612 cumulative IPC: 1.01008 (Simulation time: 16 hr 52 min 32 sec) 
Heartbeat CPU 1 instructions: 5210000000 cycles: 4795796626 heartbeat IPC: 1.04675 cumulative IPC: 1.06022 (Simulation time: 16 hr 53 min 58 sec) 
Heartbeat CPU 3 instructions: 4950000002 cycles: 4796908610 heartbeat IPC: 0.989369 cumulative IPC: 1.01003 (Simulation time: 16 hr 54 min 8 sec) 
Heartbeat CPU 1 instructions: 5220000000 cycles: 4805338378 heartbeat IPC: 1.04803 cumulative IPC: 1.0602 (Simulation time: 16 hr 55 min 28 sec) 
Heartbeat CPU 3 instructions: 4960000000 cycles: 4806916671 heartbeat IPC: 0.999194 cumulative IPC: 1.01001 (Simulation time: 16 hr 55 min 42 sec) 
Heartbeat CPU 2 instructions: 3780000000 cycles: 4808203765 heartbeat IPC: 0.126659 cumulative IPC: 0.735535 (Simulation time: 16 hr 55 min 54 sec) 
Heartbeat CPU 1 instructions: 5230000001 cycles: 4814894192 heartbeat IPC: 1.04648 cumulative IPC: 1.06017 (Simulation time: 16 hr 56 min 57 sec) 
Heartbeat CPU 3 instructions: 4970000001 cycles: 4816902733 heartbeat IPC: 1.0014 cumulative IPC: 1.00999 (Simulation time: 16 hr 57 min 16 sec) 
Heartbeat CPU 1 instructions: 5240000000 cycles: 4824423315 heartbeat IPC: 1.04941 cumulative IPC: 1.06015 (Simulation time: 16 hr 58 min 27 sec) 
Heartbeat CPU 0 instructions: 1190000003 cycles: 4824708690 heartbeat IPC: 0.208208 cumulative IPC: 0.211648 (Simulation time: 16 hr 58 min 30 sec) 
Heartbeat CPU 3 instructions: 4980000000 cycles: 4826958906 heartbeat IPC: 0.994414 cumulative IPC: 1.00996 (Simulation time: 16 hr 58 min 51 sec) 
Heartbeat CPU 1 instructions: 5250000000 cycles: 4833935237 heartbeat IPC: 1.05131 cumulative IPC: 1.06013 (Simulation time: 16 hr 59 min 57 sec) 
Heartbeat CPU 3 instructions: 4990000003 cycles: 4837120070 heartbeat IPC: 0.98414 cumulative IPC: 1.0099 (Simulation time: 17 hr 0 min 26 sec) 
Heartbeat CPU 1 instructions: 5260000000 cycles: 4843475658 heartbeat IPC: 1.04817 cumulative IPC: 1.06011 (Simulation time: 17 hr 1 min 25 sec) 
Heartbeat CPU 3 instructions: 5000000000 cycles: 4847136466 heartbeat IPC: 0.998363 cumulative IPC: 1.00988 (Simulation time: 17 hr 2 min 0 sec) 
Heartbeat CPU 1 instructions: 5270000000 cycles: 4853024505 heartbeat IPC: 1.04725 cumulative IPC: 1.06008 (Simulation time: 17 hr 2 min 56 sec) 
Heartbeat CPU 3 instructions: 5010000002 cycles: 4857145020 heartbeat IPC: 0.999146 cumulative IPC: 1.00986 (Simulation time: 17 hr 3 min 34 sec) 
Heartbeat CPU 1 instructions: 5280000000 cycles: 4862564697 heartbeat IPC: 1.0482 cumulative IPC: 1.06005 (Simulation time: 17 hr 4 min 25 sec) 
Heartbeat CPU 3 instructions: 5020000000 cycles: 4867175636 heartbeat IPC: 0.996948 cumulative IPC: 1.00983 (Simulation time: 17 hr 5 min 8 sec) 
Heartbeat CPU 1 instructions: 5290000003 cycles: 4872072259 heartbeat IPC: 1.05179 cumulative IPC: 1.06004 (Simulation time: 17 hr 5 min 54 sec) 
Heartbeat CPU 0 instructions: 1200000000 cycles: 4873534146 heartbeat IPC: 0.204811 cumulative IPC: 0.211577 (Simulation time: 17 hr 6 min 7 sec) 
Finished CPU 0 instructions: 1000000000 cycles: 4726411369 cumulative IPC: 0.211577 (Simulation time: 17 hr 6 min 7 sec) 

CPU 0 Branch Prediction Accuracy: 96.7197% MPKI: 4.86726

CPU 1 Branch Prediction Accuracy: 96.3945% MPKI: 0.299442

CPU 2 Branch Prediction Accuracy: 99.4704% MPKI: 0.0381237

CPU 3 Branch Prediction Accuracy: 99.9807% MPKI: 0.0012842

ChampSim completed all CPUs

Total Simulation Statistics (not including warmup)

CPU 0 cumulative IPC: 0.211577 instructions: 1000000000 cycles: 4726411369
L1D TOTAL     ACCESS:  441962760  HIT:  421947099  MISS:   20015661
L1D LOAD      ACCESS:  261423023  HIT:  243924489  MISS:   17498534
L1D RFO       ACCESS:  180539737  HIT:  178022610  MISS:    2517127
L1D PREFETCH  ACCESS:          0  HIT:          0  MISS:          0
L1D WRITEBACK ACCESS:          0  HIT:          0  MISS:          0
L1I TOTAL     ACCESS:  354200556  HIT:  353819191  MISS:     381365
L1I LOAD      ACCESS:  354200556  HIT:  353819191  MISS:     381365
L1I RFO       ACCESS:          0  HIT:          0  MISS:          0
L1I PREFETCH  ACCESS:          0  HIT:          0  MISS:          0
L1I WRITEBACK ACCESS:          0  HIT:          0  MISS:          0
L2C TOTAL     ACCESS:   32531106  HIT:   17801919  MISS:   14729187
L2C LOAD      ACCESS:   17879306  HIT:    5521643  MISS:   12357663
L2C RFO       ACCESS:    2516994  HIT:     496035  MISS:    2020959
L2C PREFETCH  ACCESS:    2462586  HIT:    2139549  MISS:     323037
L2C WRITEBACK ACCESS:    9672220  HIT:    9644692  MISS:      27528
LLC TOTAL     ACCESS:   35824123  HIT:   14999748  MISS:   20824375
LLC LOAD      ACCESS:   12353237  HIT:    3315297  MISS:    9037940
LLC RFO       ACCESS:    2019794  HIT:     633849  MISS:    1385945
LLC PREFETCH  ACCESS:   14224213  HIT:    4190043  MISS:   10034170
LLC WRITEBACK ACCESS:    7226879  HIT:    6860559  MISS:     366320

CPU 1 cumulative IPC: 1.06003 instructions: 5010137995 cycles: 4726411370
L1D TOTAL     ACCESS: 1735823021  HIT: 1530385286  MISS:  205437735
L1D LOAD      ACCESS:  899433684  HIT:  788131313  MISS:  111302371
L1D RFO       ACCESS:  836389337  HIT:  742253973  MISS:   94135364
L1D PREFETCH  ACCESS:          0  HIT:          0  MISS:          0
L1D WRITEBACK ACCESS:          0  HIT:          0  MISS:          0
L1I TOTAL     ACCESS: 1224732788  HIT: 1224732788  MISS:          0
L1I LOAD      ACCESS: 1224732788  HIT: 1224732788  MISS:          0
L1I RFO       ACCESS:          0  HIT:          0  MISS:          0
L1I PREFETCH  ACCESS:          0  HIT:          0  MISS:          0
L1I WRITEBACK ACCESS:          0  HIT:          0  MISS:          0
L2C TOTAL     ACCESS:  322995098  HIT:  246168338  MISS:   76826760
L2C LOAD      ACCESS:  111246463  HIT:   77861554  MISS:   33384909
L2C RFO       ACCESS:   83208089  HIT:   53378462  MISS:   29829627
L2C PREFETCH  ACCESS:   33797741  HIT:   20198371  MISS:   13599370
L2C WRITEBACK ACCESS:   94742805  HIT:   94729951  MISS:      12854
LLC TOTAL     ACCESS:  260888802  HIT:  192577576  MISS:   68311226
LLC LOAD      ACCESS:   33376517  HIT:   31769000  MISS:    1607517
LLC RFO       ACCESS:   29829598  HIT:          8  MISS:   29829590
LLC PREFETCH  ACCESS:  167827444  HIT:  130955921  MISS:   36871523
LLC WRITEBACK ACCESS:   29855243  HIT:   29852647  MISS:       2596

CPU 2 cumulative IPC: 0.727027 instructions: 3436230657 cycles: 4726411370
L1D TOTAL     ACCESS: 1214828583  HIT: 1152693513  MISS:   62135070
L1D LOAD      ACCESS: 1021463865  HIT:  959328861  MISS:   62135004
L1D RFO       ACCESS:  193364718  HIT:  193364652  MISS:         66
L1D PREFETCH  ACCESS:          0  HIT:          0  MISS:          0
L1D WRITEBACK ACCESS:          0  HIT:          0  MISS:          0
L1I TOTAL     ACCESS:  813765583  HIT:  813765283  MISS:        300
L1I LOAD      ACCESS:  813765583  HIT:  813765283  MISS:        300
L1I RFO       ACCESS:          0  HIT:          0  MISS:          0
L1I PREFETCH  ACCESS:          0  HIT:          0  MISS:          0
L1I WRITEBACK ACCESS:          0  HIT:          0  MISS:          0
L2C TOTAL     ACCESS:  105910996  HIT:   44133247  MISS:   61777749
L2C LOAD      ACCESS:   62135296  HIT:   18768322  MISS:   43366974
L2C RFO       ACCESS:         63  HIT:         16  MISS:         47
L2C PREFETCH  ACCESS:   21179359  HIT:    2773542  MISS:   18405817
L2C WRITEBACK ACCESS:   22596278  HIT:   22591367  MISS:       4911
LLC TOTAL     ACCESS:  219672619  HIT:  147261653  MISS:   72410966
LLC LOAD      ACCESS:   43302926  HIT:   31465553  MISS:   11837373
LLC RFO       ACCESS:         47  HIT:         33  MISS:         14
LLC PREFETCH  ACCESS:  153838821  HIT:   93266846  MISS:   60571975
LLC WRITEBACK ACCESS:   22530825  HIT:   22529221  MISS:       1604

CPU 3 cumulative IPC: 1.00981 instructions: 4772792034 cycles: 4726411370
L1D TOTAL     ACCESS: 1914886980  HIT: 1532191928  MISS:  382695052
L1D LOAD      ACCESS: 1532756995  HIT: 1181406836  MISS:  351350159
L1D RFO       ACCESS:  382129985  HIT:  350785092  MISS:   31344893
L1D PREFETCH  ACCESS:          0  HIT:          0  MISS:          0
L1D WRITEBACK ACCESS:          0  HIT:          0  MISS:          0
L1I TOTAL     ACCESS: 1140516657  HIT: 1016427287  MISS:  124089370
L1I LOAD      ACCESS: 1140516657  HIT: 1016427287  MISS:  124089370
L1I RFO       ACCESS:          0  HIT:          0  MISS:          0
L1I PREFETCH  ACCESS:          0  HIT:          0  MISS:          0
L1I WRITEBACK ACCESS:          0  HIT:          0  MISS:          0
L2C TOTAL     ACCESS:  897727040  HIT:  852410229  MISS:   45316811
L2C LOAD      ACCESS:  475411905  HIT:  438408263  MISS:   37003642
L2C RFO       ACCESS:   31315418  HIT:   26798928  MISS:    4516490
L2C PREFETCH  ACCESS:  355813865  HIT:  352027963  MISS:    3785902
L2C WRITEBACK ACCESS:   35185852  HIT:   35175075  MISS:      10777
LLC TOTAL     ACCESS:  198630578  HIT:  185641118  MISS:   12989460
LLC LOAD      ACCESS:   36735236  HIT:   35739135  MISS:     996101
LLC RFO       ACCESS:    4146354  HIT:    1337048  MISS:    2809306
LLC PREFETCH  ACCESS:  153200068  HIT:  144035362  MISS:    9164706
LLC WRITEBACK ACCESS:    4548920  HIT:    4529573  MISS:      19347

Region of Interest Statistics

CPU 0 cumulative IPC: 0.211577 instructions: 1000000000 cycles: 4726411369
L1D TOTAL     ACCESS:  441962760  HIT:  421947099  MISS:   20015661
L1D LOAD      ACCESS:  261423023  HIT:  243924489  MISS:   17498534
L1D RFO       ACCESS:  180539737  HIT:  178022610  MISS:    2517127
L1D PREFETCH  ACCESS:          0  HIT:          0  MISS:          0
L1D WRITEBACK ACCESS:          0  HIT:          0  MISS:          0
L1D PREFETCH  REQUESTED:          0  ISSUED:          0  USEFUL:          0  USELESS:          0
L1I TOTAL     ACCESS:  354200556  HIT:  353819191  MISS:     381365
L1I LOAD      ACCESS:  354200556  HIT:  353819191  MISS:     381365
L1I RFO       ACCESS:          0  HIT:          0  MISS:          0
L1I PREFETCH  ACCESS:          0  HIT:          0  MISS:          0
L1I WRITEBACK ACCESS:          0  HIT:          0  MISS:          0
L1I PREFETCH  REQUESTED:          0  ISSUED:          0  USEFUL:          0  USELESS:          0
L2C TOTAL     ACCESS:   32531106  HIT:   17801919  MISS:   14729187
L2C LOAD      ACCESS:   17879306  HIT:    5521643  MISS:   12357663
L2C RFO       ACCESS:    2516994  HIT:     496035  MISS:    2020959
L2C PREFETCH  ACCESS:    2462586  HIT:    2139549  MISS:     323037
L2C WRITEBACK ACCESS:    9672220  HIT:    9644692  MISS:      27528
L2C PREFETCH  REQUESTED:   20792166  ISSUED:   20792166  USEFUL:      88300  USELESS:     301355
LLC TOTAL     ACCESS:   35824123  HIT:   14999748  MISS:   20824375
LLC LOAD      ACCESS:   12353237  HIT:    3315297  MISS:    9037940
LLC RFO       ACCESS:    2019794  HIT:     633849  MISS:    1385945
LLC PREFETCH  ACCESS:   14224213  HIT:    4190043  MISS:   10034170
LLC WRITEBACK ACCESS:    7226879  HIT:    6860559  MISS:     366320
LLC PREFETCH  REQUESTED:          0  ISSUED:          0  USEFUL:   70075459  USELESS:   56550438
Major fault: 0 Minor fault: 52120

CPU 1 cumulative IPC: 1.0709 instructions: 1000000000 cycles: 933790497
L1D TOTAL     ACCESS:  346561219  HIT:  305655628  MISS:   40905591
L1D LOAD      ACCESS:  179552983  HIT:  157369228  MISS:   22183755
L1D RFO       ACCESS:  167008236  HIT:  148286400  MISS:   18721836
L1D PREFETCH  ACCESS:          0  HIT:          0  MISS:          0
L1D WRITEBACK ACCESS:          0  HIT:          0  MISS:          0
L1D PREFETCH  REQUESTED:          0  ISSUED:          0  USEFUL:          0  USELESS:          0
L1I TOTAL     ACCESS:  244791856  HIT:  244791856  MISS:          0
L1I LOAD      ACCESS:  244791856  HIT:  244791856  MISS:          0
L1I RFO       ACCESS:          0  HIT:          0  MISS:          0
L1I PREFETCH  ACCESS:          0  HIT:          0  MISS:          0
L1I WRITEBACK ACCESS:          0  HIT:          0  MISS:          0
L1I PREFETCH  REQUESTED:          0  ISSUED:          0  USEFUL:          0  USELESS:          0
L2C TOTAL     ACCESS:   65132466  HIT:   49800574  MISS:   15331892
L2C LOAD      ACCESS:   22172632  HIT:   16320880  MISS:    5851752
L2C RFO       ACCESS:   16553737  HIT:   10599891  MISS:    5953846
L2C PREFETCH  ACCESS:    7563400  HIT:    4039282  MISS:    3524118
L2C WRITEBACK ACCESS:   18842697  HIT:   18840521  MISS:       2176
L2C PREFETCH  REQUESTED:  211804889  ISSUED:  211804759  USEFUL:   14748863  USELESS:      13641
LLC TOTAL     ACCESS:   54700813  HIT:   41066606  MISS:   13634207
LLC LOAD      ACCESS:    5849978  HIT:    5557546  MISS:     292432
LLC RFO       ACCESS:    5953844  HIT:          1  MISS:    5953843
LLC PREFETCH  ACCESS:   36938390  HIT:   29551008  MISS:    7387382
LLC WRITEBACK ACCESS:    5958601  HIT:    5958051  MISS:        550
LLC PREFETCH  REQUESTED:          0  ISSUED:          0  USEFUL:   70075459  USELESS:   56550438
Major fault: 0 Minor fault: 374239

CPU 2 cumulative IPC: 1.12565 instructions: 1000000003 cycles: 888372432
L1D TOTAL     ACCESS:  282383871  HIT:  265555081  MISS:   16828790
L1D LOAD      ACCESS:  233211699  HIT:  216382909  MISS:   16828790
L1D RFO       ACCESS:   49172172  HIT:   49172172  MISS:          0
L1D PREFETCH  ACCESS:          0  HIT:          0  MISS:          0
L1D WRITEBACK ACCESS:          0  HIT:          0  MISS:          0
L1D PREFETCH  REQUESTED:          0  ISSUED:          0  USEFUL:          0  USELESS:          0
L1I TOTAL     ACCESS:  215270266  HIT:  215270266  MISS:          0
L1I LOAD      ACCESS:  215270266  HIT:  215270266  MISS:          0
L1I RFO       ACCESS:          0  HIT:          0  MISS:          0
L1I PREFETCH  ACCESS:          0  HIT:          0  MISS:          0
L1I WRITEBACK ACCESS:          0  HIT:          0  MISS:          0
L1I PREFETCH  REQUESTED:          0  ISSUED:          0  USEFUL:          0  USELESS:          0
L2C TOTAL     ACCESS:   29932163  HIT:   13340504  MISS:   16591659
L2C LOAD      ACCESS:   16828785  HIT:    7077474  MISS:    9751311
L2C RFO       ACCESS:          0  HIT:          0  MISS:          0
L2C PREFETCH  ACCESS:    7881906  HIT:    1043590  MISS:    6838316
L2C WRITEBACK ACCESS:    5221472  HIT:    5219440  MISS:       2032
L2C PREFETCH  REQUESTED:  182676967  ISSUED:  182652821  USEFUL:   20001475  USELESS:     926043
LLC TOTAL     ACCESS:   65297591  HIT:   47920485  MISS:   17377106
LLC LOAD      ACCESS:    9732491  HIT:    8857285  MISS:     875206
LLC RFO       ACCESS:          0  HIT:          0  MISS:          0
LLC PREFETCH  ACCESS:   50370764  HIT:   33869515  MISS:   16501249
LLC WRITEBACK ACCESS:    5194336  HIT:    5193685  MISS:        651
LLC PREFETCH  REQUESTED:          0  ISSUED:          0  USEFUL:   70075459  USELESS:   56550438
Major fault: 0 Minor fault: 876298

CPU 3 cumulative IPC: 1.01145 instructions: 1000000000 cycles: 988675555
L1D TOTAL     ACCESS:  401219060  HIT:  321039686  MISS:   80179374
L1D LOAD      ACCESS:  321154777  HIT:  247542787  MISS:   73611990
L1D RFO       ACCESS:   80064283  HIT:   73496899  MISS:    6567384
L1D PREFETCH  ACCESS:          0  HIT:          0  MISS:          0
L1D WRITEBACK ACCESS:          0  HIT:          0  MISS:          0
L1D PREFETCH  REQUESTED:          0  ISSUED:          0  USEFUL:          0  USELESS:          0
L1I TOTAL     ACCESS:  239002374  HIT:  213002872  MISS:   25999502
L1I LOAD      ACCESS:  239002374  HIT:  213002872  MISS:   25999502
L1I RFO       ACCESS:          0  HIT:          0  MISS:          0
L1I PREFETCH  ACCESS:          0  HIT:          0  MISS:          0
L1I WRITEBACK ACCESS:          0  HIT:          0  MISS:          0
L1I PREFETCH  REQUESTED:          0  ISSUED:          0  USEFUL:          0  USELESS:          0
L2C TOTAL     ACCESS:  189745202  HIT:  180298370  MISS:    9446832
L2C LOAD      ACCESS:   99605676  HIT:   92012850  MISS:    7592826
L2C RFO       ACCESS:    6561229  HIT:    5626714  MISS:     934515
L2C PREFETCH  ACCESS:   76205888  HIT:   75288649  MISS:     917239
L2C WRITEBACK ACCESS:    7372409  HIT:    7370157  MISS:       2252
L2C PREFETCH  REQUESTED:  754604835  ISSUED:  716049588  USEFUL:    3736360  USELESS:     225185
LLC TOTAL     ACCESS:   43694539  HIT:   40976243  MISS:    2718296
LLC LOAD      ACCESS:    7535109  HIT:    7358651  MISS:     176458
LLC RFO       ACCESS:     859186  HIT:     270512  MISS:     588674
LLC PREFETCH  ACCESS:   34358980  HIT:   32409936  MISS:    1949044
LLC WRITEBACK ACCESS:     941264  HIT:     937144  MISS:       4120
LLC PREFETCH  REQUESTED:          0  ISSUED:          0  USEFUL:   70075459  USELESS:   56550438
Major fault: 0 Minor fault: 41931

DRAM Statistics
 CHANNEL 0
 RQ ROW_BUFFER_HIT:   38989776  ROW_BUFFER_MISS:   47988627
 DBUS_CONGESTED:  140389220
 WQ ROW_BUFFER_HIT:    3427013  ROW_BUFFER_MISS:   27074452  FULL:          0

 CHANNEL 1
 RQ ROW_BUFFER_HIT:   38902758  ROW_BUFFER_MISS:   48262205
 DBUS_CONGESTED:  140389220
 WQ ROW_BUFFER_HIT:    3427280  ROW_BUFFER_MISS:   27070528  FULL:          0

 AVG_CONGESTED_CYCLE: 13
