Initialize SIGNATURE TABLE
ST_SET: 1
ST_WAY: 256
ST_TAG_BIT: 16
ST_TAG_MASK: ffff

Initialize PATTERN TABLE
PT_SET: 512
PT_WAY: 4
SIG_DELTA_BIT: 7
C_SIG_BIT: 4
C_DELTA_BIT: 4

Initialize PREFETCH FILTER
FILTER_SET: 1024

*** ChampSim Multicore Out-of-Order Simulator ***

Warmup Instructions: 200000000
Simulation Instructions: 1000000000
Number of CPUs: 4
LLC sets: 8192
LLC ways: 16
Off-chip DRAM Size: 8192 MB Channels: 2 Width: 64-bit Data Rate: 1600 MT/s

CPU 0 runs /scratch/user/djimenez/champsim-traces/speccpu2017/xz/619.lbm_s/619.lbm_s-2677B.champsimtrace.xz
CPU 1 runs /scratch/user/djimenez/champsim-traces/speccpu2017/xz/654.roms_s/654.roms_s-294B.champsimtrace.xz
CPU 2 runs /scratch/user/djimenez/champsim-traces/speccpu2017/xz/649.fotonik3d_s/649.fotonik3d_s-8225B.champsimtrace.xz
CPU 3 runs /scratch/user/djimenez/champsim-traces/speccpu2017/xz/603.bwaves_s/603.bwaves_s-1740B.champsimtrace.xz
Heartbeat CPU 2 instructions: 10000001 cycles: 4411386 heartbeat IPC: 2.26686 cumulative IPC: 2.26686 (Simulation time: 0 hr 2 min 4 sec) 
Heartbeat CPU 1 instructions: 10000003 cycles: 4881606 heartbeat IPC: 2.04851 cumulative IPC: 2.04851 (Simulation time: 0 hr 2 min 22 sec) 
Heartbeat CPU 0 instructions: 10000001 cycles: 4938920 heartbeat IPC: 2.02473 cumulative IPC: 2.02473 (Simulation time: 0 hr 2 min 25 sec) 
Heartbeat CPU 3 instructions: 10000001 cycles: 5295178 heartbeat IPC: 1.88851 cumulative IPC: 1.88851 (Simulation time: 0 hr 2 min 35 sec) 
Heartbeat CPU 2 instructions: 20000000 cycles: 8821840 heartbeat IPC: 2.26734 cumulative IPC: 2.2671 (Simulation time: 0 hr 4 min 19 sec) 
Heartbeat CPU 1 instructions: 20000000 cycles: 9762621 heartbeat IPC: 2.04875 cumulative IPC: 2.04863 (Simulation time: 0 hr 4 min 52 sec) 
Heartbeat CPU 0 instructions: 20000000 cycles: 9847665 heartbeat IPC: 2.03718 cumulative IPC: 2.03094 (Simulation time: 0 hr 4 min 54 sec) 
Heartbeat CPU 3 instructions: 20000000 cycles: 10592667 heartbeat IPC: 1.88769 cumulative IPC: 1.8881 (Simulation time: 0 hr 5 min 14 sec) 
Heartbeat CPU 2 instructions: 30000003 cycles: 13232271 heartbeat IPC: 2.26735 cumulative IPC: 2.26718 (Simulation time: 0 hr 6 min 29 sec) 
Heartbeat CPU 1 instructions: 30000002 cycles: 14643645 heartbeat IPC: 2.04875 cumulative IPC: 2.04867 (Simulation time: 0 hr 7 min 9 sec) 
Heartbeat CPU 0 instructions: 30000000 cycles: 14780460 heartbeat IPC: 2.02725 cumulative IPC: 2.02971 (Simulation time: 0 hr 7 min 12 sec) 
Heartbeat CPU 3 instructions: 30000002 cycles: 15889113 heartbeat IPC: 1.88806 cumulative IPC: 1.88809 (Simulation time: 0 hr 7 min 42 sec) 
Heartbeat CPU 2 instructions: 40000000 cycles: 17642086 heartbeat IPC: 2.26767 cumulative IPC: 2.26731 (Simulation time: 0 hr 8 min 34 sec) 
Heartbeat CPU 1 instructions: 40000000 cycles: 19524774 heartbeat IPC: 2.04871 cumulative IPC: 2.04868 (Simulation time: 0 hr 9 min 31 sec) 
Heartbeat CPU 0 instructions: 40000000 cycles: 19701407 heartbeat IPC: 2.03213 cumulative IPC: 2.03031 (Simulation time: 0 hr 9 min 37 sec) 
Heartbeat CPU 3 instructions: 40000000 cycles: 21184668 heartbeat IPC: 1.88838 cumulative IPC: 1.88816 (Simulation time: 0 hr 10 min 18 sec) 
Heartbeat CPU 2 instructions: 50000002 cycles: 22052622 heartbeat IPC: 2.2673 cumulative IPC: 2.2673 (Simulation time: 0 hr 10 min 48 sec) 
Heartbeat CPU 1 instructions: 50000000 cycles: 24406203 heartbeat IPC: 2.04858 cumulative IPC: 2.04866 (Simulation time: 0 hr 11 min 55 sec) 
Heartbeat CPU 0 instructions: 50000000 cycles: 24648943 heartbeat IPC: 2.02121 cumulative IPC: 2.02848 (Simulation time: 0 hr 12 min 1 sec) 
Heartbeat CPU 2 instructions: 60000000 cycles: 26463979 heartbeat IPC: 2.26688 cumulative IPC: 2.26723 (Simulation time: 0 hr 12 min 47 sec) 
Heartbeat CPU 3 instructions: 50000003 cycles: 26481729 heartbeat IPC: 1.88784 cumulative IPC: 1.88809 (Simulation time: 0 hr 12 min 48 sec) 
Heartbeat CPU 1 instructions: 60000000 cycles: 29287501 heartbeat IPC: 2.04864 cumulative IPC: 2.04866 (Simulation time: 0 hr 14 min 1 sec) 
Heartbeat CPU 0 instructions: 60000000 cycles: 29591459 heartbeat IPC: 2.02326 cumulative IPC: 2.02761 (Simulation time: 0 hr 14 min 11 sec) 
Heartbeat CPU 2 instructions: 70000001 cycles: 30875035 heartbeat IPC: 2.26703 cumulative IPC: 2.2672 (Simulation time: 0 hr 14 min 45 sec) 
Heartbeat CPU 3 instructions: 60000000 cycles: 31776575 heartbeat IPC: 1.88863 cumulative IPC: 1.88818 (Simulation time: 0 hr 15 min 8 sec) 
Heartbeat CPU 1 instructions: 70000003 cycles: 34168518 heartbeat IPC: 2.04875 cumulative IPC: 2.04867 (Simulation time: 0 hr 16 min 9 sec) 
Heartbeat CPU 0 instructions: 70000000 cycles: 34518324 heartbeat IPC: 2.02969 cumulative IPC: 2.02791 (Simulation time: 0 hr 16 min 18 sec) 
Heartbeat CPU 2 instructions: 80000000 cycles: 35285403 heartbeat IPC: 2.26738 cumulative IPC: 2.26723 (Simulation time: 0 hr 16 min 38 sec) 
Heartbeat CPU 3 instructions: 70000000 cycles: 37073931 heartbeat IPC: 1.88773 cumulative IPC: 1.88812 (Simulation time: 0 hr 17 min 24 sec) 
Heartbeat CPU 1 instructions: 80000000 cycles: 39049727 heartbeat IPC: 2.04867 cumulative IPC: 2.04867 (Simulation time: 0 hr 18 min 14 sec) 
Heartbeat CPU 0 instructions: 80000000 cycles: 39449285 heartbeat IPC: 2.028 cumulative IPC: 2.02792 (Simulation time: 0 hr 18 min 24 sec) 
Heartbeat CPU 2 instructions: 90000002 cycles: 39695442 heartbeat IPC: 2.26755 cumulative IPC: 2.26726 (Simulation time: 0 hr 18 min 31 sec) 
Heartbeat CPU 3 instructions: 80000000 cycles: 42371014 heartbeat IPC: 1.88783 cumulative IPC: 1.88808 (Simulation time: 0 hr 19 min 39 sec) 
Heartbeat CPU 1 instructions: 90000000 cycles: 43931056 heartbeat IPC: 2.04862 cumulative IPC: 2.04866 (Simulation time: 0 hr 20 min 19 sec) 
Heartbeat CPU 2 instructions: 100000000 cycles: 44105397 heartbeat IPC: 2.2676 cumulative IPC: 2.2673 (Simulation time: 0 hr 20 min 23 sec) 
Heartbeat CPU 0 instructions: 90000001 cycles: 44408290 heartbeat IPC: 2.01653 cumulative IPC: 2.02665 (Simulation time: 0 hr 20 min 31 sec) 
Heartbeat CPU 3 instructions: 90000000 cycles: 47667802 heartbeat IPC: 1.88794 cumulative IPC: 1.88807 (Simulation time: 0 hr 21 min 54 sec) 
Heartbeat CPU 2 instructions: 110000000 cycles: 48515799 heartbeat IPC: 2.26737 cumulative IPC: 2.2673 (Simulation time: 0 hr 22 min 16 sec) 
Heartbeat CPU 1 instructions: 100000000 cycles: 48812268 heartbeat IPC: 2.04867 cumulative IPC: 2.04867 (Simulation time: 0 hr 22 min 24 sec) 
Heartbeat CPU 0 instructions: 100000000 cycles: 49360715 heartbeat IPC: 2.01921 cumulative IPC: 2.0259 (Simulation time: 0 hr 22 min 38 sec) 
Heartbeat CPU 2 instructions: 120000000 cycles: 52926714 heartbeat IPC: 2.2671 cumulative IPC: 2.26729 (Simulation time: 0 hr 24 min 15 sec) 
Heartbeat CPU 3 instructions: 100000000 cycles: 52965438 heartbeat IPC: 1.88763 cumulative IPC: 1.88802 (Simulation time: 0 hr 24 min 16 sec) 
Heartbeat CPU 1 instructions: 110000002 cycles: 53692914 heartbeat IPC: 2.04891 cumulative IPC: 2.04869 (Simulation time: 0 hr 24 min 36 sec) 
Heartbeat CPU 0 instructions: 110000000 cycles: 54323851 heartbeat IPC: 2.01486 cumulative IPC: 2.02489 (Simulation time: 0 hr 24 min 55 sec) 
Heartbeat CPU 2 instructions: 130000002 cycles: 57338564 heartbeat IPC: 2.26662 cumulative IPC: 2.26724 (Simulation time: 0 hr 26 min 16 sec) 
Heartbeat CPU 3 instructions: 110000001 cycles: 58261075 heartbeat IPC: 1.88835 cumulative IPC: 1.88805 (Simulation time: 0 hr 26 min 40 sec) 
Heartbeat CPU 1 instructions: 120000000 cycles: 58574094 heartbeat IPC: 2.04868 cumulative IPC: 2.04869 (Simulation time: 0 hr 26 min 49 sec) 
Heartbeat CPU 0 instructions: 120000000 cycles: 59265296 heartbeat IPC: 2.0237 cumulative IPC: 2.02479 (Simulation time: 0 hr 27 min 7 sec) 
Heartbeat CPU 2 instructions: 140000000 cycles: 61749082 heartbeat IPC: 2.26731 cumulative IPC: 2.26724 (Simulation time: 0 hr 28 min 18 sec) 
Heartbeat CPU 1 instructions: 130000000 cycles: 63455273 heartbeat IPC: 2.04869 cumulative IPC: 2.04869 (Simulation time: 0 hr 29 min 15 sec) 
Heartbeat CPU 3 instructions: 120000000 cycles: 63557223 heartbeat IPC: 1.88816 cumulative IPC: 1.88806 (Simulation time: 0 hr 29 min 18 sec) 
Heartbeat CPU 0 instructions: 130000000 cycles: 64200861 heartbeat IPC: 2.02611 cumulative IPC: 2.02489 (Simulation time: 0 hr 29 min 35 sec) 
Heartbeat CPU 2 instructions: 150000000 cycles: 66160039 heartbeat IPC: 2.26708 cumulative IPC: 2.26723 (Simulation time: 0 hr 30 min 35 sec) 
Heartbeat CPU 1 instructions: 140000000 cycles: 68336037 heartbeat IPC: 2.04886 cumulative IPC: 2.0487 (Simulation time: 0 hr 31 min 39 sec) 
Heartbeat CPU 3 instructions: 130000003 cycles: 68852393 heartbeat IPC: 1.88851 cumulative IPC: 1.8881 (Simulation time: 0 hr 31 min 53 sec) 
Heartbeat CPU 0 instructions: 140000000 cycles: 69152935 heartbeat IPC: 2.01936 cumulative IPC: 2.0245 (Simulation time: 0 hr 32 min 2 sec) 
Heartbeat CPU 2 instructions: 160000000 cycles: 70570047 heartbeat IPC: 2.26757 cumulative IPC: 2.26725 (Simulation time: 0 hr 32 min 48 sec) 
Heartbeat CPU 1 instructions: 150000003 cycles: 73217392 heartbeat IPC: 2.04861 cumulative IPC: 2.04869 (Simulation time: 0 hr 34 min 5 sec) 
Heartbeat CPU 0 instructions: 150000001 cycles: 74114213 heartbeat IPC: 2.01561 cumulative IPC: 2.0239 (Simulation time: 0 hr 34 min 29 sec) 
Heartbeat CPU 3 instructions: 140000000 cycles: 74149204 heartbeat IPC: 1.88793 cumulative IPC: 1.88809 (Simulation time: 0 hr 34 min 30 sec) 
Heartbeat CPU 2 instructions: 170000002 cycles: 74980215 heartbeat IPC: 2.26749 cumulative IPC: 2.26726 (Simulation time: 0 hr 34 min 53 sec) 
Heartbeat CPU 1 instructions: 160000000 cycles: 78098099 heartbeat IPC: 2.04888 cumulative IPC: 2.04871 (Simulation time: 0 hr 36 min 15 sec) 
Heartbeat CPU 0 instructions: 160000000 cycles: 79050702 heartbeat IPC: 2.02573 cumulative IPC: 2.02402 (Simulation time: 0 hr 36 min 40 sec) 
Heartbeat CPU 2 instructions: 180000000 cycles: 79391265 heartbeat IPC: 2.26703 cumulative IPC: 2.26725 (Simulation time: 0 hr 36 min 49 sec) 
Heartbeat CPU 3 instructions: 150000002 cycles: 79446098 heartbeat IPC: 1.8879 cumulative IPC: 1.88807 (Simulation time: 0 hr 36 min 51 sec) 
Heartbeat CPU 1 instructions: 170000003 cycles: 82979340 heartbeat IPC: 2.04866 cumulative IPC: 2.0487 (Simulation time: 0 hr 38 min 24 sec) 
Heartbeat CPU 2 instructions: 190000000 cycles: 83802058 heartbeat IPC: 2.26717 cumulative IPC: 2.26725 (Simulation time: 0 hr 38 min 46 sec) 
Heartbeat CPU 0 instructions: 170000003 cycles: 83979418 heartbeat IPC: 2.02893 cumulative IPC: 2.02431 (Simulation time: 0 hr 38 min 51 sec) 
Heartbeat CPU 3 instructions: 160000000 cycles: 84743168 heartbeat IPC: 1.88784 cumulative IPC: 1.88806 (Simulation time: 0 hr 39 min 11 sec) 
Heartbeat CPU 1 instructions: 180000000 cycles: 87860085 heartbeat IPC: 2.04887 cumulative IPC: 2.04871 (Simulation time: 0 hr 40 min 33 sec) 
Heartbeat CPU 2 instructions: 200000000 cycles: 88212905 heartbeat IPC: 2.26714 cumulative IPC: 2.26724 (Simulation time: 0 hr 40 min 43 sec) 
Heartbeat CPU 0 instructions: 180000000 cycles: 88873286 heartbeat IPC: 2.04337 cumulative IPC: 2.02536 (Simulation time: 0 hr 41 min 2 sec) 
Heartbeat CPU 3 instructions: 170000000 cycles: 90039010 heartbeat IPC: 1.88827 cumulative IPC: 1.88807 (Simulation time: 0 hr 41 min 46 sec) 
Heartbeat CPU 2 instructions: 210000002 cycles: 92624071 heartbeat IPC: 2.26697 cumulative IPC: 0.107963 (Simulation time: 0 hr 43 min 0 sec) 
Heartbeat CPU 1 instructions: 190000001 cycles: 92741255 heartbeat IPC: 2.04869 cumulative IPC: 2.04871 (Simulation time: 0 hr 43 min 3 sec) 
Heartbeat CPU 0 instructions: 190000001 cycles: 93815998 heartbeat IPC: 2.02318 cumulative IPC: 2.02524 (Simulation time: 0 hr 43 min 34 sec) 
Heartbeat CPU 3 instructions: 180000000 cycles: 95333257 heartbeat IPC: 1.88884 cumulative IPC: 1.88811 (Simulation time: 0 hr 44 min 18 sec) 
Heartbeat CPU 2 instructions: 220000000 cycles: 97033873 heartbeat IPC: 2.26768 cumulative IPC: 0.206114 (Simulation time: 0 hr 45 min 7 sec) 
Heartbeat CPU 1 instructions: 200000000 cycles: 97622230 heartbeat IPC: 2.04877 cumulative IPC: 2.04871 (Simulation time: 0 hr 45 min 22 sec) 
Heartbeat CPU 0 instructions: 200000000 cycles: 98742536 heartbeat IPC: 2.02982 cumulative IPC: 2.02547 (Simulation time: 0 hr 45 min 53 sec) 
Heartbeat CPU 3 instructions: 190000002 cycles: 100628951 heartbeat IPC: 1.88833 cumulative IPC: 1.88812 (Simulation time: 0 hr 46 min 44 sec) 
Heartbeat CPU 2 instructions: 230000001 cycles: 101444074 heartbeat IPC: 2.26747 cumulative IPC: 0.295729 (Simulation time: 0 hr 47 min 6 sec) 
Heartbeat CPU 1 instructions: 210000000 cycles: 102503229 heartbeat IPC: 2.04876 cumulative IPC: 0.0975579 (Simulation time: 0 hr 47 min 35 sec) 
Heartbeat CPU 0 instructions: 210000002 cycles: 103666107 heartbeat IPC: 2.03105 cumulative IPC: 0.0964636 (Simulation time: 0 hr 48 min 6 sec) 
Heartbeat CPU 2 instructions: 240000000 cycles: 105855656 heartbeat IPC: 2.26676 cumulative IPC: 0.377873 (Simulation time: 0 hr 49 min 5 sec) 
Heartbeat CPU 3 instructions: 200000000 cycles: 105925779 heartbeat IPC: 1.88792 cumulative IPC: 1.88811 (Simulation time: 0 hr 49 min 7 sec) 

Warmup complete CPU 0 instructions: 214581523 cycles: 105925794 (Simulation time: 0 hr 49 min 7 sec) 
Warmup complete CPU 1 instructions: 217012000 cycles: 105925794 (Simulation time: 0 hr 49 min 7 sec) 
Warmup complete CPU 2 instructions: 240158912 cycles: 105925794 (Simulation time: 0 hr 49 min 7 sec) 
Warmup complete CPU 3 instructions: 200000001 cycles: 105925794 (Simulation time: 0 hr 49 min 7 sec) 

Heartbeat CPU 1 instructions: 220000000 cycles: 109088511 heartbeat IPC: 1.51854 cumulative IPC: 0.944757 (Simulation time: 0 hr 49 min 49 sec) 
Heartbeat CPU 3 instructions: 210000002 cycles: 116027225 heartbeat IPC: 0.989957 cumulative IPC: 0.989959 (Simulation time: 0 hr 51 min 23 sec) 
Heartbeat CPU 2 instructions: 250000000 cycles: 117289987 heartbeat IPC: 0.874559 cumulative IPC: 0.865973 (Simulation time: 0 hr 51 min 41 sec) 
Heartbeat CPU 0 instructions: 220000000 cycles: 117953861 heartbeat IPC: 0.6999 cumulative IPC: 0.450486 (Simulation time: 0 hr 51 min 49 sec) 
Heartbeat CPU 1 instructions: 230000000 cycles: 119499988 heartbeat IPC: 0.960479 cumulative IPC: 0.956816 (Simulation time: 0 hr 52 min 10 sec) 
Heartbeat CPU 3 instructions: 220000000 cycles: 126039775 heartbeat IPC: 0.998746 cumulative IPC: 0.994333 (Simulation time: 0 hr 53 min 39 sec) 
Heartbeat CPU 2 instructions: 260000000 cycles: 128745502 heartbeat IPC: 0.872942 cumulative IPC: 0.869472 (Simulation time: 0 hr 54 min 15 sec) 
Heartbeat CPU 1 instructions: 240000000 cycles: 129948550 heartbeat IPC: 0.95707 cumulative IPC: 0.956926 (Simulation time: 0 hr 54 min 32 sec) 
Heartbeat CPU 3 instructions: 230000002 cycles: 136075815 heartbeat IPC: 0.996409 cumulative IPC: 0.995024 (Simulation time: 0 hr 55 min 54 sec) 
Heartbeat CPU 0 instructions: 230000003 cycles: 139735675 heartbeat IPC: 0.459099 cumulative IPC: 0.456035 (Simulation time: 0 hr 56 min 43 sec) 
Heartbeat CPU 2 instructions: 270000002 cycles: 140287449 heartbeat IPC: 0.866405 cumulative IPC: 0.868442 (Simulation time: 0 hr 56 min 51 sec) 
Heartbeat CPU 1 instructions: 250000003 cycles: 140404418 heartbeat IPC: 0.956401 cumulative IPC: 0.956767 (Simulation time: 0 hr 56 min 52 sec) 
Heartbeat CPU 3 instructions: 240000000 cycles: 146062855 heartbeat IPC: 1.0013 cumulative IPC: 0.996585 (Simulation time: 0 hr 58 min 8 sec) 
Heartbeat CPU 1 instructions: 260000000 cycles: 150868942 heartbeat IPC: 0.955609 cumulative IPC: 0.956497 (Simulation time: 0 hr 59 min 13 sec) 
Heartbeat CPU 2 instructions: 280000000 cycles: 151798733 heartbeat IPC: 0.868713 cumulative IPC: 0.86851 (Simulation time: 0 hr 59 min 26 sec) 
Heartbeat CPU 3 instructions: 250000003 cycles: 156053737 heartbeat IPC: 1.00091 cumulative IPC: 0.997448 (Simulation time: 1 hr 0 min 22 sec) 
Heartbeat CPU 1 instructions: 270000000 cycles: 161325993 heartbeat IPC: 0.956293 cumulative IPC: 0.956459 (Simulation time: 1 hr 1 min 32 sec) 
Heartbeat CPU 0 instructions: 240000000 cycles: 162236262 heartbeat IPC: 0.444433 cumulative IPC: 0.451399 (Simulation time: 1 hr 1 min 44 sec) 
Heartbeat CPU 2 instructions: 290000001 cycles: 163320202 heartbeat IPC: 0.867945 cumulative IPC: 0.868396 (Simulation time: 1 hr 1 min 58 sec) 
Heartbeat CPU 3 instructions: 260000000 cycles: 166050710 heartbeat IPC: 1.0003 cumulative IPC: 0.997922 (Simulation time: 1 hr 2 min 34 sec) 
Heartbeat CPU 1 instructions: 280000000 cycles: 171764725 heartbeat IPC: 0.957971 cumulative IPC: 0.956698 (Simulation time: 1 hr 3 min 49 sec) 
Heartbeat CPU 2 instructions: 300000000 cycles: 174844431 heartbeat IPC: 0.867737 cumulative IPC: 0.868286 (Simulation time: 1 hr 4 min 30 sec) 
Heartbeat CPU 3 instructions: 270000001 cycles: 176077988 heartbeat IPC: 0.99728 cumulative IPC: 0.997831 (Simulation time: 1 hr 4 min 47 sec) 
Heartbeat CPU 1 instructions: 290000002 cycles: 182209922 heartbeat IPC: 0.957378 cumulative IPC: 0.956791 (Simulation time: 1 hr 6 min 7 sec) 
Heartbeat CPU 0 instructions: 250000002 cycles: 184500009 heartbeat IPC: 0.449161 cumulative IPC: 0.450765 (Simulation time: 1 hr 6 min 37 sec) 
Heartbeat CPU 3 instructions: 280000000 cycles: 186060554 heartbeat IPC: 1.00175 cumulative IPC: 0.998318 (Simulation time: 1 hr 6 min 58 sec) 
Heartbeat CPU 2 instructions: 310000000 cycles: 186341653 heartbeat IPC: 0.869775 cumulative IPC: 0.868499 (Simulation time: 1 hr 7 min 2 sec) 
Heartbeat CPU 1 instructions: 300000000 cycles: 192657488 heartbeat IPC: 0.957161 cumulative IPC: 0.956836 (Simulation time: 1 hr 8 min 26 sec) 
Heartbeat CPU 3 instructions: 290000002 cycles: 196091906 heartbeat IPC: 0.996875 cumulative IPC: 0.998158 (Simulation time: 1 hr 9 min 12 sec) 
Heartbeat CPU 2 instructions: 320000000 cycles: 197799999 heartbeat IPC: 0.872726 cumulative IPC: 0.869026 (Simulation time: 1 hr 9 min 35 sec) 
Heartbeat CPU 1 instructions: 310000002 cycles: 203109192 heartbeat IPC: 0.956782 cumulative IPC: 0.95683 (Simulation time: 1 hr 10 min 45 sec) 
Heartbeat CPU 3 instructions: 300000000 cycles: 206134678 heartbeat IPC: 0.995741 cumulative IPC: 0.997916 (Simulation time: 1 hr 11 min 25 sec) 
Heartbeat CPU 0 instructions: 260000000 cycles: 206441226 heartbeat IPC: 0.455763 cumulative IPC: 0.451856 (Simulation time: 1 hr 11 min 29 sec) 
Heartbeat CPU 2 instructions: 330000002 cycles: 209304317 heartbeat IPC: 0.869239 cumulative IPC: 0.86905 (Simulation time: 1 hr 12 min 6 sec) 
Heartbeat CPU 1 instructions: 320000000 cycles: 213570359 heartbeat IPC: 0.955916 cumulative IPC: 0.956741 (Simulation time: 1 hr 13 min 3 sec) 
Heartbeat CPU 3 instructions: 310000001 cycles: 216118239 heartbeat IPC: 1.00165 cumulative IPC: 0.998254 (Simulation time: 1 hr 13 min 36 sec) 
Heartbeat CPU 2 instructions: 340000000 cycles: 220813038 heartbeat IPC: 0.868906 cumulative IPC: 0.869035 (Simulation time: 1 hr 14 min 38 sec) 
Heartbeat CPU 1 instructions: 330000001 cycles: 224043690 heartbeat IPC: 0.954806 cumulative IPC: 0.95657 (Simulation time: 1 hr 15 min 21 sec) 
Heartbeat CPU 3 instructions: 320000000 cycles: 226132790 heartbeat IPC: 0.998547 cumulative IPC: 0.998278 (Simulation time: 1 hr 15 min 48 sec) 
Heartbeat CPU 0 instructions: 270000001 cycles: 228330419 heartbeat IPC: 0.456846 cumulative IPC: 0.452748 (Simulation time: 1 hr 16 min 18 sec) 
Heartbeat CPU 2 instructions: 350000001 cycles: 232300211 heartbeat IPC: 0.870536 cumulative IPC: 0.869172 (Simulation time: 1 hr 17 min 10 sec) 
Heartbeat CPU 1 instructions: 340000000 cycles: 234501004 heartbeat IPC: 0.956268 cumulative IPC: 0.956545 (Simulation time: 1 hr 17 min 39 sec) 
Heartbeat CPU 3 instructions: 330000003 cycles: 236131360 heartbeat IPC: 1.00014 cumulative IPC: 0.998421 (Simulation time: 1 hr 18 min 1 sec) 
Heartbeat CPU 2 instructions: 360000000 cycles: 243796756 heartbeat IPC: 0.869826 cumulative IPC: 0.869226 (Simulation time: 1 hr 19 min 43 sec) 
Heartbeat CPU 1 instructions: 350000002 cycles: 244924409 heartbeat IPC: 0.95938 cumulative IPC: 0.956758 (Simulation time: 1 hr 19 min 57 sec) 
Heartbeat CPU 3 instructions: 340000000 cycles: 246083956 heartbeat IPC: 1.00476 cumulative IPC: 0.998872 (Simulation time: 1 hr 20 min 13 sec) 
Heartbeat CPU 0 instructions: 280000000 cycles: 249809024 heartbeat IPC: 0.46558 cumulative IPC: 0.454664 (Simulation time: 1 hr 21 min 2 sec) 
Heartbeat CPU 2 instructions: 370000000 cycles: 255305066 heartbeat IPC: 0.868937 cumulative IPC: 0.869204 (Simulation time: 1 hr 22 min 15 sec) 
Heartbeat CPU 1 instructions: 360000000 cycles: 255371671 heartbeat IPC: 0.957188 cumulative IPC: 0.956788 (Simulation time: 1 hr 22 min 16 sec) 
Heartbeat CPU 3 instructions: 350000002 cycles: 256011490 heartbeat IPC: 1.0073 cumulative IPC: 0.999429 (Simulation time: 1 hr 22 min 25 sec) 
Heartbeat CPU 1 instructions: 370000001 cycles: 265840331 heartbeat IPC: 0.955232 cumulative IPC: 0.956686 (Simulation time: 1 hr 24 min 35 sec) 
Heartbeat CPU 3 instructions: 360000000 cycles: 265999997 heartbeat IPC: 1.00115 cumulative IPC: 0.999536 (Simulation time: 1 hr 24 min 37 sec) 
Heartbeat CPU 2 instructions: 380000000 cycles: 266763862 heartbeat IPC: 0.872692 cumulative IPC: 0.869453 (Simulation time: 1 hr 24 min 47 sec) 
Heartbeat CPU 0 instructions: 290000000 cycles: 270839449 heartbeat IPC: 0.475502 cumulative IPC: 0.457321 (Simulation time: 1 hr 25 min 41 sec) 
Heartbeat CPU 3 instructions: 370000000 cycles: 275982044 heartbeat IPC: 1.0018 cumulative IPC: 0.999669 (Simulation time: 1 hr 26 min 50 sec) 
Heartbeat CPU 1 instructions: 380000000 cycles: 276285575 heartbeat IPC: 0.957373 cumulative IPC: 0.956728 (Simulation time: 1 hr 26 min 54 sec) 
Heartbeat CPU 2 instructions: 390000003 cycles: 278242813 heartbeat IPC: 0.87116 cumulative IPC: 0.869566 (Simulation time: 1 hr 27 min 19 sec) 
Heartbeat CPU 3 instructions: 380000000 cycles: 286023000 heartbeat IPC: 0.995921 cumulative IPC: 0.99946 (Simulation time: 1 hr 29 min 3 sec) 
Heartbeat CPU 1 instructions: 390000001 cycles: 286730844 heartbeat IPC: 0.957371 cumulative IPC: 0.956765 (Simulation time: 1 hr 29 min 12 sec) 
Heartbeat CPU 2 instructions: 400000000 cycles: 289622442 heartbeat IPC: 0.878763 cumulative IPC: 0.870136 (Simulation time: 1 hr 29 min 51 sec) 
Heartbeat CPU 0 instructions: 300000000 cycles: 291973042 heartbeat IPC: 0.47318 cumulative IPC: 0.459123 (Simulation time: 1 hr 30 min 22 sec) 
Heartbeat CPU 3 instructions: 390000001 cycles: 296029625 heartbeat IPC: 0.999338 cumulative IPC: 0.999454 (Simulation time: 1 hr 31 min 15 sec) 
Heartbeat CPU 1 instructions: 400000000 cycles: 297184975 heartbeat IPC: 0.95656 cumulative IPC: 0.956754 (Simulation time: 1 hr 31 min 31 sec) 
Heartbeat CPU 2 instructions: 410000000 cycles: 301014496 heartbeat IPC: 0.877805 cumulative IPC: 0.870584 (Simulation time: 1 hr 32 min 23 sec) 
Heartbeat CPU 3 instructions: 400000000 cycles: 306020718 heartbeat IPC: 1.00089 cumulative IPC: 0.999526 (Simulation time: 1 hr 33 min 29 sec) 
Heartbeat CPU 1 instructions: 410000000 cycles: 307622776 heartbeat IPC: 0.958056 cumulative IPC: 0.956821 (Simulation time: 1 hr 33 min 50 sec) 
Heartbeat CPU 2 instructions: 420000000 cycles: 312479105 heartbeat IPC: 0.87225 cumulative IPC: 0.870676 (Simulation time: 1 hr 34 min 54 sec) 
Heartbeat CPU 0 instructions: 310000001 cycles: 313105310 heartbeat IPC: 0.47321 cumulative IPC: 0.460559 (Simulation time: 1 hr 35 min 2 sec) 
Heartbeat CPU 3 instructions: 410000000 cycles: 316002246 heartbeat IPC: 1.00185 cumulative IPC: 0.999636 (Simulation time: 1 hr 35 min 45 sec) 
Heartbeat CPU 1 instructions: 420000000 cycles: 318085033 heartbeat IPC: 0.955817 cumulative IPC: 0.956772 (Simulation time: 1 hr 36 min 43 sec) 
Heartbeat CPU 2 instructions: 430000003 cycles: 323880646 heartbeat IPC: 0.877075 cumulative IPC: 0.871011 (Simulation time: 1 hr 39 min 28 sec) 
Heartbeat CPU 3 instructions: 420000000 cycles: 326015410 heartbeat IPC: 0.998685 cumulative IPC: 0.999593 (Simulation time: 1 hr 40 min 30 sec) 
Heartbeat CPU 1 instructions: 430000000 cycles: 328536719 heartbeat IPC: 0.956783 cumulative IPC: 0.956772 (Simulation time: 1 hr 41 min 41 sec) 
Heartbeat CPU 0 instructions: 320000000 cycles: 333846094 heartbeat IPC: 0.482142 cumulative IPC: 0.462523 (Simulation time: 1 hr 43 min 23 sec) 
Heartbeat CPU 2 instructions: 440000000 cycles: 335354606 heartbeat IPC: 0.871538 cumulative IPC: 0.871037 (Simulation time: 1 hr 43 min 43 sec) 
Heartbeat CPU 3 instructions: 430000000 cycles: 336039554 heartbeat IPC: 0.997591 cumulative IPC: 0.999506 (Simulation time: 1 hr 43 min 53 sec) 
Heartbeat CPU 1 instructions: 440000000 cycles: 339022019 heartbeat IPC: 0.953716 cumulative IPC: 0.956635 (Simulation time: 1 hr 44 min 34 sec) 
Heartbeat CPU 3 instructions: 440000000 cycles: 346038941 heartbeat IPC: 1.00006 cumulative IPC: 0.999529 (Simulation time: 1 hr 46 min 9 sec) 
Heartbeat CPU 2 instructions: 450000000 cycles: 346779021 heartbeat IPC: 0.875318 cumulative IPC: 0.87124 (Simulation time: 1 hr 46 min 19 sec) 
Heartbeat CPU 1 instructions: 450000000 cycles: 349481569 heartbeat IPC: 0.956064 cumulative IPC: 0.95661 (Simulation time: 1 hr 46 min 55 sec) 
Heartbeat CPU 0 instructions: 330000002 cycles: 354429941 heartbeat IPC: 0.485818 cumulative IPC: 0.464453 (Simulation time: 1 hr 48 min 3 sec) 
Heartbeat CPU 3 instructions: 450000000 cycles: 356076014 heartbeat IPC: 0.996306 cumulative IPC: 0.999399 (Simulation time: 1 hr 48 min 25 sec) 
Heartbeat CPU 2 instructions: 460000000 cycles: 358244164 heartbeat IPC: 0.872209 cumulative IPC: 0.871284 (Simulation time: 1 hr 48 min 55 sec) 
Heartbeat CPU 1 instructions: 460000000 cycles: 359916961 heartbeat IPC: 0.958277 cumulative IPC: 0.956679 (Simulation time: 1 hr 49 min 18 sec) 
Heartbeat CPU 3 instructions: 460000000 cycles: 366051903 heartbeat IPC: 1.00242 cumulative IPC: 0.999515 (Simulation time: 1 hr 50 min 41 sec) 
Heartbeat CPU 2 instructions: 470000000 cycles: 369707210 heartbeat IPC: 0.872368 cumulative IPC: 0.871332 (Simulation time: 1 hr 51 min 31 sec) 
Heartbeat CPU 1 instructions: 470000001 cycles: 370362358 heartbeat IPC: 0.95736 cumulative IPC: 0.956706 (Simulation time: 1 hr 51 min 39 sec) 
Heartbeat CPU 0 instructions: 340000000 cycles: 375009019 heartbeat IPC: 0.48593 cumulative IPC: 0.466095 (Simulation time: 1 hr 52 min 43 sec) 
Heartbeat CPU 3 instructions: 470000000 cycles: 376032530 heartbeat IPC: 1.00194 cumulative IPC: 0.999605 (Simulation time: 1 hr 52 min 57 sec) 
Heartbeat CPU 1 instructions: 480000000 cycles: 380819557 heartbeat IPC: 0.956279 cumulative IPC: 0.95669 (Simulation time: 1 hr 54 min 2 sec) 
Heartbeat CPU 2 instructions: 480000000 cycles: 381172111 heartbeat IPC: 0.872227 cumulative IPC: 0.871369 (Simulation time: 1 hr 54 min 7 sec) 
Heartbeat CPU 3 instructions: 480000000 cycles: 386000373 heartbeat IPC: 1.00323 cumulative IPC: 0.999734 (Simulation time: 1 hr 55 min 12 sec) 
Heartbeat CPU 1 instructions: 490000000 cycles: 391302508 heartbeat IPC: 0.95393 cumulative IPC: 0.956588 (Simulation time: 1 hr 56 min 25 sec) 
Heartbeat CPU 2 instructions: 490000002 cycles: 392648418 heartbeat IPC: 0.871361 cumulative IPC: 0.871369 (Simulation time: 1 hr 56 min 43 sec) 
Heartbeat CPU 3 instructions: 490000003 cycles: 396004391 heartbeat IPC: 0.999599 cumulative IPC: 0.999729 (Simulation time: 1 hr 57 min 28 sec) 
Heartbeat CPU 0 instructions: 350000000 cycles: 396178849 heartbeat IPC: 0.47237 cumulative IPC: 0.466553 (Simulation time: 1 hr 57 min 30 sec) 
Heartbeat CPU 1 instructions: 500000000 cycles: 401751877 heartbeat IPC: 0.956996 cumulative IPC: 0.956603 (Simulation time: 1 hr 58 min 45 sec) 
Heartbeat CPU 2 instructions: 500000000 cycles: 404119116 heartbeat IPC: 0.871786 cumulative IPC: 0.871385 (Simulation time: 1 hr 59 min 17 sec) 
Heartbeat CPU 3 instructions: 500000000 cycles: 406004012 heartbeat IPC: 1.00004 cumulative IPC: 0.999739 (Simulation time: 1 hr 59 min 43 sec) 
Heartbeat CPU 1 instructions: 510000003 cycles: 412204990 heartbeat IPC: 0.956653 cumulative IPC: 0.956604 (Simulation time: 2 hr 1 min 7 sec) 
Heartbeat CPU 2 instructions: 510000000 cycles: 415582483 heartbeat IPC: 0.872344 cumulative IPC: 0.87142 (Simulation time: 2 hr 1 min 52 sec) 
Heartbeat CPU 3 instructions: 510000002 cycles: 416023078 heartbeat IPC: 0.998097 cumulative IPC: 0.999686 (Simulation time: 2 hr 1 min 58 sec) 
Heartbeat CPU 0 instructions: 360000000 cycles: 417218465 heartbeat IPC: 0.475294 cumulative IPC: 0.467144 (Simulation time: 2 hr 2 min 15 sec) 
Heartbeat CPU 1 instructions: 520000000 cycles: 422660309 heartbeat IPC: 0.956451 cumulative IPC: 0.956599 (Simulation time: 2 hr 3 min 28 sec) 
Heartbeat CPU 3 instructions: 520000000 cycles: 426053816 heartbeat IPC: 0.996935 cumulative IPC: 0.9996 (Simulation time: 2 hr 4 min 15 sec) 
Heartbeat CPU 2 instructions: 520000000 cycles: 426988946 heartbeat IPC: 0.876696 cumulative IPC: 0.871608 (Simulation time: 2 hr 4 min 27 sec) 
Heartbeat CPU 1 instructions: 530000003 cycles: 433096710 heartbeat IPC: 0.958185 cumulative IPC: 0.95665 (Simulation time: 2 hr 5 min 49 sec) 
Heartbeat CPU 3 instructions: 530000003 cycles: 436081389 heartbeat IPC: 0.997251 cumulative IPC: 0.999529 (Simulation time: 2 hr 6 min 29 sec) 
Heartbeat CPU 2 instructions: 530000002 cycles: 438516514 heartbeat IPC: 0.867486 cumulative IPC: 0.871465 (Simulation time: 2 hr 7 min 2 sec) 
Heartbeat CPU 0 instructions: 370000000 cycles: 438729555 heartbeat IPC: 0.464877 cumulative IPC: 0.466997 (Simulation time: 2 hr 7 min 5 sec) 
Heartbeat CPU 1 instructions: 540000000 cycles: 443558650 heartbeat IPC: 0.955845 cumulative IPC: 0.956625 (Simulation time: 2 hr 8 min 10 sec) 
Heartbeat CPU 3 instructions: 540000000 cycles: 446079256 heartbeat IPC: 1.00021 cumulative IPC: 0.999549 (Simulation time: 2 hr 8 min 45 sec) 
Heartbeat CPU 2 instructions: 540000000 cycles: 450045476 heartbeat IPC: 0.867381 cumulative IPC: 0.871328 (Simulation time: 2 hr 9 min 38 sec) 
Heartbeat CPU 1 instructions: 550000000 cycles: 454021662 heartbeat IPC: 0.955748 cumulative IPC: 0.956599 (Simulation time: 2 hr 10 min 31 sec) 
Heartbeat CPU 3 instructions: 550000001 cycles: 456089777 heartbeat IPC: 0.998949 cumulative IPC: 0.999532 (Simulation time: 2 hr 11 min 0 sec) 
Heartbeat CPU 0 instructions: 380000000 cycles: 460213388 heartbeat IPC: 0.465466 cumulative IPC: 0.466905 (Simulation time: 2 hr 11 min 56 sec) 
Heartbeat CPU 2 instructions: 550000003 cycles: 461492513 heartbeat IPC: 0.873589 cumulative IPC: 0.871401 (Simulation time: 2 hr 12 min 13 sec) 
Heartbeat CPU 1 instructions: 560000000 cycles: 464475660 heartbeat IPC: 0.956572 cumulative IPC: 0.956598 (Simulation time: 2 hr 12 min 53 sec) 
Heartbeat CPU 3 instructions: 560000000 cycles: 466111132 heartbeat IPC: 0.997869 cumulative IPC: 0.999485 (Simulation time: 2 hr 13 min 16 sec) 
Heartbeat CPU 2 instructions: 560000000 cycles: 473037209 heartbeat IPC: 0.866198 cumulative IPC: 0.871237 (Simulation time: 2 hr 14 min 49 sec) 
Heartbeat CPU 1 instructions: 570000002 cycles: 474926280 heartbeat IPC: 0.956881 cumulative IPC: 0.956606 (Simulation time: 2 hr 15 min 14 sec) 
Heartbeat CPU 3 instructions: 570000003 cycles: 476055365 heartbeat IPC: 1.00561 cumulative IPC: 0.99965 (Simulation time: 2 hr 15 min 29 sec) 
Heartbeat CPU 0 instructions: 390000001 cycles: 481190412 heartbeat IPC: 0.476712 cumulative IPC: 0.467453 (Simulation time: 2 hr 16 min 38 sec) 
Heartbeat CPU 2 instructions: 570000003 cycles: 484485173 heartbeat IPC: 0.873518 cumulative IPC: 0.871306 (Simulation time: 2 hr 17 min 23 sec) 
Heartbeat CPU 1 instructions: 580000000 cycles: 485352092 heartbeat IPC: 0.959158 cumulative IPC: 0.956676 (Simulation time: 2 hr 17 min 34 sec) 
Heartbeat CPU 3 instructions: 580000000 cycles: 486070271 heartbeat IPC: 0.998511 cumulative IPC: 0.99962 (Simulation time: 2 hr 17 min 44 sec) 
Heartbeat CPU 1 instructions: 590000002 cycles: 495815835 heartbeat IPC: 0.955681 cumulative IPC: 0.956649 (Simulation time: 2 hr 19 min 56 sec) 
Heartbeat CPU 2 instructions: 580000000 cycles: 495963612 heartbeat IPC: 0.871198 cumulative IPC: 0.871303 (Simulation time: 2 hr 19 min 58 sec) 
Heartbeat CPU 3 instructions: 590000001 cycles: 496103471 heartbeat IPC: 0.996691 cumulative IPC: 0.999545 (Simulation time: 2 hr 19 min 59 sec) 
Heartbeat CPU 0 instructions: 400000000 cycles: 502696476 heartbeat IPC: 0.464985 cumulative IPC: 0.467319 (Simulation time: 2 hr 21 min 29 sec) 
Heartbeat CPU 3 instructions: 600000000 cycles: 506094670 heartbeat IPC: 1.00088 cumulative IPC: 0.999578 (Simulation time: 2 hr 22 min 15 sec) 
Heartbeat CPU 1 instructions: 600000000 cycles: 506269607 heartbeat IPC: 0.956592 cumulative IPC: 0.956648 (Simulation time: 2 hr 22 min 17 sec) 
Heartbeat CPU 2 instructions: 590000001 cycles: 507453584 heartbeat IPC: 0.870324 cumulative IPC: 0.871275 (Simulation time: 2 hr 22 min 33 sec) 
Heartbeat CPU 3 instructions: 610000000 cycles: 516088954 heartbeat IPC: 1.00057 cumulative IPC: 0.999602 (Simulation time: 2 hr 24 min 31 sec) 
Heartbeat CPU 1 instructions: 610000002 cycles: 516723929 heartbeat IPC: 0.956542 cumulative IPC: 0.956645 (Simulation time: 2 hr 24 min 39 sec) 
Heartbeat CPU 2 instructions: 600000000 cycles: 518839042 heartbeat IPC: 0.878313 cumulative IPC: 0.871469 (Simulation time: 2 hr 25 min 8 sec) 
Heartbeat CPU 0 instructions: 410000000 cycles: 524042713 heartbeat IPC: 0.468467 cumulative IPC: 0.467378 (Simulation time: 2 hr 26 min 18 sec) 
Heartbeat CPU 3 instructions: 620000000 cycles: 526163045 heartbeat IPC: 0.992645 cumulative IPC: 0.999435 (Simulation time: 2 hr 26 min 46 sec) 
Heartbeat CPU 1 instructions: 620000000 cycles: 527178889 heartbeat IPC: 0.956484 cumulative IPC: 0.956641 (Simulation time: 2 hr 27 min 1 sec) 
Heartbeat CPU 2 instructions: 610000003 cycles: 530450814 heartbeat IPC: 0.861195 cumulative IPC: 0.871188 (Simulation time: 2 hr 27 min 42 sec) 
Heartbeat CPU 3 instructions: 630000002 cycles: 536566516 heartbeat IPC: 0.961218 cumulative IPC: 0.998512 (Simulation time: 2 hr 28 min 58 sec) 
Heartbeat CPU 2 instructions: 620000000 cycles: 541912220 heartbeat IPC: 0.872493 cumulative IPC: 0.871222 (Simulation time: 2 hr 30 min 6 sec) 
Heartbeat CPU 1 instructions: 630000000 cycles: 542611741 heartbeat IPC: 0.647968 cumulative IPC: 0.945732 (Simulation time: 2 hr 30 min 15 sec) 
Heartbeat CPU 0 instructions: 420000000 cycles: 544781173 heartbeat IPC: 0.482196 cumulative IPC: 0.468078 (Simulation time: 2 hr 30 min 43 sec) 
Heartbeat CPU 3 instructions: 640000000 cycles: 546484824 heartbeat IPC: 1.00824 cumulative IPC: 0.998731 (Simulation time: 2 hr 31 min 5 sec) 
Heartbeat CPU 2 instructions: 630000001 cycles: 552663521 heartbeat IPC: 0.93012 cumulative IPC: 0.87264 (Simulation time: 2 hr 32 min 26 sec) 
Heartbeat CPU 3 instructions: 650000000 cycles: 556349756 heartbeat IPC: 1.01369 cumulative IPC: 0.999059 (Simulation time: 2 hr 33 min 14 sec) 
Heartbeat CPU 1 instructions: 640000000 cycles: 558210206 heartbeat IPC: 0.641089 cumulative IPC: 0.935226 (Simulation time: 2 hr 33 min 38 sec) 
Heartbeat CPU 2 instructions: 640000000 cycles: 563429066 heartbeat IPC: 0.928889 cumulative IPC: 0.873963 (Simulation time: 2 hr 34 min 50 sec) 
Heartbeat CPU 0 instructions: 430000002 cycles: 564790729 heartbeat IPC: 0.499761 cumulative IPC: 0.469459 (Simulation time: 2 hr 35 min 8 sec) 
Heartbeat CPU 3 instructions: 660000000 cycles: 566251248 heartbeat IPC: 1.00995 cumulative IPC: 0.999293 (Simulation time: 2 hr 35 min 27 sec) 
Heartbeat CPU 1 instructions: 650000002 cycles: 573905141 heartbeat IPC: 0.637148 cumulative IPC: 0.925229 (Simulation time: 2 hr 37 min 6 sec) 
Heartbeat CPU 2 instructions: 650000003 cycles: 574171116 heartbeat IPC: 0.930921 cumulative IPC: 0.87527 (Simulation time: 2 hr 37 min 10 sec) 
Heartbeat CPU 3 instructions: 670000001 cycles: 576134330 heartbeat IPC: 1.01183 cumulative IPC: 0.999556 (Simulation time: 2 hr 37 min 35 sec) 
Heartbeat CPU 0 instructions: 440000000 cycles: 584689194 heartbeat IPC: 0.502551 cumulative IPC: 0.470835 (Simulation time: 2 hr 39 min 27 sec) 
Heartbeat CPU 2 instructions: 660000000 cycles: 584915363 heartbeat IPC: 0.93073 cumulative IPC: 0.876514 (Simulation time: 2 hr 39 min 29 sec) 
Heartbeat CPU 3 instructions: 680000000 cycles: 586053396 heartbeat IPC: 1.00816 cumulative IPC: 0.999734 (Simulation time: 2 hr 39 min 44 sec) 
Heartbeat CPU 1 instructions: 660000000 cycles: 589538980 heartbeat IPC: 0.639638 cumulative IPC: 0.915997 (Simulation time: 2 hr 40 min 30 sec) 
Heartbeat CPU 2 instructions: 670000001 cycles: 595690461 heartbeat IPC: 0.928066 cumulative IPC: 0.877648 (Simulation time: 2 hr 41 min 49 sec) 
Heartbeat CPU 3 instructions: 690000003 cycles: 595934170 heartbeat IPC: 1.01207 cumulative IPC: 0.999983 (Simulation time: 2 hr 41 min 53 sec) 
Heartbeat CPU 0 instructions: 450000003 cycles: 604160132 heartbeat IPC: 0.513586 cumulative IPC: 0.472506 (Simulation time: 2 hr 43 min 40 sec) 
Heartbeat CPU 1 instructions: 670000001 cycles: 605219395 heartbeat IPC: 0.637738 cumulative IPC: 0.907258 (Simulation time: 2 hr 43 min 53 sec) 
Heartbeat CPU 3 instructions: 700000000 cycles: 605890370 heartbeat IPC: 1.0044 cumulative IPC: 1.00007 (Simulation time: 2 hr 44 min 2 sec) 
Heartbeat CPU 2 instructions: 680000000 cycles: 606385815 heartbeat IPC: 0.934985 cumulative IPC: 0.878874 (Simulation time: 2 hr 44 min 9 sec) 
Heartbeat CPU 3 instructions: 710000002 cycles: 615830060 heartbeat IPC: 1.00607 cumulative IPC: 1.00019 (Simulation time: 2 hr 46 min 11 sec) 
Heartbeat CPU 2 instructions: 690000000 cycles: 617121044 heartbeat IPC: 0.931512 cumulative IPC: 0.879979 (Simulation time: 2 hr 46 min 28 sec) 
Heartbeat CPU 1 instructions: 680000000 cycles: 620936382 heartbeat IPC: 0.636254 cumulative IPC: 0.898987 (Simulation time: 2 hr 47 min 17 sec) 
Heartbeat CPU 0 instructions: 460000000 cycles: 624198216 heartbeat IPC: 0.49905 cumulative IPC: 0.473532 (Simulation time: 2 hr 48 min 0 sec) 
Heartbeat CPU 3 instructions: 720000000 cycles: 625759378 heartbeat IPC: 1.00712 cumulative IPC: 1.00032 (Simulation time: 2 hr 48 min 20 sec) 
Heartbeat CPU 2 instructions: 700000000 cycles: 627894694 heartbeat IPC: 0.928191 cumulative IPC: 0.880974 (Simulation time: 2 hr 48 min 48 sec) 
Heartbeat CPU 3 instructions: 730000000 cycles: 635655448 heartbeat IPC: 1.0105 cumulative IPC: 1.00051 (Simulation time: 2 hr 50 min 28 sec) 
Heartbeat CPU 1 instructions: 690000001 cycles: 636444196 heartbeat IPC: 0.644836 cumulative IPC: 0.891558 (Simulation time: 2 hr 50 min 39 sec) 
Heartbeat CPU 2 instructions: 710000000 cycles: 638630437 heartbeat IPC: 0.931468 cumulative IPC: 0.881992 (Simulation time: 2 hr 51 min 7 sec) 
Heartbeat CPU 0 instructions: 470000002 cycles: 644247745 heartbeat IPC: 0.498765 cumulative IPC: 0.474472 (Simulation time: 2 hr 52 min 20 sec) 
Heartbeat CPU 3 instructions: 740000000 cycles: 645529061 heartbeat IPC: 1.0128 cumulative IPC: 1.00074 (Simulation time: 2 hr 52 min 37 sec) 
Heartbeat CPU 2 instructions: 720000000 cycles: 649363132 heartbeat IPC: 0.931732 cumulative IPC: 0.882974 (Simulation time: 2 hr 53 min 27 sec) 
Heartbeat CPU 1 instructions: 700000000 cycles: 652135055 heartbeat IPC: 0.637314 cumulative IPC: 0.884255 (Simulation time: 2 hr 54 min 3 sec) 
Heartbeat CPU 3 instructions: 750000001 cycles: 655396491 heartbeat IPC: 1.01344 cumulative IPC: 1.00096 (Simulation time: 2 hr 54 min 45 sec) 
Heartbeat CPU 2 instructions: 730000000 cycles: 660132991 heartbeat IPC: 0.928517 cumulative IPC: 0.883859 (Simulation time: 2 hr 55 min 49 sec) 
Heartbeat CPU 0 instructions: 480000000 cycles: 664394520 heartbeat IPC: 0.496357 cumulative IPC: 0.475261 (Simulation time: 2 hr 56 min 52 sec) 
Heartbeat CPU 3 instructions: 760000000 cycles: 665296688 heartbeat IPC: 1.01008 cumulative IPC: 1.00112 (Simulation time: 2 hr 57 min 5 sec) 
Heartbeat CPU 1 instructions: 710000001 cycles: 667742375 heartbeat IPC: 0.640725 cumulative IPC: 0.877489 (Simulation time: 2 hr 57 min 40 sec) 
Heartbeat CPU 2 instructions: 740000000 cycles: 670886350 heartbeat IPC: 0.929942 cumulative IPC: 0.884736 (Simulation time: 2 hr 58 min 24 sec) 
Heartbeat CPU 3 instructions: 770000003 cycles: 675179645 heartbeat IPC: 1.01184 cumulative IPC: 1.00131 (Simulation time: 2 hr 59 min 24 sec) 
Heartbeat CPU 2 instructions: 750000002 cycles: 681639842 heartbeat IPC: 0.929931 cumulative IPC: 0.88558 (Simulation time: 3 hr 0 min 52 sec) 
Heartbeat CPU 1 instructions: 720000000 cycles: 683407408 heartbeat IPC: 0.638364 cumulative IPC: 0.871003 (Simulation time: 3 hr 1 min 19 sec) 
Heartbeat CPU 0 instructions: 490000001 cycles: 684303887 heartbeat IPC: 0.502276 cumulative IPC: 0.476191 (Simulation time: 3 hr 1 min 31 sec) 
Heartbeat CPU 3 instructions: 780000000 cycles: 685118576 heartbeat IPC: 1.00614 cumulative IPC: 1.00139 (Simulation time: 3 hr 1 min 42 sec) 
Heartbeat CPU 2 instructions: 760000000 cycles: 692378184 heartbeat IPC: 0.931242 cumulative IPC: 0.886416 (Simulation time: 3 hr 3 min 31 sec) 
Heartbeat CPU 3 instructions: 790000002 cycles: 695046844 heartbeat IPC: 1.00723 cumulative IPC: 1.00149 (Simulation time: 3 hr 4 min 12 sec) 
Heartbeat CPU 1 instructions: 730000000 cycles: 698906717 heartbeat IPC: 0.64519 cumulative IPC: 0.8651 (Simulation time: 3 hr 5 min 7 sec) 
Heartbeat CPU 2 instructions: 770000000 cycles: 703190298 heartbeat IPC: 0.924888 cumulative IPC: 0.887113 (Simulation time: 3 hr 6 min 5 sec) 
Heartbeat CPU 0 instructions: 500000000 cycles: 704466259 heartbeat IPC: 0.495973 cumulative IPC: 0.476857 (Simulation time: 3 hr 6 min 22 sec) 
Heartbeat CPU 3 instructions: 800000000 cycles: 704874747 heartbeat IPC: 1.01751 cumulative IPC: 1.00175 (Simulation time: 3 hr 6 min 28 sec) 
Heartbeat CPU 2 instructions: 780000000 cycles: 713985148 heartbeat IPC: 0.926368 cumulative IPC: 0.88781 (Simulation time: 3 hr 8 min 38 sec) 
Heartbeat CPU 1 instructions: 740000000 cycles: 714574456 heartbeat IPC: 0.638254 cumulative IPC: 0.859261 (Simulation time: 3 hr 8 min 49 sec) 
Heartbeat CPU 3 instructions: 810000000 cycles: 714786172 heartbeat IPC: 1.00894 cumulative IPC: 1.00187 (Simulation time: 3 hr 8 min 52 sec) 
Heartbeat CPU 3 instructions: 820000000 cycles: 724646164 heartbeat IPC: 1.0142 cumulative IPC: 1.00207 (Simulation time: 3 hr 10 min 59 sec) 
Heartbeat CPU 2 instructions: 790000000 cycles: 724821862 heartbeat IPC: 0.922789 cumulative IPC: 0.888422 (Simulation time: 3 hr 11 min 2 sec) 
Heartbeat CPU 0 instructions: 510000000 cycles: 724963612 heartbeat IPC: 0.487868 cumulative IPC: 0.477222 (Simulation time: 3 hr 11 min 4 sec) 
Heartbeat CPU 1 instructions: 750000000 cycles: 730278317 heartbeat IPC: 0.636786 cumulative IPC: 0.853665 (Simulation time: 3 hr 12 min 12 sec) 
Heartbeat CPU 3 instructions: 830000002 cycles: 734560893 heartbeat IPC: 1.0086 cumulative IPC: 1.00217 (Simulation time: 3 hr 13 min 6 sec) 
Heartbeat CPU 2 instructions: 800000000 cycles: 735562500 heartbeat IPC: 0.931043 cumulative IPC: 0.889149 (Simulation time: 3 hr 13 min 19 sec) 
Heartbeat CPU 3 instructions: 840000000 cycles: 744461191 heartbeat IPC: 1.01007 cumulative IPC: 1.00229 (Simulation time: 3 hr 15 min 13 sec) 
Heartbeat CPU 0 instructions: 520000000 cycles: 744918187 heartbeat IPC: 0.501138 cumulative IPC: 0.477969 (Simulation time: 3 hr 15 min 18 sec) 
Heartbeat CPU 1 instructions: 760000000 cycles: 745915578 heartbeat IPC: 0.639498 cumulative IPC: 0.848432 (Simulation time: 3 hr 15 min 31 sec) 
Heartbeat CPU 2 instructions: 810000001 cycles: 746311533 heartbeat IPC: 0.930316 cumulative IPC: 0.88984 (Simulation time: 3 hr 15 min 36 sec) 
Heartbeat CPU 3 instructions: 850000001 cycles: 754340664 heartbeat IPC: 1.0122 cumulative IPC: 1.00244 (Simulation time: 3 hr 17 min 18 sec) 
Heartbeat CPU 2 instructions: 820000000 cycles: 757099597 heartbeat IPC: 0.92695 cumulative IPC: 0.890455 (Simulation time: 3 hr 17 min 53 sec) 
Heartbeat CPU 1 instructions: 770000000 cycles: 761630032 heartbeat IPC: 0.636357 cumulative IPC: 0.84335 (Simulation time: 3 hr 18 min 51 sec) 
Heartbeat CPU 3 instructions: 860000000 cycles: 764243658 heartbeat IPC: 1.0098 cumulative IPC: 1.00256 (Simulation time: 3 hr 19 min 24 sec) 
Heartbeat CPU 0 instructions: 530000001 cycles: 765696490 heartbeat IPC: 0.481271 cumulative IPC: 0.478073 (Simulation time: 3 hr 19 min 43 sec) 
Heartbeat CPU 2 instructions: 830000003 cycles: 767902710 heartbeat IPC: 0.925659 cumulative IPC: 0.89103 (Simulation time: 3 hr 20 min 11 sec) 
Heartbeat CPU 3 instructions: 870000001 cycles: 774111805 heartbeat IPC: 1.01336 cumulative IPC: 1.00271 (Simulation time: 3 hr 21 min 42 sec) 
Heartbeat CPU 1 instructions: 780000000 cycles: 777262272 heartbeat IPC: 0.639704 cumulative IPC: 0.838608 (Simulation time: 3 hr 22 min 22 sec) 
Heartbeat CPU 2 instructions: 840000000 cycles: 778634702 heartbeat IPC: 0.931793 cumulative IPC: 0.89168 (Simulation time: 3 hr 22 min 40 sec) 
Heartbeat CPU 3 instructions: 880000000 cycles: 784015864 heartbeat IPC: 1.00969 cumulative IPC: 1.00282 (Simulation time: 3 hr 23 min 52 sec) 
Heartbeat CPU 0 instructions: 540000000 cycles: 786205905 heartbeat IPC: 0.487581 cumulative IPC: 0.47836 (Simulation time: 3 hr 24 min 23 sec) 
Heartbeat CPU 2 instructions: 850000001 cycles: 789435394 heartbeat IPC: 0.925867 cumulative IPC: 0.89222 (Simulation time: 3 hr 25 min 7 sec) 
Heartbeat CPU 1 instructions: 790000002 cycles: 792957466 heartbeat IPC: 0.637138 cumulative IPC: 0.834005 (Simulation time: 3 hr 25 min 55 sec) 
Heartbeat CPU 3 instructions: 890000003 cycles: 793915260 heartbeat IPC: 1.01016 cumulative IPC: 1.00292 (Simulation time: 3 hr 26 min 6 sec) 
Heartbeat CPU 2 instructions: 860000000 cycles: 800183306 heartbeat IPC: 0.930413 cumulative IPC: 0.892811 (Simulation time: 3 hr 27 min 26 sec) 
Heartbeat CPU 3 instructions: 900000000 cycles: 803844095 heartbeat IPC: 1.00717 cumulative IPC: 1.00298 (Simulation time: 3 hr 28 min 12 sec) 
Heartbeat CPU 0 instructions: 550000000 cycles: 806858387 heartbeat IPC: 0.484203 cumulative IPC: 0.478532 (Simulation time: 3 hr 28 min 50 sec) 
Heartbeat CPU 1 instructions: 800000000 cycles: 808560261 heartbeat IPC: 0.640911 cumulative IPC: 0.829717 (Simulation time: 3 hr 29 min 11 sec) 
Heartbeat CPU 2 instructions: 870000000 cycles: 810972190 heartbeat IPC: 0.92688 cumulative IPC: 0.893333 (Simulation time: 3 hr 29 min 42 sec) 
Heartbeat CPU 3 instructions: 910000002 cycles: 813749527 heartbeat IPC: 1.00955 cumulative IPC: 1.00307 (Simulation time: 3 hr 30 min 17 sec) 
Heartbeat CPU 2 instructions: 880000000 cycles: 821793095 heartbeat IPC: 0.924137 cumulative IPC: 0.893798 (Simulation time: 3 hr 31 min 58 sec) 
Heartbeat CPU 3 instructions: 920000000 cycles: 823689910 heartbeat IPC: 1.006 cumulative IPC: 1.00312 (Simulation time: 3 hr 32 min 21 sec) 
Heartbeat CPU 1 instructions: 810000003 cycles: 824294511 heartbeat IPC: 0.635556 cumulative IPC: 0.825465 (Simulation time: 3 hr 32 min 29 sec) 
Heartbeat CPU 0 instructions: 560000000 cycles: 827267754 heartbeat IPC: 0.489971 cumulative IPC: 0.478855 (Simulation time: 3 hr 33 min 7 sec) 
Heartbeat CPU 2 instructions: 890000003 cycles: 832627483 heartbeat IPC: 0.922987 cumulative IPC: 0.894234 (Simulation time: 3 hr 34 min 14 sec) 
Heartbeat CPU 3 instructions: 930000000 cycles: 833601223 heartbeat IPC: 1.00895 cumulative IPC: 1.00319 (Simulation time: 3 hr 34 min 26 sec) 
Heartbeat CPU 1 instructions: 820000000 cycles: 839988253 heartbeat IPC: 0.637196 cumulative IPC: 0.82144 (Simulation time: 3 hr 35 min 47 sec) 
Heartbeat CPU 2 instructions: 900000000 cycles: 843407737 heartbeat IPC: 0.927622 cumulative IPC: 0.894722 (Simulation time: 3 hr 36 min 36 sec) 
Heartbeat CPU 3 instructions: 940000000 cycles: 843481872 heartbeat IPC: 1.01208 cumulative IPC: 1.00331 (Simulation time: 3 hr 36 min 37 sec) 
Heartbeat CPU 0 instructions: 570000000 cycles: 847477094 heartbeat IPC: 0.494821 cumulative IPC: 0.47929 (Simulation time: 3 hr 37 min 31 sec) 
Heartbeat CPU 3 instructions: 950000002 cycles: 853340977 heartbeat IPC: 1.01429 cumulative IPC: 1.00346 (Simulation time: 3 hr 38 min 55 sec) 
Heartbeat CPU 2 instructions: 910000002 cycles: 854187052 heartbeat IPC: 0.927703 cumulative IPC: 0.895197 (Simulation time: 3 hr 39 min 6 sec) 
Heartbeat CPU 1 instructions: 830000000 cycles: 855612777 heartbeat IPC: 0.640019 cumulative IPC: 0.817659 (Simulation time: 3 hr 39 min 27 sec) 
Heartbeat CPU 3 instructions: 960000000 cycles: 863283647 heartbeat IPC: 1.00577 cumulative IPC: 1.00349 (Simulation time: 3 hr 41 min 10 sec) 
Heartbeat CPU 2 instructions: 920000000 cycles: 864982526 heartbeat IPC: 0.926314 cumulative IPC: 0.895639 (Simulation time: 3 hr 41 min 32 sec) 
Heartbeat CPU 0 instructions: 580000000 cycles: 868353048 heartbeat IPC: 0.47902 cumulative IPC: 0.479283 (Simulation time: 3 hr 42 min 14 sec) 
Heartbeat CPU 1 instructions: 840000000 cycles: 871298667 heartbeat IPC: 0.637516 cumulative IPC: 0.813967 (Simulation time: 3 hr 42 min 51 sec) 
Heartbeat CPU 3 instructions: 970000000 cycles: 873186272 heartbeat IPC: 1.00983 cumulative IPC: 1.00357 (Simulation time: 3 hr 43 min 15 sec) 
Heartbeat CPU 2 instructions: 930000000 cycles: 875780971 heartbeat IPC: 0.926059 cumulative IPC: 0.896066 (Simulation time: 3 hr 43 min 48 sec) 
Heartbeat CPU 3 instructions: 980000000 cycles: 883087764 heartbeat IPC: 1.00995 cumulative IPC: 1.00365 (Simulation time: 3 hr 45 min 21 sec) 
Heartbeat CPU 2 instructions: 940000000 cycles: 886543472 heartbeat IPC: 0.929152 cumulative IPC: 0.896522 (Simulation time: 3 hr 46 min 4 sec) 
Heartbeat CPU 1 instructions: 850000001 cycles: 886915420 heartbeat IPC: 0.640338 cumulative IPC: 0.810495 (Simulation time: 3 hr 46 min 9 sec) 
Heartbeat CPU 0 instructions: 590000002 cycles: 888863978 heartbeat IPC: 0.487545 cumulative IPC: 0.4795 (Simulation time: 3 hr 46 min 34 sec) 
Heartbeat CPU 3 instructions: 990000003 cycles: 892999050 heartbeat IPC: 1.00895 cumulative IPC: 1.00372 (Simulation time: 3 hr 47 min 26 sec) 
Heartbeat CPU 2 instructions: 950000002 cycles: 897250067 heartbeat IPC: 0.934004 cumulative IPC: 0.897029 (Simulation time: 3 hr 48 min 19 sec) 
Heartbeat CPU 1 instructions: 860000000 cycles: 902632429 heartbeat IPC: 0.636253 cumulative IPC: 0.807057 (Simulation time: 3 hr 49 min 28 sec) 
Heartbeat CPU 3 instructions: 1000000000 cycles: 902862318 heartbeat IPC: 1.01386 cumulative IPC: 1.00384 (Simulation time: 3 hr 49 min 31 sec) 
Heartbeat CPU 2 instructions: 960000000 cycles: 908010124 heartbeat IPC: 0.929363 cumulative IPC: 0.897463 (Simulation time: 3 hr 50 min 36 sec) 
Heartbeat CPU 0 instructions: 600000000 cycles: 909549543 heartbeat IPC: 0.483429 cumulative IPC: 0.479601 (Simulation time: 3 hr 50 min 55 sec) 
Heartbeat CPU 3 instructions: 1010000000 cycles: 912769861 heartbeat IPC: 1.00933 cumulative IPC: 1.00391 (Simulation time: 3 hr 51 min 39 sec) 
Heartbeat CPU 1 instructions: 870000001 cycles: 918271948 heartbeat IPC: 0.639406 cumulative IPC: 0.80383 (Simulation time: 3 hr 52 min 58 sec) 
Heartbeat CPU 2 instructions: 970000000 cycles: 918866656 heartbeat IPC: 0.921104 cumulative IPC: 0.897779 (Simulation time: 3 hr 53 min 7 sec) 
Heartbeat CPU 3 instructions: 1020000000 cycles: 922668659 heartbeat IPC: 1.01022 cumulative IPC: 1.00399 (Simulation time: 3 hr 54 min 5 sec) 
Heartbeat CPU 2 instructions: 980000000 cycles: 929635545 heartbeat IPC: 0.928601 cumulative IPC: 0.898182 (Simulation time: 3 hr 55 min 42 sec) 
Heartbeat CPU 0 instructions: 610000003 cycles: 930794930 heartbeat IPC: 0.470691 cumulative IPC: 0.479371 (Simulation time: 3 hr 55 min 59 sec) 
Heartbeat CPU 3 instructions: 1030000002 cycles: 932548498 heartbeat IPC: 1.01216 cumulative IPC: 1.00409 (Simulation time: 3 hr 56 min 25 sec) 
Heartbeat CPU 1 instructions: 880000000 cycles: 933974372 heartbeat IPC: 0.636844 cumulative IPC: 0.800663 (Simulation time: 3 hr 56 min 45 sec) 
Heartbeat CPU 2 instructions: 990000000 cycles: 940416073 heartbeat IPC: 0.927598 cumulative IPC: 0.898562 (Simulation time: 3 hr 58 min 18 sec) 
Heartbeat CPU 3 instructions: 1040000000 cycles: 942429849 heartbeat IPC: 1.01201 cumulative IPC: 1.00418 (Simulation time: 3 hr 58 min 46 sec) 
Heartbeat CPU 1 instructions: 890000003 cycles: 949648901 heartbeat IPC: 0.637978 cumulative IPC: 0.797641 (Simulation time: 4 hr 0 min 29 sec) 
Heartbeat CPU 2 instructions: 1000000000 cycles: 951181402 heartbeat IPC: 0.928908 cumulative IPC: 0.898948 (Simulation time: 4 hr 0 min 50 sec) 
Heartbeat CPU 0 instructions: 620000000 cycles: 951666787 heartbeat IPC: 0.479114 cumulative IPC: 0.479365 (Simulation time: 4 hr 0 min 57 sec) 
Heartbeat CPU 3 instructions: 1050000002 cycles: 952271461 heartbeat IPC: 1.01609 cumulative IPC: 1.00432 (Simulation time: 4 hr 1 min 4 sec) 
Heartbeat CPU 2 instructions: 1010000001 cycles: 961966605 heartbeat IPC: 0.927196 cumulative IPC: 0.899304 (Simulation time: 4 hr 3 min 18 sec) 
Heartbeat CPU 3 instructions: 1060000000 cycles: 962160920 heartbeat IPC: 1.01118 cumulative IPC: 1.0044 (Simulation time: 4 hr 3 min 22 sec) 
Heartbeat CPU 1 instructions: 900000000 cycles: 965290738 heartbeat IPC: 0.639311 cumulative IPC: 0.794759 (Simulation time: 4 hr 4 min 10 sec) 
Heartbeat CPU 3 instructions: 1070000000 cycles: 972109050 heartbeat IPC: 1.00521 cumulative IPC: 1.00441 (Simulation time: 4 hr 5 min 48 sec) 
Heartbeat CPU 2 instructions: 1020000000 cycles: 972794177 heartbeat IPC: 0.923568 cumulative IPC: 0.899607 (Simulation time: 4 hr 5 min 58 sec) 
Heartbeat CPU 0 instructions: 630000002 cycles: 972982927 heartbeat IPC: 0.469128 cumulative IPC: 0.479113 (Simulation time: 4 hr 6 min 1 sec) 
Heartbeat CPU 1 instructions: 910000001 cycles: 980962388 heartbeat IPC: 0.638095 cumulative IPC: 0.791953 (Simulation time: 4 hr 8 min 1 sec) 
Heartbeat CPU 3 instructions: 1080000000 cycles: 981930488 heartbeat IPC: 1.01818 cumulative IPC: 1.00456 (Simulation time: 4 hr 8 min 15 sec) 
Heartbeat CPU 2 instructions: 1030000003 cycles: 983598190 heartbeat IPC: 0.925582 cumulative IPC: 0.899927 (Simulation time: 4 hr 8 min 36 sec) 
Heartbeat CPU 3 instructions: 1090000000 cycles: 991845599 heartbeat IPC: 1.00856 cumulative IPC: 1.00461 (Simulation time: 4 hr 10 min 21 sec) 
Heartbeat CPU 0 instructions: 640000000 cycles: 994172698 heartbeat IPC: 0.471926 cumulative IPC: 0.478942 (Simulation time: 4 hr 10 min 51 sec) 
Heartbeat CPU 2 instructions: 1040000000 cycles: 994388329 heartbeat IPC: 0.926772 cumulative IPC: 0.900253 (Simulation time: 4 hr 10 min 53 sec) 
Heartbeat CPU 1 instructions: 920000000 cycles: 996536570 heartbeat IPC: 0.642088 cumulative IPC: 0.789332 (Simulation time: 4 hr 11 min 20 sec) 
Heartbeat CPU 3 instructions: 1100000000 cycles: 1001766277 heartbeat IPC: 1.008 cumulative IPC: 1.00464 (Simulation time: 4 hr 12 min 26 sec) 
Heartbeat CPU 2 instructions: 1050000001 cycles: 1005166846 heartbeat IPC: 0.927772 cumulative IPC: 0.900583 (Simulation time: 4 hr 13 min 10 sec) 
Heartbeat CPU 3 instructions: 1110000000 cycles: 1011648337 heartbeat IPC: 1.01193 cumulative IPC: 1.00472 (Simulation time: 4 hr 14 min 32 sec) 
Heartbeat CPU 1 instructions: 930000000 cycles: 1012214163 heartbeat IPC: 0.637853 cumulative IPC: 0.786712 (Simulation time: 4 hr 14 min 39 sec) 
Heartbeat CPU 0 instructions: 650000001 cycles: 1015585138 heartbeat IPC: 0.467018 cumulative IPC: 0.478661 (Simulation time: 4 hr 15 min 22 sec) 
Heartbeat CPU 2 instructions: 1060000000 cycles: 1015965832 heartbeat IPC: 0.926013 cumulative IPC: 0.900885 (Simulation time: 4 hr 15 min 27 sec) 
Heartbeat CPU 3 instructions: 1120000000 cycles: 1021560711 heartbeat IPC: 1.00884 cumulative IPC: 1.00477 (Simulation time: 4 hr 16 min 38 sec) 
Heartbeat CPU 2 instructions: 1070000002 cycles: 1026776545 heartbeat IPC: 0.925009 cumulative IPC: 0.901168 (Simulation time: 4 hr 17 min 45 sec) 
Heartbeat CPU 1 instructions: 940000000 cycles: 1027822587 heartbeat IPC: 0.64068 cumulative IPC: 0.78424 (Simulation time: 4 hr 17 min 58 sec) 
Heartbeat CPU 3 instructions: 1130000000 cycles: 1031454803 heartbeat IPC: 1.0107 cumulative IPC: 1.00483 (Simulation time: 4 hr 18 min 44 sec) 
Heartbeat CPU 0 instructions: 660000000 cycles: 1036817484 heartbeat IPC: 0.470979 cumulative IPC: 0.478486 (Simulation time: 4 hr 19 min 52 sec) 
Heartbeat CPU 2 instructions: 1080000000 cycles: 1037550406 heartbeat IPC: 0.928172 cumulative IPC: 0.90148 (Simulation time: 4 hr 20 min 1 sec) 
Heartbeat CPU 3 instructions: 1140000000 cycles: 1041353608 heartbeat IPC: 1.01022 cumulative IPC: 1.00489 (Simulation time: 4 hr 20 min 49 sec) 
Heartbeat CPU 1 instructions: 950000002 cycles: 1043553689 heartbeat IPC: 0.635683 cumulative IPC: 0.781747 (Simulation time: 4 hr 21 min 15 sec) 
Heartbeat CPU 2 instructions: 1090000001 cycles: 1048310181 heartbeat IPC: 0.929388 cumulative IPC: 0.901799 (Simulation time: 4 hr 22 min 14 sec) 
Heartbeat CPU 3 instructions: 1150000001 cycles: 1051251506 heartbeat IPC: 1.01032 cumulative IPC: 1.00494 (Simulation time: 4 hr 22 min 51 sec) 
Heartbeat CPU 0 instructions: 670000001 cycles: 1057384947 heartbeat IPC: 0.486205 cumulative IPC: 0.478653 (Simulation time: 4 hr 24 min 9 sec) 
Heartbeat CPU 2 instructions: 1100000000 cycles: 1059114734 heartbeat IPC: 0.925536 cumulative IPC: 0.902068 (Simulation time: 4 hr 24 min 31 sec) 
Heartbeat CPU 1 instructions: 960000000 cycles: 1059174584 heartbeat IPC: 0.640168 cumulative IPC: 0.779427 (Simulation time: 4 hr 24 min 32 sec) 
Heartbeat CPU 3 instructions: 1160000000 cycles: 1061123983 heartbeat IPC: 1.01292 cumulative IPC: 1.00503 (Simulation time: 4 hr 24 min 56 sec) 
Heartbeat CPU 2 instructions: 1110000003 cycles: 1069949243 heartbeat IPC: 0.922977 cumulative IPC: 0.902303 (Simulation time: 4 hr 26 min 44 sec) 
Heartbeat CPU 3 instructions: 1170000000 cycles: 1071020671 heartbeat IPC: 1.01044 cumulative IPC: 1.00508 (Simulation time: 4 hr 26 min 57 sec) 
Heartbeat CPU 1 instructions: 970000000 cycles: 1074854157 heartbeat IPC: 0.637772 cumulative IPC: 0.777135 (Simulation time: 4 hr 27 min 44 sec) 
Heartbeat CPU 0 instructions: 680000000 cycles: 1078919257 heartbeat IPC: 0.464375 cumulative IPC: 0.478337 (Simulation time: 4 hr 28 min 32 sec) 
Heartbeat CPU 2 instructions: 1120000000 cycles: 1080726865 heartbeat IPC: 0.927848 cumulative IPC: 0.902585 (Simulation time: 4 hr 28 min 54 sec) 
Heartbeat CPU 3 instructions: 1180000000 cycles: 1080998517 heartbeat IPC: 1.00222 cumulative IPC: 1.00505 (Simulation time: 4 hr 28 min 57 sec) 
Heartbeat CPU 1 instructions: 980000000 cycles: 1090589993 heartbeat IPC: 0.635492 cumulative IPC: 0.774871 (Simulation time: 4 hr 30 min 53 sec) 
Heartbeat CPU 3 instructions: 1190000003 cycles: 1090845821 heartbeat IPC: 1.01551 cumulative IPC: 1.00516 (Simulation time: 4 hr 30 min 56 sec) 
Heartbeat CPU 2 instructions: 1130000001 cycles: 1091522045 heartbeat IPC: 0.926339 cumulative IPC: 0.902845 (Simulation time: 4 hr 31 min 4 sec) 
Heartbeat CPU 0 instructions: 690000003 cycles: 1099934029 heartbeat IPC: 0.475856 cumulative IPC: 0.478284 (Simulation time: 4 hr 32 min 45 sec) 
Heartbeat CPU 3 instructions: 1200000000 cycles: 1100731087 heartbeat IPC: 1.01161 cumulative IPC: 1.00522 (Simulation time: 4 hr 32 min 55 sec) 
Finished CPU 3 instructions: 1000000000 cycles: 994805308 cumulative IPC: 1.00522 (Simulation time: 4 hr 32 min 55 sec) 
Heartbeat CPU 2 instructions: 1140000000 cycles: 1102355915 heartbeat IPC: 0.923031 cumulative IPC: 0.903065 (Simulation time: 4 hr 33 min 14 sec) 
Heartbeat CPU 1 instructions: 990000000 cycles: 1106218435 heartbeat IPC: 0.639859 cumulative IPC: 0.772762 (Simulation time: 4 hr 34 min 1 sec) 
Heartbeat CPU 3 instructions: 1210000001 cycles: 1110629283 heartbeat IPC: 1.01029 cumulative IPC: 1.00527 (Simulation time: 4 hr 34 min 54 sec) 
Heartbeat CPU 2 instructions: 1150000000 cycles: 1113161614 heartbeat IPC: 0.925438 cumulative IPC: 0.903305 (Simulation time: 4 hr 35 min 24 sec) 
Heartbeat CPU 3 instructions: 1220000000 cycles: 1120562483 heartbeat IPC: 1.00672 cumulative IPC: 1.00529 (Simulation time: 4 hr 36 min 53 sec) 
Heartbeat CPU 0 instructions: 700000000 cycles: 1120904612 heartbeat IPC: 0.476858 cumulative IPC: 0.478255 (Simulation time: 4 hr 36 min 57 sec) 
Heartbeat CPU 1 instructions: 1000000000 cycles: 1121953994 heartbeat IPC: 0.635503 cumulative IPC: 0.770636 (Simulation time: 4 hr 37 min 10 sec) 
Heartbeat CPU 2 instructions: 1160000000 cycles: 1123942165 heartbeat IPC: 0.927596 cumulative IPC: 0.903562 (Simulation time: 4 hr 37 min 35 sec) 
Heartbeat CPU 3 instructions: 1230000002 cycles: 1130437647 heartbeat IPC: 1.01264 cumulative IPC: 1.00536 (Simulation time: 4 hr 38 min 52 sec) 
Heartbeat CPU 2 instructions: 1170000002 cycles: 1134752112 heartbeat IPC: 0.925074 cumulative IPC: 0.903788 (Simulation time: 4 hr 39 min 46 sec) 
Heartbeat CPU 1 instructions: 1010000001 cycles: 1137562854 heartbeat IPC: 0.640662 cumulative IPC: 0.76867 (Simulation time: 4 hr 40 min 22 sec) 
Heartbeat CPU 3 instructions: 1240000000 cycles: 1140299447 heartbeat IPC: 1.01401 cumulative IPC: 1.00544 (Simulation time: 4 hr 40 min 57 sec) 
Heartbeat CPU 0 instructions: 710000002 cycles: 1140979005 heartbeat IPC: 0.498147 cumulative IPC: 0.478641 (Simulation time: 4 hr 41 min 6 sec) 
Heartbeat CPU 2 instructions: 1180000000 cycles: 1145521094 heartbeat IPC: 0.928593 cumulative IPC: 0.904045 (Simulation time: 4 hr 42 min 4 sec) 
Heartbeat CPU 3 instructions: 1250000000 cycles: 1150172792 heartbeat IPC: 1.01283 cumulative IPC: 1.00551 (Simulation time: 4 hr 43 min 3 sec) 
Heartbeat CPU 1 instructions: 1020000000 cycles: 1152934953 heartbeat IPC: 0.650529 cumulative IPC: 0.766935 (Simulation time: 4 hr 43 min 38 sec) 
Heartbeat CPU 2 instructions: 1190000000 cycles: 1156281393 heartbeat IPC: 0.929342 cumulative IPC: 0.904304 (Simulation time: 4 hr 44 min 22 sec) 
Heartbeat CPU 3 instructions: 1260000000 cycles: 1160015414 heartbeat IPC: 1.01599 cumulative IPC: 1.00561 (Simulation time: 4 hr 45 min 9 sec) 
Heartbeat CPU 0 instructions: 720000000 cycles: 1161552284 heartbeat IPC: 0.486067 cumulative IPC: 0.478785 (Simulation time: 4 hr 45 min 29 sec) 
Heartbeat CPU 2 instructions: 1200000000 cycles: 1167054523 heartbeat IPC: 0.928235 cumulative IPC: 0.904547 (Simulation time: 4 hr 46 min 39 sec) 
Heartbeat CPU 1 instructions: 1030000001 cycles: 1168157209 heartbeat IPC: 0.656933 cumulative IPC: 0.765359 (Simulation time: 4 hr 46 min 53 sec) 
Heartbeat CPU 3 instructions: 1270000000 cycles: 1169898888 heartbeat IPC: 1.01179 cumulative IPC: 1.00566 (Simulation time: 4 hr 47 min 16 sec) 
Heartbeat CPU 2 instructions: 1210000002 cycles: 1177864357 heartbeat IPC: 0.925084 cumulative IPC: 0.904754 (Simulation time: 4 hr 48 min 58 sec) 
Heartbeat CPU 3 instructions: 1280000000 cycles: 1179767212 heartbeat IPC: 1.01334 cumulative IPC: 1.00574 (Simulation time: 4 hr 49 min 22 sec) 
Heartbeat CPU 0 instructions: 730000000 cycles: 1181739635 heartbeat IPC: 0.49536 cumulative IPC: 0.479096 (Simulation time: 4 hr 49 min 47 sec) 
Heartbeat CPU 1 instructions: 1040000000 cycles: 1183464393 heartbeat IPC: 0.653288 cumulative IPC: 0.763767 (Simulation time: 4 hr 50 min 9 sec) 
Heartbeat CPU 2 instructions: 1220000000 cycles: 1188635846 heartbeat IPC: 0.928377 cumulative IPC: 0.904989 (Simulation time: 4 hr 51 min 15 sec) 
Heartbeat CPU 3 instructions: 1290000001 cycles: 1189681354 heartbeat IPC: 1.00866 cumulative IPC: 1.00576 (Simulation time: 4 hr 51 min 29 sec) 
Heartbeat CPU 1 instructions: 1050000000 cycles: 1198780865 heartbeat IPC: 0.652892 cumulative IPC: 0.762213 (Simulation time: 4 hr 53 min 25 sec) 
Heartbeat CPU 2 instructions: 1230000001 cycles: 1199367352 heartbeat IPC: 0.931836 cumulative IPC: 0.905253 (Simulation time: 4 hr 53 min 32 sec) 
Heartbeat CPU 3 instructions: 1300000000 cycles: 1199603693 heartbeat IPC: 1.00783 cumulative IPC: 1.00578 (Simulation time: 4 hr 53 min 35 sec) 
Heartbeat CPU 0 instructions: 740000000 cycles: 1201684014 heartbeat IPC: 0.501394 cumulative IPC: 0.479502 (Simulation time: 4 hr 54 min 2 sec) 
Heartbeat CPU 3 instructions: 1310000000 cycles: 1209467108 heartbeat IPC: 1.01385 cumulative IPC: 1.00585 (Simulation time: 4 hr 55 min 42 sec) 
Heartbeat CPU 2 instructions: 1240000000 cycles: 1210160347 heartbeat IPC: 0.926527 cumulative IPC: 0.905461 (Simulation time: 4 hr 55 min 51 sec) 
Finished CPU 2 instructions: 1000000002 cycles: 1104401620 cumulative IPC: 0.905468 (Simulation time: 4 hr 55 min 53 sec) 
Heartbeat CPU 1 instructions: 1060000000 cycles: 1214029073 heartbeat IPC: 0.655815 cumulative IPC: 0.760749 (Simulation time: 4 hr 56 min 40 sec) 
Heartbeat CPU 3 instructions: 1320000000 cycles: 1219351043 heartbeat IPC: 1.01174 cumulative IPC: 1.00591 (Simulation time: 4 hr 57 min 48 sec) 
Heartbeat CPU 2 instructions: 1250000003 cycles: 1220960078 heartbeat IPC: 0.925949 cumulative IPC: 0.905659 (Simulation time: 4 hr 58 min 9 sec) 
Heartbeat CPU 0 instructions: 750000001 cycles: 1221666630 heartbeat IPC: 0.500435 cumulative IPC: 0.479877 (Simulation time: 4 hr 58 min 18 sec) 
Heartbeat CPU 3 instructions: 1330000000 cycles: 1229281327 heartbeat IPC: 1.00702 cumulative IPC: 1.00591 (Simulation time: 4 hr 59 min 55 sec) 
Heartbeat CPU 1 instructions: 1070000001 cycles: 1229319582 heartbeat IPC: 0.654001 cumulative IPC: 0.759296 (Simulation time: 4 hr 59 min 56 sec) 
Heartbeat CPU 2 instructions: 1260000000 cycles: 1231755327 heartbeat IPC: 0.926333 cumulative IPC: 0.905857 (Simulation time: 5 hr 0 min 26 sec) 
Heartbeat CPU 3 instructions: 1340000000 cycles: 1239170222 heartbeat IPC: 1.01124 cumulative IPC: 1.00596 (Simulation time: 5 hr 2 min 0 sec) 
Heartbeat CPU 0 instructions: 760000000 cycles: 1241652342 heartbeat IPC: 0.500357 cumulative IPC: 0.480238 (Simulation time: 5 hr 2 min 32 sec) 
Heartbeat CPU 2 instructions: 1270000001 cycles: 1242563551 heartbeat IPC: 0.925222 cumulative IPC: 0.906042 (Simulation time: 5 hr 2 min 44 sec) 
Heartbeat CPU 1 instructions: 1080000000 cycles: 1244548950 heartbeat IPC: 0.656626 cumulative IPC: 0.757922 (Simulation time: 5 hr 3 min 9 sec) 
Heartbeat CPU 3 instructions: 1350000002 cycles: 1249074952 heartbeat IPC: 1.00962 cumulative IPC: 1.00599 (Simulation time: 5 hr 4 min 5 sec) 
Heartbeat CPU 2 instructions: 1280000000 cycles: 1253326566 heartbeat IPC: 0.929108 cumulative IPC: 0.906258 (Simulation time: 5 hr 4 min 56 sec) 
Heartbeat CPU 3 instructions: 1360000000 cycles: 1258967904 heartbeat IPC: 1.01082 cumulative IPC: 1.00603 (Simulation time: 5 hr 6 min 4 sec) 
Heartbeat CPU 1 instructions: 1090000000 cycles: 1259840039 heartbeat IPC: 0.653976 cumulative IPC: 0.756545 (Simulation time: 5 hr 6 min 14 sec) 
Heartbeat CPU 0 instructions: 770000001 cycles: 1262098900 heartbeat IPC: 0.48908 cumulative IPC: 0.480394 (Simulation time: 5 hr 6 min 42 sec) 
Heartbeat CPU 2 instructions: 1290000003 cycles: 1264121594 heartbeat IPC: 0.926353 cumulative IPC: 0.906445 (Simulation time: 5 hr 7 min 6 sec) 
Heartbeat CPU 3 instructions: 1370000003 cycles: 1268846308 heartbeat IPC: 1.01231 cumulative IPC: 1.00609 (Simulation time: 5 hr 8 min 3 sec) 
Heartbeat CPU 2 instructions: 1300000000 cycles: 1274888826 heartbeat IPC: 0.928744 cumulative IPC: 0.906651 (Simulation time: 5 hr 9 min 16 sec) 
Heartbeat CPU 1 instructions: 1100000000 cycles: 1275142519 heartbeat IPC: 0.653489 cumulative IPC: 0.755196 (Simulation time: 5 hr 9 min 19 sec) 
Heartbeat CPU 3 instructions: 1380000000 cycles: 1278726649 heartbeat IPC: 1.01211 cumulative IPC: 1.00614 (Simulation time: 5 hr 10 min 2 sec) 
Heartbeat CPU 0 instructions: 780000000 cycles: 1282284100 heartbeat IPC: 0.495412 cumulative IPC: 0.480652 (Simulation time: 5 hr 10 min 46 sec) 
Heartbeat CPU 2 instructions: 1310000001 cycles: 1285643535 heartbeat IPC: 0.929825 cumulative IPC: 0.906862 (Simulation time: 5 hr 11 min 26 sec) 
Heartbeat CPU 3 instructions: 1390000003 cycles: 1288623905 heartbeat IPC: 1.01038 cumulative IPC: 1.00617 (Simulation time: 5 hr 12 min 2 sec) 
Heartbeat CPU 1 instructions: 1110000000 cycles: 1290440204 heartbeat IPC: 0.653694 cumulative IPC: 0.753885 (Simulation time: 5 hr 12 min 23 sec) 
Heartbeat CPU 2 instructions: 1320000000 cycles: 1296462251 heartbeat IPC: 0.924324 cumulative IPC: 0.907021 (Simulation time: 5 hr 13 min 36 sec) 
Heartbeat CPU 3 instructions: 1400000000 cycles: 1298576494 heartbeat IPC: 1.00476 cumulative IPC: 1.00616 (Simulation time: 5 hr 14 min 2 sec) 
Heartbeat CPU 0 instructions: 790000000 cycles: 1303209116 heartbeat IPC: 0.477897 cumulative IPC: 0.480603 (Simulation time: 5 hr 14 min 57 sec) 
Heartbeat CPU 1 instructions: 1120000000 cycles: 1305814907 heartbeat IPC: 0.650419 cumulative IPC: 0.75256 (Simulation time: 5 hr 15 min 28 sec) 
Heartbeat CPU 2 instructions: 1330000000 cycles: 1307290392 heartbeat IPC: 0.92352 cumulative IPC: 0.907169 (Simulation time: 5 hr 15 min 46 sec) 
Heartbeat CPU 3 instructions: 1410000001 cycles: 1308455884 heartbeat IPC: 1.01221 cumulative IPC: 1.00621 (Simulation time: 5 hr 16 min 0 sec) 
Heartbeat CPU 2 instructions: 1340000000 cycles: 1318073045 heartbeat IPC: 0.927416 cumulative IPC: 0.907349 (Simulation time: 5 hr 17 min 56 sec) 
Heartbeat CPU 3 instructions: 1420000000 cycles: 1318356293 heartbeat IPC: 1.01006 cumulative IPC: 1.00624 (Simulation time: 5 hr 17 min 59 sec) 
Heartbeat CPU 1 instructions: 1130000000 cycles: 1321146321 heartbeat IPC: 0.652256 cumulative IPC: 0.751294 (Simulation time: 5 hr 18 min 33 sec) 
Heartbeat CPU 0 instructions: 800000000 cycles: 1324032992 heartbeat IPC: 0.480218 cumulative IPC: 0.480597 (Simulation time: 5 hr 19 min 7 sec) 
Heartbeat CPU 3 instructions: 1430000002 cycles: 1328281545 heartbeat IPC: 1.00753 cumulative IPC: 1.00625 (Simulation time: 5 hr 19 min 58 sec) 
Heartbeat CPU 2 instructions: 1350000001 cycles: 1328901184 heartbeat IPC: 0.92352 cumulative IPC: 0.907493 (Simulation time: 5 hr 20 min 6 sec) 
Heartbeat CPU 1 instructions: 1140000000 cycles: 1336500669 heartbeat IPC: 0.651281 cumulative IPC: 0.750046 (Simulation time: 5 hr 21 min 40 sec) 
Heartbeat CPU 3 instructions: 1440000000 cycles: 1338207902 heartbeat IPC: 1.00742 cumulative IPC: 1.00626 (Simulation time: 5 hr 22 min 1 sec) 
Heartbeat CPU 2 instructions: 1360000000 cycles: 1339689888 heartbeat IPC: 0.926895 cumulative IPC: 0.907662 (Simulation time: 5 hr 22 min 20 sec) 
Heartbeat CPU 0 instructions: 810000003 cycles: 1344579256 heartbeat IPC: 0.486707 cumulative IPC: 0.480698 (Simulation time: 5 hr 23 min 22 sec) 
Heartbeat CPU 3 instructions: 1450000001 cycles: 1348081845 heartbeat IPC: 1.01277 cumulative IPC: 1.00631 (Simulation time: 5 hr 24 min 6 sec) 
Heartbeat CPU 2 instructions: 1370000001 cycles: 1350501994 heartbeat IPC: 0.924889 cumulative IPC: 0.907812 (Simulation time: 5 hr 24 min 37 sec) 
Heartbeat CPU 1 instructions: 1150000003 cycles: 1351873054 heartbeat IPC: 0.650517 cumulative IPC: 0.748818 (Simulation time: 5 hr 24 min 54 sec) 
Heartbeat CPU 3 instructions: 1460000000 cycles: 1357995707 heartbeat IPC: 1.00869 cumulative IPC: 1.00633 (Simulation time: 5 hr 26 min 12 sec) 
Heartbeat CPU 2 instructions: 1380000000 cycles: 1361337711 heartbeat IPC: 0.922874 cumulative IPC: 0.907942 (Simulation time: 5 hr 26 min 54 sec) 
Heartbeat CPU 0 instructions: 820000000 cycles: 1365599460 heartbeat IPC: 0.475733 cumulative IPC: 0.480615 (Simulation time: 5 hr 27 min 48 sec) 
Heartbeat CPU 1 instructions: 1160000000 cycles: 1367189794 heartbeat IPC: 0.65288 cumulative IPC: 0.747653 (Simulation time: 5 hr 28 min 8 sec) 
Heartbeat CPU 3 instructions: 1470000003 cycles: 1367870158 heartbeat IPC: 1.01271 cumulative IPC: 1.00638 (Simulation time: 5 hr 28 min 16 sec) 
Heartbeat CPU 2 instructions: 1390000002 cycles: 1372132464 heartbeat IPC: 0.926376 cumulative IPC: 0.908099 (Simulation time: 5 hr 29 min 10 sec) 
Heartbeat CPU 3 instructions: 1480000000 cycles: 1377728999 heartbeat IPC: 1.01432 cumulative IPC: 1.00645 (Simulation time: 5 hr 30 min 31 sec) 
Heartbeat CPU 1 instructions: 1170000002 cycles: 1382522486 heartbeat IPC: 0.652201 cumulative IPC: 0.746507 (Simulation time: 5 hr 31 min 35 sec) 
Heartbeat CPU 2 instructions: 1400000000 cycles: 1382926369 heartbeat IPC: 0.926449 cumulative IPC: 0.908254 (Simulation time: 5 hr 31 min 40 sec) 
Heartbeat CPU 0 instructions: 830000003 cycles: 1386467079 heartbeat IPC: 0.479212 cumulative IPC: 0.480592 (Simulation time: 5 hr 32 min 27 sec) 
Heartbeat CPU 3 instructions: 1490000002 cycles: 1387641015 heartbeat IPC: 1.00888 cumulative IPC: 1.00646 (Simulation time: 5 hr 32 min 42 sec) 
Heartbeat CPU 2 instructions: 1410000000 cycles: 1393699600 heartbeat IPC: 0.928227 cumulative IPC: 0.908421 (Simulation time: 5 hr 34 min 12 sec) 
Heartbeat CPU 3 instructions: 1500000000 cycles: 1397532626 heartbeat IPC: 1.01096 cumulative IPC: 1.0065 (Simulation time: 5 hr 35 min 5 sec) 
Heartbeat CPU 1 instructions: 1180000000 cycles: 1397696934 heartbeat IPC: 0.659002 cumulative IPC: 0.745479 (Simulation time: 5 hr 35 min 7 sec) 
Heartbeat CPU 2 instructions: 1420000000 cycles: 1404546388 heartbeat IPC: 0.921932 cumulative IPC: 0.908534 (Simulation time: 5 hr 36 min 41 sec) 
Heartbeat CPU 3 instructions: 1510000000 cycles: 1407432232 heartbeat IPC: 1.01014 cumulative IPC: 1.00653 (Simulation time: 5 hr 37 min 23 sec) 
Heartbeat CPU 0 instructions: 840000000 cycles: 1407802989 heartbeat IPC: 0.468693 cumulative IPC: 0.480397 (Simulation time: 5 hr 37 min 29 sec) 
Heartbeat CPU 1 instructions: 1190000001 cycles: 1412860551 heartbeat IPC: 0.659473 cumulative IPC: 0.744481 (Simulation time: 5 hr 38 min 43 sec) 
Heartbeat CPU 2 instructions: 1430000002 cycles: 1415349582 heartbeat IPC: 0.925652 cumulative IPC: 0.908675 (Simulation time: 5 hr 39 min 16 sec) 
Heartbeat CPU 3 instructions: 1520000000 cycles: 1417307686 heartbeat IPC: 1.01261 cumulative IPC: 1.00657 (Simulation time: 5 hr 39 min 41 sec) 
Heartbeat CPU 2 instructions: 1440000000 cycles: 1426151039 heartbeat IPC: 0.925801 cumulative IPC: 0.908815 (Simulation time: 5 hr 41 min 34 sec) 
Heartbeat CPU 3 instructions: 1530000000 cycles: 1427205197 heartbeat IPC: 1.01035 cumulative IPC: 1.0066 (Simulation time: 5 hr 41 min 47 sec) 
Heartbeat CPU 1 instructions: 1200000000 cycles: 1427997398 heartbeat IPC: 0.66064 cumulative IPC: 0.743521 (Simulation time: 5 hr 41 min 57 sec) 
Heartbeat CPU 0 instructions: 850000002 cycles: 1428727505 heartbeat IPC: 0.477908 cumulative IPC: 0.480358 (Simulation time: 5 hr 42 min 7 sec) 
Heartbeat CPU 2 instructions: 1450000003 cycles: 1436930594 heartbeat IPC: 0.927682 cumulative IPC: 0.908968 (Simulation time: 5 hr 43 min 52 sec) 
Heartbeat CPU 3 instructions: 1540000000 cycles: 1437081600 heartbeat IPC: 1.01251 cumulative IPC: 1.00664 (Simulation time: 5 hr 43 min 53 sec) 
Heartbeat CPU 1 instructions: 1210000002 cycles: 1443090644 heartbeat IPC: 0.662548 cumulative IPC: 0.742607 (Simulation time: 5 hr 45 min 10 sec) 
Heartbeat CPU 3 instructions: 1550000002 cycles: 1446933249 heartbeat IPC: 1.01506 cumulative IPC: 1.00671 (Simulation time: 5 hr 45 min 59 sec) 
Heartbeat CPU 2 instructions: 1460000000 cycles: 1447794235 heartbeat IPC: 0.920501 cumulative IPC: 0.909062 (Simulation time: 5 hr 46 min 10 sec) 
Heartbeat CPU 0 instructions: 860000000 cycles: 1449840903 heartbeat IPC: 0.473633 cumulative IPC: 0.480252 (Simulation time: 5 hr 46 min 36 sec) 
Finished CPU 1 instructions: 1000000001 cycles: 1347822256 cumulative IPC: 0.741938 (Simulation time: 5 hr 47 min 26 sec) 
Heartbeat CPU 3 instructions: 1560000000 cycles: 1456827864 heartbeat IPC: 1.01065 cumulative IPC: 1.00673 (Simulation time: 5 hr 48 min 5 sec) 
Heartbeat CPU 1 instructions: 1220000000 cycles: 1458276372 heartbeat IPC: 0.658513 cumulative IPC: 0.741663 (Simulation time: 5 hr 48 min 23 sec) 
Heartbeat CPU 2 instructions: 1470000001 cycles: 1458556367 heartbeat IPC: 0.929184 cumulative IPC: 0.909222 (Simulation time: 5 hr 48 min 27 sec) 
Heartbeat CPU 3 instructions: 1570000002 cycles: 1466737322 heartbeat IPC: 1.00914 cumulative IPC: 1.00675 (Simulation time: 5 hr 50 min 11 sec) 
Heartbeat CPU 2 instructions: 1480000000 cycles: 1469367664 heartbeat IPC: 0.924958 cumulative IPC: 0.909347 (Simulation time: 5 hr 50 min 44 sec) 
Heartbeat CPU 0 instructions: 870000003 cycles: 1470594447 heartbeat IPC: 0.481846 cumulative IPC: 0.480277 (Simulation time: 5 hr 50 min 59 sec) 
Heartbeat CPU 1 instructions: 1230000000 cycles: 1473411341 heartbeat IPC: 0.660722 cumulative IPC: 0.740767 (Simulation time: 5 hr 51 min 34 sec) 
Heartbeat CPU 3 instructions: 1580000000 cycles: 1476647081 heartbeat IPC: 1.00911 cumulative IPC: 1.00677 (Simulation time: 5 hr 52 min 13 sec) 
Heartbeat CPU 2 instructions: 1490000000 cycles: 1480193269 heartbeat IPC: 0.923736 cumulative IPC: 0.90946 (Simulation time: 5 hr 52 min 56 sec) 
Heartbeat CPU 3 instructions: 1590000000 cycles: 1486557678 heartbeat IPC: 1.00902 cumulative IPC: 1.00679 (Simulation time: 5 hr 54 min 12 sec) 
Heartbeat CPU 1 instructions: 1240000000 cycles: 1488656127 heartbeat IPC: 0.655962 cumulative IPC: 0.739832 (Simulation time: 5 hr 54 min 38 sec) 
Heartbeat CPU 2 instructions: 1500000000 cycles: 1490960365 heartbeat IPC: 0.928756 cumulative IPC: 0.90961 (Simulation time: 5 hr 55 min 6 sec) 
Heartbeat CPU 0 instructions: 880000000 cycles: 1491569162 heartbeat IPC: 0.476764 cumulative IPC: 0.480223 (Simulation time: 5 hr 55 min 13 sec) 
Heartbeat CPU 3 instructions: 1600000000 cycles: 1496460684 heartbeat IPC: 1.00979 cumulative IPC: 1.00681 (Simulation time: 5 hr 56 min 12 sec) 
Heartbeat CPU 2 instructions: 1510000003 cycles: 1501811264 heartbeat IPC: 0.921583 cumulative IPC: 0.909703 (Simulation time: 5 hr 57 min 16 sec) 
Heartbeat CPU 1 instructions: 1250000001 cycles: 1504054705 heartbeat IPC: 0.649411 cumulative IPC: 0.738836 (Simulation time: 5 hr 57 min 43 sec) 
Heartbeat CPU 3 instructions: 1610000001 cycles: 1506380585 heartbeat IPC: 1.00807 cumulative IPC: 1.00682 (Simulation time: 5 hr 58 min 12 sec) 
Heartbeat CPU 0 instructions: 890000001 cycles: 1512532973 heartbeat IPC: 0.477013 cumulative IPC: 0.480176 (Simulation time: 5 hr 59 min 27 sec) 
Heartbeat CPU 2 instructions: 1520000000 cycles: 1512620340 heartbeat IPC: 0.925148 cumulative IPC: 0.909822 (Simulation time: 5 hr 59 min 28 sec) 
Heartbeat CPU 3 instructions: 1620000000 cycles: 1516234836 heartbeat IPC: 1.01479 cumulative IPC: 1.00687 (Simulation time: 6 hr 0 min 11 sec) 
Heartbeat CPU 1 instructions: 1260000000 cycles: 1519366205 heartbeat IPC: 0.653104 cumulative IPC: 0.737907 (Simulation time: 6 hr 0 min 49 sec) 
Heartbeat CPU 2 instructions: 1530000001 cycles: 1523367240 heartbeat IPC: 0.930501 cumulative IPC: 0.909978 (Simulation time: 6 hr 1 min 38 sec) 
Heartbeat CPU 3 instructions: 1630000002 cycles: 1526106640 heartbeat IPC: 1.01299 cumulative IPC: 1.00691 (Simulation time: 6 hr 2 min 11 sec) 
Heartbeat CPU 0 instructions: 900000000 cycles: 1533045819 heartbeat IPC: 0.487499 cumulative IPC: 0.480281 (Simulation time: 6 hr 3 min 35 sec) 
Heartbeat CPU 2 instructions: 1540000000 cycles: 1534178517 heartbeat IPC: 0.92496 cumulative IPC: 0.910092 (Simulation time: 6 hr 3 min 49 sec) 
Heartbeat CPU 1 instructions: 1270000001 cycles: 1534710179 heartbeat IPC: 0.651722 cumulative IPC: 0.736982 (Simulation time: 6 hr 3 min 55 sec) 
Heartbeat CPU 3 instructions: 1640000000 cycles: 1536004482 heartbeat IPC: 1.01032 cumulative IPC: 1.00694 (Simulation time: 6 hr 4 min 11 sec) 
Heartbeat CPU 2 instructions: 1550000001 cycles: 1544926783 heartbeat IPC: 0.930383 cumulative IPC: 0.910243 (Simulation time: 6 hr 6 min 2 sec) 
Heartbeat CPU 3 instructions: 1650000000 cycles: 1545901433 heartbeat IPC: 1.01041 cumulative IPC: 1.00696 (Simulation time: 6 hr 6 min 14 sec) 
Heartbeat CPU 1 instructions: 1280000000 cycles: 1550016292 heartbeat IPC: 0.653334 cumulative IPC: 0.736095 (Simulation time: 6 hr 7 min 7 sec) 
Heartbeat CPU 0 instructions: 910000003 cycles: 1552977938 heartbeat IPC: 0.501703 cumulative IPC: 0.480576 (Simulation time: 6 hr 7 min 46 sec) 
[...]
Heartbeat CPU 0 instructions: 1150000003 cycles: 2042387614 heartbeat IPC: 0.493726 cumulative IPC: 0.483055 (Simulation time: 7 hr 46 min 47 sec) 
Heartbeat CPU 3 instructions: 2160000000 cycles: 2051134949 heartbeat IPC: 0.999569 cumulative IPC: 1.0076 (Simulation time: 7 hr 48 min 32 sec) 
Heartbeat CPU 2 instructions: 2020000000 cycles: 2052118766 heartbeat IPC: 0.925821 cumulative IPC: 0.914524 (Simulation time: 7 hr 48 min 44 sec) 
Heartbeat CPU 1 instructions: 1610000000 cycles: 2055309720 heartbeat IPC: 0.656539 cumulative IPC: 0.714579 (Simulation time: 7 hr 49 min 22 sec) 
Heartbeat CPU 3 instructions: 2170000000 cycles: 2061100589 heartbeat IPC: 1.00345 cumulative IPC: 1.00758 (Simulation time: 7 hr 50 min 32 sec) 
Heartbeat CPU 0 instructions: 1160000000 cycles: 2062815558 heartbeat IPC: 0.489525 cumulative IPC: 0.483123 (Simulation time: 7 hr 50 min 52 sec) 
Heartbeat CPU 2 instructions: 2030000002 cycles: 2062960501 heartbeat IPC: 0.922362 cumulative IPC: 0.914568 (Simulation time: 7 hr 50 min 54 sec) 
Heartbeat CPU 1 instructions: 1620000000 cycles: 2070561089 heartbeat IPC: 0.655679 cumulative IPC: 0.714121 (Simulation time: 7 hr 52 min 25 sec) 
Heartbeat CPU 3 instructions: 2180000000 cycles: 2071063971 heartbeat IPC: 1.00368 cumulative IPC: 1.00756 (Simulation time: 7 hr 52 min 31 sec) 
Heartbeat CPU 2 instructions: 2040000000 cycles: 2073881079 heartbeat IPC: 0.915702 cumulative IPC: 0.914574 (Simulation time: 7 hr 53 min 5 sec) 
Heartbeat CPU 3 instructions: 2190000002 cycles: 2080997581 heartbeat IPC: 1.00668 cumulative IPC: 1.00756 (Simulation time: 7 hr 54 min 30 sec) 
Heartbeat CPU 0 instructions: 1170000001 cycles: 2083141787 heartbeat IPC: 0.491975 cumulative IPC: 0.483214 (Simulation time: 7 hr 54 min 56 sec) 
Heartbeat CPU 2 instructions: 2050000000 cycles: 2084835434 heartbeat IPC: 0.912879 cumulative IPC: 0.914565 (Simulation time: 7 hr 55 min 16 sec) 
Heartbeat CPU 1 instructions: 1630000001 cycles: 2085762319 heartbeat IPC: 0.657842 cumulative IPC: 0.713689 (Simulation time: 7 hr 55 min 27 sec) 
Heartbeat CPU 3 instructions: 2200000000 cycles: 2090902538 heartbeat IPC: 1.0096 cumulative IPC: 1.00757 (Simulation time: 7 hr 56 min 29 sec) 
Heartbeat CPU 2 instructions: 2060000000 cycles: 2095708075 heartbeat IPC: 0.91974 cumulative IPC: 0.914593 (Simulation time: 7 hr 57 min 27 sec) 
Heartbeat CPU 3 instructions: 2210000002 cycles: 2100817742 heartbeat IPC: 1.00855 cumulative IPC: 1.00757 (Simulation time: 7 hr 58 min 28 sec) 
Heartbeat CPU 1 instructions: 1640000000 cycles: 2101068828 heartbeat IPC: 0.653317 cumulative IPC: 0.713226 (Simulation time: 7 hr 58 min 31 sec) 
Heartbeat CPU 0 instructions: 1180000000 cycles: 2104107519 heartbeat IPC: 0.476969 cumulative IPC: 0.483148 (Simulation time: 7 hr 59 min 7 sec) 
Heartbeat CPU 2 instructions: 2070000001 cycles: 2106639330 heartbeat IPC: 0.914808 cumulative IPC: 0.914594 (Simulation time: 7 hr 59 min 37 sec) 
Heartbeat CPU 3 instructions: 2220000000 cycles: 2110714578 heartbeat IPC: 1.01042 cumulative IPC: 1.00759 (Simulation time: 8 hr 0 min 26 sec) 
Heartbeat CPU 1 instructions: 1650000000 cycles: 2116386970 heartbeat IPC: 0.652821 cumulative IPC: 0.712766 (Simulation time: 8 hr 1 min 34 sec) 
Heartbeat CPU 2 instructions: 2080000000 cycles: 2117525399 heartbeat IPC: 0.918605 cumulative IPC: 0.914616 (Simulation time: 8 hr 1 min 48 sec) 
Heartbeat CPU 3 instructions: 2230000002 cycles: 2120692928 heartbeat IPC: 1.00217 cumulative IPC: 1.00756 (Simulation time: 8 hr 2 min 26 sec) 
Heartbeat CPU 0 instructions: 1190000001 cycles: 2124882019 heartbeat IPC: 0.481359 cumulative IPC: 0.48313 (Simulation time: 8 hr 3 min 16 sec) 
Heartbeat CPU 2 instructions: 2090000000 cycles: 2128426485 heartbeat IPC: 0.91734 cumulative IPC: 0.914631 (Simulation time: 8 hr 3 min 58 sec) 
Heartbeat CPU 3 instructions: 2240000000 cycles: 2130630811 heartbeat IPC: 1.00625 cumulative IPC: 1.00755 (Simulation time: 8 hr 4 min 25 sec) 
Heartbeat CPU 1 instructions: 1660000000 cycles: 2131684539 heartbeat IPC: 0.653699 cumulative IPC: 0.71232 (Simulation time: 8 hr 4 min 38 sec) 
Heartbeat CPU 2 instructions: 2100000000 cycles: 2139251988 heartbeat IPC: 0.923745 cumulative IPC: 0.914679 (Simulation time: 8 hr 6 min 8 sec) 
Heartbeat CPU 3 instructions: 2250000003 cycles: 2140592960 heartbeat IPC: 1.0038 cumulative IPC: 1.00754 (Simulation time: 8 hr 6 min 24 sec) 
Heartbeat CPU 0 instructions: 1200000000 cycles: 2145871638 heartbeat IPC: 0.476426 cumulative IPC: 0.483061 (Simulation time: 8 hr 7 min 27 sec) 
Heartbeat CPU 1 instructions: 1670000001 cycles: 2147018871 heartbeat IPC: 0.652131 cumulative IPC: 0.711868 (Simulation time: 8 hr 7 min 41 sec) 
Heartbeat CPU 2 instructions: 2110000002 cycles: 2150116067 heartbeat IPC: 0.920465 cumulative IPC: 0.91471 (Simulation time: 8 hr 8 min 18 sec) 
Heartbeat CPU 3 instructions: 2260000000 cycles: 2150552717 heartbeat IPC: 1.00404 cumulative IPC: 1.00752 (Simulation time: 8 hr 8 min 23 sec) 
Heartbeat CPU 3 instructions: 2270000001 cycles: 2160535260 heartbeat IPC: 1.00175 cumulative IPC: 1.00749 (Simulation time: 8 hr 10 min 23 sec) 
Heartbeat CPU 2 instructions: 2120000000 cycles: 2161000209 heartbeat IPC: 0.918768 cumulative IPC: 0.914731 (Simulation time: 8 hr 10 min 29 sec) 
Heartbeat CPU 1 instructions: 1680000000 cycles: 2162286550 heartbeat IPC: 0.654978 cumulative IPC: 0.711445 (Simulation time: 8 hr 10 min 44 sec) 
Heartbeat CPU 0 instructions: 1210000002 cycles: 2166291172 heartbeat IPC: 0.489727 cumulative IPC: 0.483127 (Simulation time: 8 hr 11 min 33 sec) 
Heartbeat CPU 3 instructions: 2280000000 cycles: 2170463063 heartbeat IPC: 1.00727 cumulative IPC: 1.00749 (Simulation time: 8 hr 12 min 23 sec) 
Heartbeat CPU 2 instructions: 2130000000 cycles: 2171930514 heartbeat IPC: 0.914888 cumulative IPC: 0.914732 (Simulation time: 8 hr 12 min 40 sec) 
Finished CPU 0 instructions: 1000000003 cycles: 2070311946 cumulative IPC: 0.483019 (Simulation time: 8 hr 13 min 32 sec) 

CPU 0 Branch Prediction Accuracy: 97.1051% MPKI: 0.51116

CPU 1 Branch Prediction Accuracy: 99.9544% MPKI: 0.0375562

CPU 2 Branch Prediction Accuracy: 99.975% MPKI: 0.00429056

CPU 3 Branch Prediction Accuracy: 99.9709% MPKI: 0.00727534

ChampSim completed all CPUs

Total Simulation Statistics (not including warmup)

CPU 0 cumulative IPC: 0.483019 instructions: 1000000003 cycles: 2070311946
L1D TOTAL     ACCESS:  284250924  HIT:  205933298  MISS:   78317626
L1D LOAD      ACCESS:  101237160  HIT:   89361813  MISS:   11875347
L1D RFO       ACCESS:  183013764  HIT:  116571485  MISS:   66442279
L1D PREFETCH  ACCESS:          0  HIT:          0  MISS:          0
L1D WRITEBACK ACCESS:          0  HIT:          0  MISS:          0
L1I TOTAL     ACCESS:  244059353  HIT:  244059353  MISS:          0
L1I LOAD      ACCESS:  244059353  HIT:  244059353  MISS:          0
L1I RFO       ACCESS:          0  HIT:          0  MISS:          0
L1I PREFETCH  ACCESS:          0  HIT:          0  MISS:          0
L1I WRITEBACK ACCESS:          0  HIT:          0  MISS:          0
L2C TOTAL     ACCESS:  147683654  HIT:   88864060  MISS:   58819594
L2C LOAD      ACCESS:   11875347  HIT:    2802427  MISS:    9072920
L2C RFO       ACCESS:   66442180  HIT:   19509057  MISS:   46933123
L2C PREFETCH  ACCESS:    2923850  HIT:     128009  MISS:    2795841
L2C WRITEBACK ACCESS:   66442277  HIT:   66424567  MISS:      17710
LLC TOTAL     ACCESS:  131029580  HIT:   83587452  MISS:   47442128
LLC LOAD      ACCESS:    7738288  HIT:    6978388  MISS:     759900
LLC RFO       ACCESS:   46907109  HIT:   11329708  MISS:   35577401
LLC PREFETCH  ACCESS:   29434058  HIT:   18332945  MISS:   11101113
LLC WRITEBACK ACCESS:   46950125  HIT:   46946411  MISS:       3714

CPU 1 cumulative IPC: 0.711048 instructions: 1472090543 cycles: 2070311946
L1D TOTAL     ACCESS:  430197968  HIT:  420168013  MISS:   10029955
L1D LOAD      ACCESS:  302416988  HIT:  293055176  MISS:    9361812
L1D RFO       ACCESS:  127780980  HIT:  127112837  MISS:     668143
L1D PREFETCH  ACCESS:          0  HIT:          0  MISS:          0
L1D WRITEBACK ACCESS:          0  HIT:          0  MISS:          0
L1I TOTAL     ACCESS:  535006064  HIT:  535004624  MISS:       1440
L1I LOAD      ACCESS:  535006064  HIT:  535004624  MISS:       1440
L1I RFO       ACCESS:          0  HIT:          0  MISS:          0
L1I PREFETCH  ACCESS:          0  HIT:          0  MISS:          0
L1I WRITEBACK ACCESS:          0  HIT:          0  MISS:          0
L2C TOTAL     ACCESS:   35504931  HIT:   29799796  MISS:    5705135
L2C LOAD      ACCESS:    9362740  HIT:    7463315  MISS:    1899425
L2C RFO       ACCESS:     667573  HIT:     521140  MISS:     146433
L2C PREFETCH  ACCESS:   23048815  HIT:   19391233  MISS:    3657582
L2C WRITEBACK ACCESS:    2425803  HIT:    2424108  MISS:       1695
LLC TOTAL     ACCESS:   35866593  HIT:   30452643  MISS:    5413950
LLC LOAD      ACCESS:    1796524  HIT:    1596180  MISS:     200344
LLC RFO       ACCESS:     146433  HIT:       8918  MISS:     137515
LLC PREFETCH  ACCESS:   33776419  HIT:   28806192  MISS:    4970227
LLC WRITEBACK ACCESS:     147217  HIT:      41353  MISS:     105864

CPU 2 cumulative IPC: 0.914767 instructions: 1893853506 cycles: 2070311946
L1D TOTAL     ACCESS:  402366898  HIT:  377304049  MISS:   25062849
L1D LOAD      ACCESS:  269463193  HIT:  244425309  MISS:   25037884
L1D RFO       ACCESS:  132903705  HIT:  132878740  MISS:      24965
L1D PREFETCH  ACCESS:          0  HIT:          0  MISS:          0
L1D WRITEBACK ACCESS:          0  HIT:          0  MISS:          0
L1I TOTAL     ACCESS:  389775122  HIT:  389775122  MISS:          0
L1I LOAD      ACCESS:  389775122  HIT:  389775122  MISS:          0
L1I RFO       ACCESS:          0  HIT:          0  MISS:          0
L1I PREFETCH  ACCESS:          0  HIT:          0  MISS:          0
L1I WRITEBACK ACCESS:          0  HIT:          0  MISS:          0
L2C TOTAL     ACCESS:   60199803  HIT:   35771508  MISS:   24428295
L2C LOAD      ACCESS:   25037883  HIT:   15127349  MISS:    9910534
L2C RFO       ACCESS:      24965  HIT:       6159  MISS:      18806
L2C PREFETCH  ACCESS:   18495306  HIT:    3996351  MISS:   14498955
L2C WRITEBACK ACCESS:   16641649  HIT:   16641649  MISS:          0
LLC TOTAL     ACCESS:  147651477  HIT:  131022631  MISS:   16628846
LLC LOAD      ACCESS:    7452979  HIT:    6826331  MISS:     626648
LLC RFO       ACCESS:      18806  HIT:      18801  MISS:          5
LLC PREFETCH  ACCESS:  123557582  HIT:  107556106  MISS:   16001476
LLC WRITEBACK ACCESS:   16622110  HIT:   16621393  MISS:        717

CPU 3 cumulative IPC: 1.00749 instructions: 2085814455 cycles: 2070311946
L1D TOTAL     ACCESS:  791594679  HIT:  748323538  MISS:   43271141
L1D LOAD      ACCESS:  676461745  HIT:  634492998  MISS:   41968747
L1D RFO       ACCESS:  115132934  HIT:  113830540  MISS:    1302394
L1D PREFETCH  ACCESS:          0  HIT:          0  MISS:          0
L1D WRITEBACK ACCESS:          0  HIT:          0  MISS:          0
L1I TOTAL     ACCESS:  518176406  HIT:  518176406  MISS:          0
L1I LOAD      ACCESS:  518176406  HIT:  518176406  MISS:          0
L1I RFO       ACCESS:          0  HIT:          0  MISS:          0
L1I PREFETCH  ACCESS:          0  HIT:          0  MISS:          0
L1I WRITEBACK ACCESS:          0  HIT:          0  MISS:          0
L2C TOTAL     ACCESS:   68214716  HIT:   28547354  MISS:   39667362
L2C LOAD      ACCESS:   41957600  HIT:   15035756  MISS:   26921844
L2C RFO       ACCESS:    1277586  HIT:     261286  MISS:    1016300
L2C PREFETCH  ACCESS:   23560206  HIT:   11832123  MISS:   11728083
L2C WRITEBACK ACCESS:    1419324  HIT:    1418189  MISS:       1135
LLC TOTAL     ACCESS:  150357688  HIT:  110717982  MISS:   39639706
LLC LOAD      ACCESS:   24137716  HIT:   21710811  MISS:    2426905
LLC RFO       ACCESS:    1016300  HIT:          0  MISS:    1016300
LLC PREFETCH  ACCESS:  124185470  HIT:   87989807  MISS:   36195663
LLC WRITEBACK ACCESS:    1018202  HIT:    1017364  MISS:        838

Region of Interest Statistics

CPU 0 cumulative IPC: 0.483019 instructions: 1000000003 cycles: 2070311946
L1D TOTAL     ACCESS:  284250924  HIT:  205933298  MISS:   78317626
L1D LOAD      ACCESS:  101237160  HIT:   89361813  MISS:   11875347
L1D RFO       ACCESS:  183013764  HIT:  116571485  MISS:   66442279
L1D PREFETCH  ACCESS:          0  HIT:          0  MISS:          0
L1D WRITEBACK ACCESS:          0  HIT:          0  MISS:          0
L1D PREFETCH  REQUESTED:          0  ISSUED:          0  USEFUL:          0  USELESS:          0
L1I TOTAL     ACCESS:  244059353  HIT:  244059353  MISS:          0
L1I LOAD      ACCESS:  244059353  HIT:  244059353  MISS:          0
L1I RFO       ACCESS:          0  HIT:          0  MISS:          0
L1I PREFETCH  ACCESS:          0  HIT:          0  MISS:          0
L1I WRITEBACK ACCESS:          0  HIT:          0  MISS:          0
L1I PREFETCH  REQUESTED:          0  ISSUED:          0  USEFUL:          0  USELESS:          0
L2C TOTAL     ACCESS:  147683654  HIT:   88864060  MISS:   58819594
L2C LOAD      ACCESS:   11875347  HIT:    2802427  MISS:    9072920
L2C RFO       ACCESS:   66442180  HIT:   19509057  MISS:   46933123
L2C PREFETCH  ACCESS:    2923850  HIT:     128009  MISS:    2795841
L2C WRITEBACK ACCESS:   66442277  HIT:   66424567  MISS:      17710
L2C PREFETCH  REQUESTED:   88703471  ISSUED:   88703471  USEFUL:    3984048  USELESS:       1046
LLC TOTAL     ACCESS:  131029580  HIT:   83587452  MISS:   47442128
LLC LOAD      ACCESS:    7738288  HIT:    6978388  MISS:     759900
LLC RFO       ACCESS:   46907109  HIT:   11329708  MISS:   35577401
LLC PREFETCH  ACCESS:   29434058  HIT:   18332945  MISS:   11101113
LLC WRITEBACK ACCESS:   46950125  HIT:   46946411  MISS:       3714
LLC PREFETCH  REQUESTED:          0  ISSUED:          0  USEFUL:   38531956  USELESS:   40365339
Major fault: 0 Minor fault: 453285

CPU 1 cumulative IPC: 0.741938 instructions: 1000000001 cycles: 1347822256
L1D TOTAL     ACCESS:  295030503  HIT:  286009749  MISS:    9020754
L1D LOAD      ACCESS:  217538268  HIT:  208911917  MISS:    8626351
L1D RFO       ACCESS:   77492235  HIT:   77097832  MISS:     394403
L1D PREFETCH  ACCESS:          0  HIT:          0  MISS:          0
L1D WRITEBACK ACCESS:          0  HIT:          0  MISS:          0
L1D PREFETCH  REQUESTED:          0  ISSUED:          0  USEFUL:          0  USELESS:          0
L1I TOTAL     ACCESS:  343830418  HIT:  343828978  MISS:       1440
L1I LOAD      ACCESS:  343830418  HIT:  343828978  MISS:       1440
L1I RFO       ACCESS:          0  HIT:          0  MISS:          0
L1I PREFETCH  ACCESS:          0  HIT:          0  MISS:          0
L1I WRITEBACK ACCESS:          0  HIT:          0  MISS:          0
L1I PREFETCH  REQUESTED:          0  ISSUED:          0  USEFUL:          0  USELESS:          0
L2C TOTAL     ACCESS:   31545998  HIT:   25966186  MISS:    5579812
L2C LOAD      ACCESS:    8627279  HIT:    6763112  MISS:    1864167
L2C RFO       ACCESS:     394046  HIT:     293387  MISS:     100659
L2C PREFETCH  ACCESS:   20461511  HIT:   16848171  MISS:    3613340
L2C WRITEBACK ACCESS:    2063162  HIT:    2061516  MISS:       1646
L2C PREFETCH  REQUESTED:   79591122  ISSUED:   78607817  USEFUL:    5462380  USELESS:      91030
LLC TOTAL     ACCESS:   35280186  HIT:   30057689  MISS:    5222497
LLC LOAD      ACCESS:    1761268  HIT:    1568893  MISS:     192375
LLC RFO       ACCESS:     100659  HIT:       6982  MISS:      93677
LLC PREFETCH  ACCESS:   33316963  HIT:   28440608  MISS:    4876355
LLC WRITEBACK ACCESS:     101296  HIT:      41206  MISS:      60090
LLC PREFETCH  REQUESTED:          0  ISSUED:          0  USEFUL:   38531956  USELESS:   40365339
Major fault: 0 Minor fault: 211974

CPU 2 cumulative IPC: 0.905468 instructions: 1000000002 cycles: 1104401620
L1D TOTAL     ACCESS:  212414229  HIT:  199180449  MISS:   13233780
L1D LOAD      ACCESS:  142237727  HIT:  129017127  MISS:   13220600
L1D RFO       ACCESS:   70176502  HIT:   70163322  MISS:      13180
L1D PREFETCH  ACCESS:          0  HIT:          0  MISS:          0
L1D WRITEBACK ACCESS:          0  HIT:          0  MISS:          0
L1D PREFETCH  REQUESTED:          0  ISSUED:          0  USEFUL:          0  USELESS:          0
L1I TOTAL     ACCESS:  205732100  HIT:  205732100  MISS:          0
L1I LOAD      ACCESS:  205732100  HIT:  205732100  MISS:          0
L1I RFO       ACCESS:          0  HIT:          0  MISS:          0
L1I PREFETCH  ACCESS:          0  HIT:          0  MISS:          0
L1I WRITEBACK ACCESS:          0  HIT:          0  MISS:          0
L1I PREFETCH  REQUESTED:          0  ISSUED:          0  USEFUL:          0  USELESS:          0
L2C TOTAL     ACCESS:   31792538  HIT:   18914764  MISS:   12877774
L2C LOAD      ACCESS:   13220599  HIT:    7879249  MISS:    5341350
L2C RFO       ACCESS:      13180  HIT:       3335  MISS:       9845
L2C PREFETCH  ACCESS:    9771556  HIT:    2244977  MISS:    7526579
L2C WRITEBACK ACCESS:    8787203  HIT:    8787203  MISS:          0
L2C PREFETCH  REQUESTED:  185025018  ISSUED:  185024341  USEFUL:   16583724  USELESS:      10421
LLC TOTAL     ACCESS:   77147010  HIT:   68364354  MISS:    8782656
LLC LOAD      ACCESS:    3945650  HIT:    3615325  MISS:     330325
LLC RFO       ACCESS:       9845  HIT:       9840  MISS:          5
LLC PREFETCH  ACCESS:   64414283  HIT:   55962316  MISS:    8451967
LLC WRITEBACK ACCESS:    8777232  HIT:    8776873  MISS:        359
LLC PREFETCH  REQUESTED:          0  ISSUED:          0  USEFUL:   38531956  USELESS:   40365339
Major fault: 0 Minor fault: 274488

CPU 3 cumulative IPC: 1.00522 instructions: 1000000000 cycles: 994805308
L1D TOTAL     ACCESS:  379488488  HIT:  358742736  MISS:   20745752
L1D LOAD      ACCESS:  324287997  HIT:  304166792  MISS:   20121205
L1D RFO       ACCESS:   55200491  HIT:   54575944  MISS:     624547
L1D PREFETCH  ACCESS:          0  HIT:          0  MISS:          0
L1D WRITEBACK ACCESS:          0  HIT:          0  MISS:          0
L1D PREFETCH  REQUESTED:          0  ISSUED:          0  USEFUL:          0  USELESS:          0
L1I TOTAL     ACCESS:  248461164  HIT:  248461164  MISS:          0
L1I LOAD      ACCESS:  248461164  HIT:  248461164  MISS:          0
L1I RFO       ACCESS:          0  HIT:          0  MISS:          0
L1I PREFETCH  ACCESS:          0  HIT:          0  MISS:          0
L1I WRITEBACK ACCESS:          0  HIT:          0  MISS:          0
L1I PREFETCH  REQUESTED:          0  ISSUED:          0  USEFUL:          0  USELESS:          0
L2C TOTAL     ACCESS:   32600133  HIT:   13582294  MISS:   19017839
L2C LOAD      ACCESS:   20115874  HIT:    7129084  MISS:   12986790
L2C RFO       ACCESS:     612628  HIT:     125385  MISS:     487243
L2C PREFETCH  ACCESS:   11190925  HIT:    5647497  MISS:    5543428
L2C WRITEBACK ACCESS:     680706  HIT:     680328  MISS:        378
L2C PREFETCH  REQUESTED:  296598032  ISSUED:  183417450  USEFUL:   13459215  USELESS:       1030
LLC TOTAL     ACCESS:   71760250  HIT:   52755899  MISS:   19004351
LLC LOAD      ACCESS:   11600340  HIT:   10448028  MISS:    1152312
LLC RFO       ACCESS:     487243  HIT:          0  MISS:     487243
LLC PREFETCH  ACCESS:   59184691  HIT:   41820260  MISS:   17364431
LLC WRITEBACK ACCESS:     487976  HIT:     487611  MISS:        365
LLC PREFETCH  REQUESTED:          0  ISSUED:          0  USEFUL:   38531956  USELESS:   40365339
Major fault: 0 Minor fault: 563665

DRAM Statistics
 CHANNEL 0
 RQ ROW_BUFFER_HIT:   25378017  ROW_BUFFER_MISS:   29126289
 DBUS_CONGESTED:  125831061
 WQ ROW_BUFFER_HIT:    2803921  ROW_BUFFER_MISS:   23867638  FULL:          0

 CHANNEL 1
 RQ ROW_BUFFER_HIT:   25319793  ROW_BUFFER_MISS:   29189399
 DBUS_CONGESTED:  125831061
 WQ ROW_BUFFER_HIT:    2799652  ROW_BUFFER_MISS:   23871772  FULL:          0

 AVG_CONGESTED_CYCLE: 14
