Initialize SIGNATURE TABLE
ST_SET: 1
ST_WAY: 256
ST_TAG_BIT: 16
ST_TAG_MASK: ffff

Initialize PATTERN TABLE
PT_SET: 512
PT_WAY: 4
SIG_DELTA_BIT: 7
C_SIG_BIT: 4
C_DELTA_BIT: 4

Initialize PREFETCH FILTER
FILTER_SET: 1024

*** ChampSim Multicore Out-of-Order Simulator ***

Warmup Instructions: 200000000
Simulation Instructions: 1000000000
Number of CPUs: 4
LLC sets: 8192
LLC ways: 16
Off-chip DRAM Size: 8192 MB Channels: 2 Width: 64-bit Data Rate: 1600 MT/s

CPU 0 runs /scratch/user/djimenez/champsim-traces/speccpu2017/xz/623.xalancbmk_s/623.xalancbmk_s-165B.champsimtrace.xz
CPU 1 runs /scratch/user/djimenez/champsim-traces/speccpu2017/xz/628.pop2_s/628.pop2_s-17B.champsimtrace.xz
CPU 2 runs /scratch/user/djimenez/champsim-traces/speccpu2017/xz/620.omnetpp_s/620.omnetpp_s-874B.champsimtrace.xz
CPU 3 runs /scratch/user/djimenez/champsim-traces/speccpu2017/xz/623.xalancbmk_s/623.xalancbmk_s-700B.champsimtrace.xz
Heartbeat CPU 1 instructions: 10000002 cycles: 4122262 heartbeat IPC: 2.42585 cumulative IPC: 2.42585 (Simulation time: 0 hr 1 min 28 sec) 
Heartbeat CPU 0 instructions: 10000001 cycles: 4217469 heartbeat IPC: 2.37109 cumulative IPC: 2.37109 (Simulation time: 0 hr 1 min 30 sec) 
Heartbeat CPU 3 instructions: 10000001 cycles: 5954834 heartbeat IPC: 1.67931 cumulative IPC: 1.67931 (Simulation time: 0 hr 2 min 8 sec) 
Heartbeat CPU 2 instructions: 10000000 cycles: 7365452 heartbeat IPC: 1.35769 cumulative IPC: 1.35769 (Simulation time: 0 hr 2 min 39 sec) 
Heartbeat CPU 1 instructions: 20000000 cycles: 8236325 heartbeat IPC: 2.43069 cumulative IPC: 2.42827 (Simulation time: 0 hr 2 min 59 sec) 
Heartbeat CPU 0 instructions: 20000000 cycles: 8431833 heartbeat IPC: 2.37284 cumulative IPC: 2.37196 (Simulation time: 0 hr 3 min 3 sec) 
Heartbeat CPU 3 instructions: 20000000 cycles: 10817171 heartbeat IPC: 2.05662 cumulative IPC: 1.84891 (Simulation time: 0 hr 3 min 57 sec) 
Heartbeat CPU 1 instructions: 30000002 cycles: 12348822 heartbeat IPC: 2.43161 cumulative IPC: 2.42938 (Simulation time: 0 hr 4 min 35 sec) 
Heartbeat CPU 0 instructions: 30000001 cycles: 12639405 heartbeat IPC: 2.37667 cumulative IPC: 2.37353 (Simulation time: 0 hr 4 min 41 sec) 
Heartbeat CPU 2 instructions: 20000000 cycles: 14712646 heartbeat IPC: 1.36106 cumulative IPC: 1.35937 (Simulation time: 0 hr 5 min 26 sec) 
Heartbeat CPU 1 instructions: 40000000 cycles: 16460100 heartbeat IPC: 2.43233 cumulative IPC: 2.43012 (Simulation time: 0 hr 6 min 4 sec) 
Heartbeat CPU 0 instructions: 40000000 cycles: 16843318 heartbeat IPC: 2.37874 cumulative IPC: 2.37483 (Simulation time: 0 hr 6 min 13 sec) 
Heartbeat CPU 3 instructions: 30000001 cycles: 16869796 heartbeat IPC: 1.65218 cumulative IPC: 1.77833 (Simulation time: 0 hr 6 min 13 sec) 
Heartbeat CPU 1 instructions: 50000003 cycles: 20560236 heartbeat IPC: 2.43894 cumulative IPC: 2.43188 (Simulation time: 0 hr 7 min 34 sec) 
Heartbeat CPU 0 instructions: 50000000 cycles: 21047216 heartbeat IPC: 2.37874 cumulative IPC: 2.37561 (Simulation time: 0 hr 7 min 45 sec) 
Heartbeat CPU 2 instructions: 30000001 cycles: 22061164 heartbeat IPC: 1.36082 cumulative IPC: 1.35986 (Simulation time: 0 hr 8 min 7 sec) 
Heartbeat CPU 3 instructions: 40000000 cycles: 23146243 heartbeat IPC: 1.59326 cumulative IPC: 1.72814 (Simulation time: 0 hr 8 min 30 sec) 
Heartbeat CPU 1 instructions: 60000000 cycles: 24646854 heartbeat IPC: 2.44701 cumulative IPC: 2.43439 (Simulation time: 0 hr 9 min 3 sec) 
Heartbeat CPU 0 instructions: 60000000 cycles: 25251600 heartbeat IPC: 2.37847 cumulative IPC: 2.37609 (Simulation time: 0 hr 9 min 16 sec) 
Heartbeat CPU 1 instructions: 70000001 cycles: 28714807 heartbeat IPC: 2.45824 cumulative IPC: 2.43777 (Simulation time: 0 hr 10 min 31 sec) 
Heartbeat CPU 3 instructions: 50000001 cycles: 29292115 heartbeat IPC: 1.62711 cumulative IPC: 1.70694 (Simulation time: 0 hr 10 min 44 sec) 
Heartbeat CPU 2 instructions: 40000000 cycles: 29419219 heartbeat IPC: 1.35905 cumulative IPC: 1.35966 (Simulation time: 0 hr 10 min 46 sec) 
Heartbeat CPU 0 instructions: 70000000 cycles: 29461619 heartbeat IPC: 2.37529 cumulative IPC: 2.37597 (Simulation time: 0 hr 10 min 47 sec) 
Heartbeat CPU 1 instructions: 80000000 cycles: 32445383 heartbeat IPC: 2.68055 cumulative IPC: 2.46568 (Simulation time: 0 hr 11 min 53 sec) 
Heartbeat CPU 0 instructions: 80000000 cycles: 33665740 heartbeat IPC: 2.37862 cumulative IPC: 2.3763 (Simulation time: 0 hr 12 min 19 sec) 
Heartbeat CPU 3 instructions: 60000000 cycles: 34403694 heartbeat IPC: 1.95634 cumulative IPC: 1.744 (Simulation time: 0 hr 12 min 35 sec) 
Heartbeat CPU 1 instructions: 90000002 cycles: 36446718 heartbeat IPC: 2.49917 cumulative IPC: 2.46936 (Simulation time: 0 hr 13 min 21 sec) 
Heartbeat CPU 2 instructions: 50000000 cycles: 36777041 heartbeat IPC: 1.3591 cumulative IPC: 1.35954 (Simulation time: 0 hr 13 min 29 sec) 
Heartbeat CPU 0 instructions: 90000000 cycles: 37879439 heartbeat IPC: 2.37321 cumulative IPC: 2.37596 (Simulation time: 0 hr 13 min 54 sec) 
Heartbeat CPU 3 instructions: 70000001 cycles: 39329455 heartbeat IPC: 2.03014 cumulative IPC: 1.77984 (Simulation time: 0 hr 14 min 26 sec) 
Heartbeat CPU 1 instructions: 100000000 cycles: 40558530 heartbeat IPC: 2.43202 cumulative IPC: 2.46557 (Simulation time: 0 hr 14 min 56 sec) 
Heartbeat CPU 0 instructions: 100000000 cycles: 42081929 heartbeat IPC: 2.37954 cumulative IPC: 2.37632 (Simulation time: 0 hr 15 min 29 sec) 
Heartbeat CPU 2 instructions: 60000000 cycles: 44142497 heartbeat IPC: 1.35769 cumulative IPC: 1.35923 (Simulation time: 0 hr 16 min 22 sec) 
Heartbeat CPU 1 instructions: 110000003 cycles: 44445800 heartbeat IPC: 2.5725 cumulative IPC: 2.47492 (Simulation time: 0 hr 16 min 28 sec) 
Heartbeat CPU 3 instructions: 80000000 cycles: 45482574 heartbeat IPC: 1.62519 cumulative IPC: 1.75892 (Simulation time: 0 hr 16 min 51 sec) 
Heartbeat CPU 0 instructions: 110000003 cycles: 46288322 heartbeat IPC: 2.37733 cumulative IPC: 2.37641 (Simulation time: 0 hr 17 min 8 sec) 
Heartbeat CPU 1 instructions: 120000000 cycles: 48433213 heartbeat IPC: 2.50789 cumulative IPC: 2.47764 (Simulation time: 0 hr 17 min 50 sec) 
Heartbeat CPU 0 instructions: 120000000 cycles: 50506907 heartbeat IPC: 2.37046 cumulative IPC: 2.37591 (Simulation time: 0 hr 18 min 34 sec) 
Heartbeat CPU 3 instructions: 90000001 cycles: 51337923 heartbeat IPC: 1.70784 cumulative IPC: 1.75309 (Simulation time: 0 hr 18 min 51 sec) 
Heartbeat CPU 2 instructions: 70000000 cycles: 51496616 heartbeat IPC: 1.35978 cumulative IPC: 1.35931 (Simulation time: 0 hr 18 min 54 sec) 
Heartbeat CPU 1 instructions: 130000003 cycles: 52723688 heartbeat IPC: 2.33074 cumulative IPC: 2.46568 (Simulation time: 0 hr 19 min 19 sec) 
Heartbeat CPU 0 instructions: 130000001 cycles: 54720678 heartbeat IPC: 2.37317 cumulative IPC: 2.3757 (Simulation time: 0 hr 19 min 56 sec) 
Heartbeat CPU 1 instructions: 140000000 cycles: 56957050 heartbeat IPC: 2.36219 cumulative IPC: 2.45799 (Simulation time: 0 hr 20 min 35 sec) 
Heartbeat CPU 3 instructions: 100000000 cycles: 57598536 heartbeat IPC: 1.59729 cumulative IPC: 1.73616 (Simulation time: 0 hr 20 min 46 sec) 
Heartbeat CPU 2 instructions: 80000000 cycles: 58844363 heartbeat IPC: 1.36096 cumulative IPC: 1.35952 (Simulation time: 0 hr 21 min 8 sec) 
Heartbeat CPU 0 instructions: 140000000 cycles: 58931355 heartbeat IPC: 2.37491 cumulative IPC: 2.37565 (Simulation time: 0 hr 21 min 10 sec) 
Heartbeat CPU 1 instructions: 150000001 cycles: 60798770 heartbeat IPC: 2.603 cumulative IPC: 2.46716 (Simulation time: 0 hr 21 min 43 sec) 
Heartbeat CPU 0 instructions: 150000002 cycles: 63141931 heartbeat IPC: 2.37497 cumulative IPC: 2.3756 (Simulation time: 0 hr 22 min 25 sec) 
Heartbeat CPU 3 instructions: 110000002 cycles: 63927235 heartbeat IPC: 1.5801 cumulative IPC: 1.72071 (Simulation time: 0 hr 22 min 39 sec) 
Heartbeat CPU 1 instructions: 160000000 cycles: 65079624 heartbeat IPC: 2.33598 cumulative IPC: 2.45853 (Simulation time: 0 hr 22 min 59 sec) 
Heartbeat CPU 2 instructions: 90000000 cycles: 66194290 heartbeat IPC: 1.36056 cumulative IPC: 1.35963 (Simulation time: 0 hr 23 min 19 sec) 
Heartbeat CPU 0 instructions: 160000000 cycles: 67355146 heartbeat IPC: 2.37348 cumulative IPC: 2.37547 (Simulation time: 0 hr 23 min 41 sec) 
Heartbeat CPU 1 instructions: 170000002 cycles: 69177696 heartbeat IPC: 2.44017 cumulative IPC: 2.45744 (Simulation time: 0 hr 24 min 16 sec) 
Heartbeat CPU 3 instructions: 120000000 cycles: 70083995 heartbeat IPC: 1.62423 cumulative IPC: 1.71223 (Simulation time: 0 hr 24 min 34 sec) 
Heartbeat CPU 0 instructions: 170000003 cycles: 71573859 heartbeat IPC: 2.37039 cumulative IPC: 2.37517 (Simulation time: 0 hr 25 min 5 sec) 
Heartbeat CPU 1 instructions: 180000000 cycles: 73273109 heartbeat IPC: 2.44176 cumulative IPC: 2.45656 (Simulation time: 0 hr 25 min 40 sec) 
Heartbeat CPU 2 instructions: 100000000 cycles: 73564548 heartbeat IPC: 1.3568 cumulative IPC: 1.35935 (Simulation time: 0 hr 25 min 46 sec) 
Heartbeat CPU 3 instructions: 130000001 cycles: 75346480 heartbeat IPC: 1.90024 cumulative IPC: 1.72536 (Simulation time: 0 hr 26 min 23 sec) 
Heartbeat CPU 0 instructions: 180000000 cycles: 75786125 heartbeat IPC: 2.37402 cumulative IPC: 2.3751 (Simulation time: 0 hr 26 min 32 sec) 
Heartbeat CPU 1 instructions: 190000002 cycles: 77384109 heartbeat IPC: 2.4325 cumulative IPC: 2.45528 (Simulation time: 0 hr 27 min 6 sec) 
Heartbeat CPU 0 instructions: 190000001 cycles: 79993101 heartbeat IPC: 2.377 cumulative IPC: 2.3752 (Simulation time: 0 hr 28 min 1 sec) 
Heartbeat CPU 3 instructions: 140000000 cycles: 80275386 heartbeat IPC: 2.02885 cumulative IPC: 1.744 (Simulation time: 0 hr 28 min 7 sec) 
Heartbeat CPU 2 instructions: 110000003 cycles: 80898847 heartbeat IPC: 1.36346 cumulative IPC: 1.35972 (Simulation time: 0 hr 28 min 20 sec) 
Heartbeat CPU 1 instructions: 200000000 cycles: 81491386 heartbeat IPC: 2.4347 cumulative IPC: 2.45425 (Simulation time: 0 hr 28 min 32 sec) 
Heartbeat CPU 0 instructions: 200000000 cycles: 84205484 heartbeat IPC: 2.37395 cumulative IPC: 2.37514 (Simulation time: 0 hr 29 min 27 sec) 
Heartbeat CPU 1 instructions: 210000001 cycles: 85597215 heartbeat IPC: 2.43556 cumulative IPC: 0.116826 (Simulation time: 0 hr 29 min 57 sec) 
Heartbeat CPU 3 instructions: 150000001 cycles: 86611964 heartbeat IPC: 1.57814 cumulative IPC: 1.73186 (Simulation time: 0 hr 30 min 19 sec) 
Heartbeat CPU 2 instructions: 120000000 cycles: 88253193 heartbeat IPC: 1.35974 cumulative IPC: 1.35972 (Simulation time: 0 hr 30 min 54 sec) 
Heartbeat CPU 0 instructions: 210000002 cycles: 88421738 heartbeat IPC: 2.37177 cumulative IPC: 0.113094 (Simulation time: 0 hr 30 min 57 sec) 
Heartbeat CPU 1 instructions: 220000000 cycles: 89697089 heartbeat IPC: 2.4391 cumulative IPC: 0.222973 (Simulation time: 0 hr 31 min 25 sec) 
Heartbeat CPU 3 instructions: 160000000 cycles: 92097324 heartbeat IPC: 1.82303 cumulative IPC: 1.73729 (Simulation time: 0 hr 32 min 14 sec) 
Heartbeat CPU 0 instructions: 220000000 cycles: 92666964 heartbeat IPC: 2.35559 cumulative IPC: 0.215827 (Simulation time: 0 hr 32 min 26 sec) 
Heartbeat CPU 1 instructions: 230000001 cycles: 93806051 heartbeat IPC: 2.4337 cumulative IPC: 0.319809 (Simulation time: 0 hr 32 min 49 sec) 
Heartbeat CPU 2 instructions: 130000000 cycles: 95590026 heartbeat IPC: 1.36299 cumulative IPC: 1.35997 (Simulation time: 0 hr 33 min 25 sec) 
Heartbeat CPU 0 instructions: 230000000 cycles: 96879244 heartbeat IPC: 2.37401 cumulative IPC: 0.309664 (Simulation time: 0 hr 33 min 52 sec) 
Heartbeat CPU 1 instructions: 240000000 cycles: 97903823 heartbeat IPC: 2.44035 cumulative IPC: 0.408564 (Simulation time: 0 hr 34 min 13 sec) 
Heartbeat CPU 3 instructions: 170000000 cycles: 98200541 heartbeat IPC: 1.63848 cumulative IPC: 1.73115 (Simulation time: 0 hr 34 min 20 sec) 
Heartbeat CPU 0 instructions: 240000000 cycles: 101081688 heartbeat IPC: 2.37957 cumulative IPC: 0.39572 (Simulation time: 0 hr 35 min 18 sec) 
Heartbeat CPU 1 instructions: 250000003 cycles: 101964421 heartbeat IPC: 2.46269 cumulative IPC: 0.490367 (Simulation time: 0 hr 35 min 36 sec) 
Heartbeat CPU 2 instructions: 140000000 cycles: 102950190 heartbeat IPC: 1.35867 cumulative IPC: 1.35988 (Simulation time: 0 hr 35 min 56 sec) 
Heartbeat CPU 3 instructions: 180000000 cycles: 104593334 heartbeat IPC: 1.56426 cumulative IPC: 1.72095 (Simulation time: 0 hr 36 min 30 sec) 
Heartbeat CPU 0 instructions: 250000001 cycles: 105281809 heartbeat IPC: 2.38088 cumulative IPC: 0.474916 (Simulation time: 0 hr 36 min 44 sec) 
Heartbeat CPU 1 instructions: 260000000 cycles: 105733398 heartbeat IPC: 2.65324 cumulative IPC: 0.567465 (Simulation time: 0 hr 36 min 53 sec) 
Heartbeat CPU 0 instructions: 260000000 cycles: 109471332 heartbeat IPC: 2.38691 cumulative IPC: 0.548089 (Simulation time: 0 hr 38 min 7 sec) 
Heartbeat CPU 1 instructions: 270000001 cycles: 109801154 heartbeat IPC: 2.45836 cumulative IPC: 0.637516 (Simulation time: 0 hr 38 min 13 sec) 
Heartbeat CPU 2 instructions: 150000001 cycles: 110317883 heartbeat IPC: 1.35728 cumulative IPC: 1.35971 (Simulation time: 0 hr 38 min 23 sec) 
Heartbeat CPU 3 instructions: 190000001 cycles: 110783032 heartbeat IPC: 1.61559 cumulative IPC: 1.71506 (Simulation time: 0 hr 38 min 32 sec) 
Heartbeat CPU 0 instructions: 270000002 cycles: 113656467 heartbeat IPC: 2.38941 cumulative IPC: 0.615891 (Simulation time: 0 hr 39 min 30 sec) 
Heartbeat CPU 1 instructions: 280000000 cycles: 113931227 heartbeat IPC: 2.42126 cumulative IPC: 0.702178 (Simulation time: 0 hr 39 min 36 sec) 
Heartbeat CPU 3 instructions: 200000000 cycles: 116449697 heartbeat IPC: 1.76471 cumulative IPC: 1.71748 (Simulation time: 0 hr 40 min 25 sec) 
Heartbeat CPU 2 instructions: 160000000 cycles: 117690551 heartbeat IPC: 1.35636 cumulative IPC: 1.3595 (Simulation time: 0 hr 40 min 51 sec) 
Heartbeat CPU 1 instructions: 290000002 cycles: 117819467 heartbeat IPC: 2.57186 cumulative IPC: 0.763881 (Simulation time: 0 hr 40 min 54 sec) 
Heartbeat CPU 0 instructions: 280000000 cycles: 117841139 heartbeat IPC: 2.38967 cumulative IPC: 0.67888 (Simulation time: 0 hr 40 min 54 sec) 
Heartbeat CPU 3 instructions: 210000000 cycles: 121310626 heartbeat IPC: 2.05722 cumulative IPC: 0.082433 (Simulation time: 0 hr 42 min 3 sec) 
Heartbeat CPU 1 instructions: 300000000 cycles: 121848338 heartbeat IPC: 2.48208 cumulative IPC: 0.820692 (Simulation time: 0 hr 42 min 13 sec) 
Heartbeat CPU 0 instructions: 290000000 cycles: 122024813 heartbeat IPC: 2.39024 cumulative IPC: 0.737555 (Simulation time: 0 hr 42 min 17 sec) 
Heartbeat CPU 2 instructions: 170000003 cycles: 125041732 heartbeat IPC: 1.36033 cumulative IPC: 1.35955 (Simulation time: 0 hr 43 min 16 sec) 
Heartbeat CPU 1 instructions: 310000000 cycles: 126190534 heartbeat IPC: 2.30298 cumulative IPC: 0.871698 (Simulation time: 0 hr 43 min 38 sec) 
Heartbeat CPU 0 instructions: 300000000 cycles: 126211282 heartbeat IPC: 2.38865 cumulative IPC: 0.792322 (Simulation time: 0 hr 43 min 38 sec) 
Heartbeat CPU 3 instructions: 220000000 cycles: 127122249 heartbeat IPC: 1.72069 cumulative IPC: 0.157329 (Simulation time: 0 hr 43 min 55 sec) 
Heartbeat CPU 0 instructions: 310000001 cycles: 130399590 heartbeat IPC: 2.3876 cumulative IPC: 0.843561 (Simulation time: 0 hr 45 min 0 sec) 
Heartbeat CPU 1 instructions: 320000000 cycles: 130482391 heartbeat IPC: 2.32999 cumulative IPC: 0.919664 (Simulation time: 0 hr 45 min 2 sec) 
Heartbeat CPU 2 instructions: 180000000 cycles: 132402275 heartbeat IPC: 1.3586 cumulative IPC: 1.35949 (Simulation time: 0 hr 45 min 39 sec) 
Heartbeat CPU 3 instructions: 230000000 cycles: 133461639 heartbeat IPC: 1.57744 cumulative IPC: 0.224784 (Simulation time: 0 hr 45 min 59 sec) 
Heartbeat CPU 1 instructions: 330000000 cycles: 134366438 heartbeat IPC: 2.57463 cumulative IPC: 0.967503 (Simulation time: 0 hr 46 min 17 sec) 
Heartbeat CPU 0 instructions: 320000000 cycles: 134585016 heartbeat IPC: 2.38924 cumulative IPC: 0.89163 (Simulation time: 0 hr 46 min 21 sec) 
Heartbeat CPU 1 instructions: 340000000 cycles: 138631520 heartbeat IPC: 2.34462 cumulative IPC: 1.00987 (Simulation time: 0 hr 47 min 37 sec) 
Heartbeat CPU 0 instructions: 330000001 cycles: 138773731 heartbeat IPC: 2.38737 cumulative IPC: 0.936777 (Simulation time: 0 hr 47 min 40 sec) 
Heartbeat CPU 3 instructions: 240000000 cycles: 139663483 heartbeat IPC: 1.61242 cumulative IPC: 0.286403 (Simulation time: 0 hr 47 min 56 sec) 
Heartbeat CPU 2 instructions: 190000002 cycles: 139747549 heartbeat IPC: 1.36142 cumulative IPC: 1.35959 (Simulation time: 0 hr 47 min 58 sec) 
Heartbeat CPU 1 instructions: 350000003 cycles: 142808656 heartbeat IPC: 2.39399 cumulative IPC: 1.05036 (Simulation time: 0 hr 49 min 1 sec) 
Heartbeat CPU 0 instructions: 340000000 cycles: 142956453 heartbeat IPC: 2.39079 cumulative IPC: 0.979319 (Simulation time: 0 hr 49 min 4 sec) 
Heartbeat CPU 3 instructions: 250000001 cycles: 145797410 heartbeat IPC: 1.63028 cumulative IPC: 0.342942 (Simulation time: 0 hr 50 min 3 sec) 
Heartbeat CPU 1 instructions: 360000000 cycles: 146945899 heartbeat IPC: 2.41707 cumulative IPC: 1.08884 (Simulation time: 0 hr 50 min 27 sec) 
Heartbeat CPU 2 instructions: 200000000 cycles: 147095575 heartbeat IPC: 1.36091 cumulative IPC: 1.35966 (Simulation time: 0 hr 50 min 31 sec) 

Warmup complete CPU 0 instructions: 349892382 cycles: 147095577 (Simulation time: 0 hr 50 min 31 sec) 
Warmup complete CPU 1 instructions: 360356143 cycles: 147095577 (Simulation time: 0 hr 50 min 31 sec) 
Warmup complete CPU 2 instructions: 200000001 cycles: 147095577 (Simulation time: 0 hr 50 min 31 sec) 
Warmup complete CPU 3 instructions: 252128459 cycles: 147095576 (Simulation time: 0 hr 50 min 31 sec) 

Heartbeat CPU 0 instructions: 350000000 cycles: 147244877 heartbeat IPC: 2.33186 cumulative IPC: 0.720817 (Simulation time: 0 hr 50 min 32 sec) 
Heartbeat CPU 1 instructions: 370000001 cycles: 155594770 heartbeat IPC: 1.15622 cumulative IPC: 1.13468 (Simulation time: 0 hr 51 min 53 sec) 
Heartbeat CPU 0 instructions: 360000000 cycles: 161295586 heartbeat IPC: 0.711708 cumulative IPC: 0.711804 (Simulation time: 0 hr 52 min 48 sec) 
Heartbeat CPU 1 instructions: 380000000 cycles: 164341603 heartbeat IPC: 1.14327 cumulative IPC: 1.13904 (Simulation time: 0 hr 53 min 18 sec) 
Heartbeat CPU 3 instructions: 260000000 cycles: 165210218 heartbeat IPC: 0.515124 cumulative IPC: 0.43454 (Simulation time: 0 hr 53 min 27 sec) 
Heartbeat CPU 1 instructions: 390000003 cycles: 173118609 heartbeat IPC: 1.13934 cumulative IPC: 1.13914 (Simulation time: 0 hr 54 min 47 sec) 
Heartbeat CPU 0 instructions: 370000001 cycles: 175405029 heartbeat IPC: 0.708745 cumulative IPC: 0.710279 (Simulation time: 0 hr 55 min 10 sec) 
Heartbeat CPU 3 instructions: 270000000 cycles: 181589176 heartbeat IPC: 0.610539 cumulative IPC: 0.518112 (Simulation time: 0 hr 56 min 13 sec) 
Heartbeat CPU 1 instructions: 400000000 cycles: 181868014 heartbeat IPC: 1.14293 cumulative IPC: 1.14009 (Simulation time: 0 hr 56 min 16 sec) 
Heartbeat CPU 2 instructions: 210000003 cycles: 187577540 heartbeat IPC: 0.247024 cumulative IPC: 0.247024 (Simulation time: 0 hr 57 min 22 sec) 
Heartbeat CPU 0 instructions: 380000000 cycles: 189576145 heartbeat IPC: 0.705661 cumulative IPC: 0.708739 (Simulation time: 0 hr 57 min 42 sec) 
Heartbeat CPU 1 instructions: 410000001 cycles: 190593171 heartbeat IPC: 1.14611 cumulative IPC: 1.1413 (Simulation time: 0 hr 57 min 53 sec) 
Heartbeat CPU 1 instructions: 420000000 cycles: 199270488 heartbeat IPC: 1.15243 cumulative IPC: 1.14315 (Simulation time: 0 hr 59 min 23 sec) 
Heartbeat CPU 3 instructions: 280000000 cycles: 199461334 heartbeat IPC: 0.55953 cumulative IPC: 0.532247 (Simulation time: 0 hr 59 min 25 sec) 
Heartbeat CPU 0 instructions: 390000001 cycles: 203754369 heartbeat IPC: 0.705307 cumulative IPC: 0.70788 (Simulation time: 1 hr 0 min 8 sec) 
Heartbeat CPU 1 instructions: 430000001 cycles: 207795067 heartbeat IPC: 1.17308 cumulative IPC: 1.14735 (Simulation time: 1 hr 0 min 47 sec) 
Heartbeat CPU 1 instructions: 440000000 cycles: 215027953 heartbeat IPC: 1.38257 cumulative IPC: 1.1724 (Simulation time: 1 hr 1 min 58 sec) 
Heartbeat CPU 0 instructions: 400000000 cycles: 217901811 heartbeat IPC: 0.706841 cumulative IPC: 0.707672 (Simulation time: 1 hr 2 min 24 sec) 
Heartbeat CPU 3 instructions: 290000000 cycles: 221189279 heartbeat IPC: 0.460237 cumulative IPC: 0.51113 (Simulation time: 1 hr 2 min 54 sec) 
Heartbeat CPU 1 instructions: 450000000 cycles: 225042856 heartbeat IPC: 0.998512 cumulative IPC: 1.15006 (Simulation time: 1 hr 3 min 28 sec) 
Heartbeat CPU 2 instructions: 220000000 cycles: 227724438 heartbeat IPC: 0.249085 cumulative IPC: 0.24805 (Simulation time: 1 hr 3 min 51 sec) 
Heartbeat CPU 0 instructions: 410000002 cycles: 232065629 heartbeat IPC: 0.706024 cumulative IPC: 0.707398 (Simulation time: 1 hr 4 min 30 sec) 
Heartbeat CPU 1 instructions: 460000000 cycles: 233579769 heartbeat IPC: 1.17138 cumulative IPC: 1.15216 (Simulation time: 1 hr 4 min 44 sec) 
Heartbeat CPU 1 instructions: 470000003 cycles: 241473387 heartbeat IPC: 1.26685 cumulative IPC: 1.16175 (Simulation time: 1 hr 5 min 57 sec) 
Heartbeat CPU 0 instructions: 420000000 cycles: 246293421 heartbeat IPC: 0.70285 cumulative IPC: 0.706745 (Simulation time: 1 hr 6 min 42 sec) 
Heartbeat CPU 1 instructions: 480000000 cycles: 249833188 heartbeat IPC: 1.1962 cumulative IPC: 1.16456 (Simulation time: 1 hr 7 min 13 sec) 
Heartbeat CPU 3 instructions: 300000000 cycles: 253145349 heartbeat IPC: 0.31293 cumulative IPC: 0.451406 (Simulation time: 1 hr 7 min 41 sec) 
Heartbeat CPU 1 instructions: 490000000 cycles: 259143984 heartbeat IPC: 1.07402 cumulative IPC: 1.15703 (Simulation time: 1 hr 8 min 35 sec) 
Heartbeat CPU 0 instructions: 430000000 cycles: 260507923 heartbeat IPC: 0.703507 cumulative IPC: 0.706339 (Simulation time: 1 hr 8 min 47 sec) 
Heartbeat CPU 1 instructions: 500000000 cycles: 268300648 heartbeat IPC: 1.0921 cumulative IPC: 1.15213 (Simulation time: 1 hr 9 min 54 sec) 
Heartbeat CPU 2 instructions: 230000002 cycles: 268516777 heartbeat IPC: 0.245144 cumulative IPC: 0.247074 (Simulation time: 1 hr 9 min 56 sec) 
Heartbeat CPU 0 instructions: 440000000 cycles: 274740336 heartbeat IPC: 0.702622 cumulative IPC: 0.705925 (Simulation time: 1 hr 10 min 53 sec) 
Heartbeat CPU 1 instructions: 510000001 cycles: 275476642 heartbeat IPC: 1.39354 cumulative IPC: 1.16562 (Simulation time: 1 hr 10 min 59 sec) 
Heartbeat CPU 3 instructions: 310000001 cycles: 281819150 heartbeat IPC: 0.34875 cumulative IPC: 0.429558 (Simulation time: 1 hr 11 min 56 sec) 
Heartbeat CPU 1 instructions: 520000000 cycles: 284160922 heartbeat IPC: 1.15151 cumulative IPC: 1.16473 (Simulation time: 1 hr 12 min 17 sec) 
Heartbeat CPU 0 instructions: 450000000 cycles: 288987162 heartbeat IPC: 0.701911 cumulative IPC: 0.705522 (Simulation time: 1 hr 13 min 0 sec) 
Heartbeat CPU 1 instructions: 530000001 cycles: 293185409 heartbeat IPC: 1.1081 cumulative IPC: 1.16123 (Simulation time: 1 hr 13 min 38 sec) 
Heartbeat CPU 1 instructions: 540000000 cycles: 303117760 heartbeat IPC: 1.00681 cumulative IPC: 1.1514 (Simulation time: 1 hr 15 min 3 sec) 
Heartbeat CPU 0 instructions: 460000000 cycles: 303151949 heartbeat IPC: 0.705976 cumulative IPC: 0.705563 (Simulation time: 1 hr 15 min 4 sec) 
Heartbeat CPU 2 instructions: 240000000 cycles: 309233091 heartbeat IPC: 0.245602 cumulative IPC: 0.246704 (Simulation time: 1 hr 16 min 1 sec) 
Heartbeat CPU 3 instructions: 320000000 cycles: 310447443 heartbeat IPC: 0.349305 cumulative IPC: 0.415493 (Simulation time: 1 hr 16 min 12 sec) 
Heartbeat CPU 1 instructions: 550000003 cycles: 311783461 heartbeat IPC: 1.15398 cumulative IPC: 1.15154 (Simulation time: 1 hr 16 min 25 sec) 
Heartbeat CPU 0 instructions: 470000002 cycles: 317345013 heartbeat IPC: 0.70457 cumulative IPC: 0.70548 (Simulation time: 1 hr 17 min 18 sec) 
Heartbeat CPU 1 instructions: 560000000 cycles: 320450382 heartbeat IPC: 1.15381 cumulative IPC: 1.15165 (Simulation time: 1 hr 17 min 49 sec) 
Heartbeat CPU 1 instructions: 570000000 cycles: 329078386 heartbeat IPC: 1.15902 cumulative IPC: 1.152 (Simulation time: 1 hr 19 min 19 sec) 
Heartbeat CPU 0 instructions: 480000000 cycles: 331547285 heartbeat IPC: 0.704113 cumulative IPC: 0.705375 (Simulation time: 1 hr 19 min 43 sec) 
Heartbeat CPU 1 instructions: 580000000 cycles: 337708330 heartbeat IPC: 1.15876 cumulative IPC: 1.1523 (Simulation time: 1 hr 20 min 46 sec) 
Heartbeat CPU 3 instructions: 330000000 cycles: 340079010 heartbeat IPC: 0.337478 cumulative IPC: 0.403514 (Simulation time: 1 hr 21 min 8 sec) 
Heartbeat CPU 0 instructions: 490000000 cycles: 345751606 heartbeat IPC: 0.704011 cumulative IPC: 0.705277 (Simulation time: 1 hr 22 min 0 sec) 
Heartbeat CPU 1 instructions: 590000002 cycles: 346345251 heartbeat IPC: 1.15782 cumulative IPC: 1.15254 (Simulation time: 1 hr 22 min 6 sec) 
Heartbeat CPU 2 instructions: 250000000 cycles: 349943833 heartbeat IPC: 0.245635 cumulative IPC: 0.24649 (Simulation time: 1 hr 22 min 39 sec) 
Heartbeat CPU 1 instructions: 600000000 cycles: 354982013 heartbeat IPC: 1.15784 cumulative IPC: 1.15276 (Simulation time: 1 hr 23 min 25 sec) 
Heartbeat CPU 0 instructions: 500000000 cycles: 359965726 heartbeat IPC: 0.703526 cumulative IPC: 0.70516 (Simulation time: 1 hr 24 min 11 sec) 
Heartbeat CPU 1 instructions: 610000002 cycles: 363674024 heartbeat IPC: 1.15048 cumulative IPC: 1.15267 (Simulation time: 1 hr 24 min 45 sec) 
Heartbeat CPU 3 instructions: 340000000 cycles: 367297031 heartbeat IPC: 0.367404 cumulative IPC: 0.399051 (Simulation time: 1 hr 25 min 19 sec) 
Heartbeat CPU 1 instructions: 620000000 cycles: 370839275 heartbeat IPC: 1.39562 cumulative IPC: 1.16045 (Simulation time: 1 hr 25 min 53 sec) 
Heartbeat CPU 0 instructions: 510000000 cycles: 374163940 heartbeat IPC: 0.704314 cumulative IPC: 0.705108 (Simulation time: 1 hr 26 min 23 sec) 
Heartbeat CPU 1 instructions: 630000001 cycles: 380780143 heartbeat IPC: 1.00595 cumulative IPC: 1.15388 (Simulation time: 1 hr 27 min 21 sec) 
Heartbeat CPU 0 instructions: 520000000 cycles: 388323236 heartbeat IPC: 0.70625 cumulative IPC: 0.705175 (Simulation time: 1 hr 28 min 28 sec) 
Heartbeat CPU 1 instructions: 640000000 cycles: 390000861 heartbeat IPC: 1.08451 cumulative IPC: 1.15125 (Simulation time: 1 hr 28 min 42 sec) 
Heartbeat CPU 2 instructions: 260000000 cycles: 390646003 heartbeat IPC: 0.245687 cumulative IPC: 0.246356 (Simulation time: 1 hr 28 min 49 sec) 
Heartbeat CPU 3 instructions: 350000000 cycles: 392920436 heartbeat IPC: 0.390268 cumulative IPC: 0.398135 (Simulation time: 1 hr 29 min 11 sec) 
Heartbeat CPU 1 instructions: 650000000 cycles: 398045780 heartbeat IPC: 1.24302 cumulative IPC: 1.15419 (Simulation time: 1 hr 29 min 57 sec) 
Heartbeat CPU 0 instructions: 530000000 cycles: 402487932 heartbeat IPC: 0.705981 cumulative IPC: 0.705219 (Simulation time: 1 hr 30 min 40 sec) 
Heartbeat CPU 1 instructions: 660000000 cycles: 405961746 heartbeat IPC: 1.26327 cumulative IPC: 1.15752 (Simulation time: 1 hr 31 min 12 sec) 
Heartbeat CPU 1 instructions: 670000001 cycles: 415283839 heartbeat IPC: 1.07272 cumulative IPC: 1.15458 (Simulation time: 1 hr 32 min 32 sec) 
Heartbeat CPU 0 instructions: 540000000 cycles: 416626184 heartbeat IPC: 0.707301 cumulative IPC: 0.705329 (Simulation time: 1 hr 32 min 43 sec) 
Heartbeat CPU 3 instructions: 360000000 cycles: 417426527 heartbeat IPC: 0.408062 cumulative IPC: 0.399035 (Simulation time: 1 hr 32 min 50 sec) 
Heartbeat CPU 1 instructions: 680000000 cycles: 425588554 heartbeat IPC: 0.970429 cumulative IPC: 1.14776 (Simulation time: 1 hr 33 min 59 sec) 
Heartbeat CPU 0 instructions: 550000000 cycles: 430803255 heartbeat IPC: 0.705364 cumulative IPC: 0.70533 (Simulation time: 1 hr 34 min 46 sec) 
Heartbeat CPU 2 instructions: 270000000 cycles: 432460577 heartbeat IPC: 0.239151 cumulative IPC: 0.2453 (Simulation time: 1 hr 35 min 0 sec) 
Heartbeat CPU 1 instructions: 690000000 cycles: 432524798 heartbeat IPC: 1.4417 cumulative IPC: 1.15491 (Simulation time: 1 hr 35 min 1 sec) 
Heartbeat CPU 1 instructions: 700000000 cycles: 440287192 heartbeat IPC: 1.28826 cumulative IPC: 1.15844 (Simulation time: 1 hr 36 min 10 sec) 
Heartbeat CPU 3 instructions: 370000000 cycles: 440986434 heartbeat IPC: 0.42445 cumulative IPC: 0.401073 (Simulation time: 1 hr 36 min 17 sec) 
Heartbeat CPU 0 instructions: 560000000 cycles: 444989847 heartbeat IPC: 0.704891 cumulative IPC: 0.705309 (Simulation time: 1 hr 36 min 52 sec) 
Heartbeat CPU 1 instructions: 710000001 cycles: 449691161 heartbeat IPC: 1.06338 cumulative IPC: 1.15548 (Simulation time: 1 hr 37 min 35 sec) 
Heartbeat CPU 3 instructions: 380000000 cycles: 457289152 heartbeat IPC: 0.613395 cumulative IPC: 0.412231 (Simulation time: 1 hr 38 min 47 sec) 
Heartbeat CPU 0 instructions: 570000001 cycles: 459181332 heartbeat IPC: 0.704648 cumulative IPC: 0.705279 (Simulation time: 1 hr 39 min 5 sec) 
Heartbeat CPU 1 instructions: 720000000 cycles: 459535346 heartbeat IPC: 1.01583 cumulative IPC: 1.15108 (Simulation time: 1 hr 39 min 8 sec) 
Heartbeat CPU 1 instructions: 730000000 cycles: 468770268 heartbeat IPC: 1.08285 cumulative IPC: 1.14912 (Simulation time: 1 hr 40 min 38 sec) 
Heartbeat CPU 2 instructions: 280000000 cycles: 473112833 heartbeat IPC: 0.245989 cumulative IPC: 0.245386 (Simulation time: 1 hr 41 min 21 sec) 
Heartbeat CPU 3 instructions: 390000000 cycles: 473254043 heartbeat IPC: 0.626374 cumulative IPC: 0.422713 (Simulation time: 1 hr 41 min 22 sec) 
Heartbeat CPU 0 instructions: 580000000 cycles: 473352466 heartbeat IPC: 0.70566 cumulative IPC: 0.705296 (Simulation time: 1 hr 41 min 23 sec) 
Heartbeat CPU 1 instructions: 740000000 cycles: 477404660 heartbeat IPC: 1.15816 cumulative IPC: 1.14936 (Simulation time: 1 hr 42 min 3 sec) 
Heartbeat CPU 1 instructions: 750000001 cycles: 486057610 heartbeat IPC: 1.15568 cumulative IPC: 1.14952 (Simulation time: 1 hr 43 min 27 sec) 
Heartbeat CPU 0 instructions: 590000002 cycles: 487510471 heartbeat IPC: 0.706314 cumulative IPC: 0.705338 (Simulation time: 1 hr 43 min 41 sec) 
Heartbeat CPU 3 instructions: 400000000 cycles: 490832824 heartbeat IPC: 0.568868 cumulative IPC: 0.430188 (Simulation time: 1 hr 44 min 12 sec) 
Heartbeat CPU 1 instructions: 760000000 cycles: 494704134 heartbeat IPC: 1.15653 cumulative IPC: 1.1497 (Simulation time: 1 hr 44 min 50 sec) 
Heartbeat CPU 0 instructions: 600000000 cycles: 501645984 heartbeat IPC: 0.707438 cumulative IPC: 0.705422 (Simulation time: 1 hr 45 min 56 sec) 
Heartbeat CPU 1 instructions: 770000003 cycles: 503354280 heartbeat IPC: 1.15605 cumulative IPC: 1.14985 (Simulation time: 1 hr 46 min 12 sec) 
Heartbeat CPU 3 instructions: 410000001 cycles: 510747254 heartbeat IPC: 0.502149 cumulative IPC: 0.434128 (Simulation time: 1 hr 47 min 21 sec) 
Heartbeat CPU 1 instructions: 780000000 cycles: 512013748 heartbeat IPC: 1.15481 cumulative IPC: 1.14997 (Simulation time: 1 hr 47 min 33 sec) 
Heartbeat CPU 2 instructions: 290000000 cycles: 513569285 heartbeat IPC: 0.247179 cumulative IPC: 0.245584 (Simulation time: 1 hr 47 min 47 sec) 
Heartbeat CPU 0 instructions: 610000000 cycles: 515772930 heartbeat IPC: 0.707867 cumulative IPC: 0.705516 (Simulation time: 1 hr 48 min 7 sec) 
Heartbeat CPU 1 instructions: 790000001 cycles: 520732583 heartbeat IPC: 1.14694 cumulative IPC: 1.1499 (Simulation time: 1 hr 48 min 52 sec) 
Heartbeat CPU 1 instructions: 800000000 cycles: 528623521 heartbeat IPC: 1.26728 cumulative IPC: 1.15232 (Simulation time: 1 hr 50 min 3 sec) 
Heartbeat CPU 0 instructions: 620000000 cycles: 529892018 heartbeat IPC: 0.708261 cumulative IPC: 0.705617 (Simulation time: 1 hr 50 min 15 sec) 
Heartbeat CPU 1 instructions: 810000000 cycles: 536818303 heartbeat IPC: 1.22029 cumulative IPC: 1.15375 (Simulation time: 1 hr 51 min 13 sec) 
Heartbeat CPU 3 instructions: 420000000 cycles: 538085489 heartbeat IPC: 0.365788 cumulative IPC: 0.42935 (Simulation time: 1 hr 51 min 24 sec) 
Heartbeat CPU 0 instructions: 630000002 cycles: 544011712 heartbeat IPC: 0.708231 cumulative IPC: 0.70571 (Simulation time: 1 hr 52 min 16 sec) 
Heartbeat CPU 1 instructions: 820000000 cycles: 546642286 heartbeat IPC: 1.01792 cumulative IPC: 1.15041 (Simulation time: 1 hr 52 min 40 sec) 
Heartbeat CPU 2 instructions: 300000000 cycles: 554118994 heartbeat IPC: 0.246611 cumulative IPC: 0.245686 (Simulation time: 1 hr 53 min 52 sec) 
Heartbeat CPU 1 instructions: 830000001 cycles: 555132956 heartbeat IPC: 1.17776 cumulative IPC: 1.15098 (Simulation time: 1 hr 54 min 2 sec) 
Heartbeat CPU 0 instructions: 640000000 cycles: 558126990 heartbeat IPC: 0.708452 cumulative IPC: 0.705804 (Simulation time: 1 hr 54 min 30 sec) 
Heartbeat CPU 1 instructions: 840000000 cycles: 562755872 heartbeat IPC: 1.31183 cumulative IPC: 1.15393 (Simulation time: 1 hr 55 min 16 sec) 
Heartbeat CPU 3 instructions: 430000002 cycles: 568996009 heartbeat IPC: 0.323515 cumulative IPC: 0.421596 (Simulation time: 1 hr 56 min 12 sec) 
Heartbeat CPU 1 instructions: 850000001 cycles: 571769987 heartbeat IPC: 1.10937 cumulative IPC: 1.15299 (Simulation time: 1 hr 56 min 36 sec) 
Heartbeat CPU 0 instructions: 650000000 cycles: 572264135 heartbeat IPC: 0.707356 cumulative IPC: 0.705856 (Simulation time: 1 hr 56 min 41 sec) 
Heartbeat CPU 1 instructions: 860000000 cycles: 581706004 heartbeat IPC: 1.00644 cumulative IPC: 1.14964 (Simulation time: 1 hr 58 min 6 sec) 
Heartbeat CPU 0 instructions: 660000000 cycles: 586456567 heartbeat IPC: 0.704601 cumulative IPC: 0.705815 (Simulation time: 1 hr 58 min 47 sec) 
Heartbeat CPU 1 instructions: 870000001 cycles: 589887161 heartbeat IPC: 1.22232 cumulative IPC: 1.15098 (Simulation time: 1 hr 59 min 25 sec) 
Heartbeat CPU 2 instructions: 310000000 cycles: 595343445 heartbeat IPC: 0.242574 cumulative IPC: 0.2454 (Simulation time: 2 hr 0 min 21 sec) 
Heartbeat CPU 3 instructions: 440000000 cycles: 596780597 heartbeat IPC: 0.359912 cumulative IPC: 0.417785 (Simulation time: 2 hr 0 min 36 sec) 
Heartbeat CPU 1 instructions: 880000000 cycles: 597217163 heartbeat IPC: 1.36426 cumulative IPC: 1.15445 (Simulation time: 2 hr 0 min 41 sec) 
Heartbeat CPU 0 instructions: 670000000 cycles: 600647557 heartbeat IPC: 0.704672 cumulative IPC: 0.705779 (Simulation time: 2 hr 1 min 17 sec) 
Heartbeat CPU 1 instructions: 890000000 cycles: 606244044 heartbeat IPC: 1.1078 cumulative IPC: 1.15354 (Simulation time: 2 hr 2 min 11 sec) 
Heartbeat CPU 0 instructions: 680000000 cycles: 615025344 heartbeat IPC: 0.695517 cumulative IPC: 0.705464 (Simulation time: 2 hr 3 min 39 sec) 
Heartbeat CPU 1 instructions: 900000000 cycles: 615590335 heartbeat IPC: 1.06994 cumulative IPC: 1.15187 (Simulation time: 2 hr 3 min 45 sec) 
Heartbeat CPU 3 instructions: 450000000 cycles: 621163371 heartbeat IPC: 0.410126 cumulative IPC: 0.417391 (Simulation time: 2 hr 4 min 43 sec) 
Heartbeat CPU 1 instructions: 910000002 cycles: 625258033 heartbeat IPC: 1.03437 cumulative IPC: 1.14949 (Simulation time: 2 hr 5 min 29 sec) 
Heartbeat CPU 0 instructions: 690000000 cycles: 629289848 heartbeat IPC: 0.701041 cumulative IPC: 0.705333 (Simulation time: 2 hr 6 min 18 sec) 
Heartbeat CPU 1 instructions: 920000000 cycles: 633795413 heartbeat IPC: 1.17132 cumulative IPC: 1.14987 (Simulation time: 2 hr 7 min 12 sec) 
Heartbeat CPU 2 instructions: 320000000 cycles: 636082380 heartbeat IPC: 0.245465 cumulative IPC: 0.245405 (Simulation time: 2 hr 7 min 37 sec) 
Heartbeat CPU 3 instructions: 460000000 cycles: 639827788 heartbeat IPC: 0.535779 cumulative IPC: 0.421875 (Simulation time: 2 hr 8 min 21 sec) 
Heartbeat CPU 1 instructions: 930000002 cycles: 642279420 heartbeat IPC: 1.17869 cumulative IPC: 1.15037 (Simulation time: 2 hr 8 min 46 sec) 
Heartbeat CPU 0 instructions: 700000000 cycles: 643565731 heartbeat IPC: 0.700482 cumulative IPC: 0.705194 (Simulation time: 2 hr 9 min 2 sec) 
Heartbeat CPU 1 instructions: 940000000 cycles: 650776088 heartbeat IPC: 1.17693 cumulative IPC: 1.15082 (Simulation time: 2 hr 10 min 13 sec) 
Heartbeat CPU 0 instructions: 710000000 cycles: 657847760 heartbeat IPC: 0.700181 cumulative IPC: 0.705054 (Simulation time: 2 hr 11 min 20 sec) 
Heartbeat CPU 1 instructions: 950000003 cycles: 659300445 heartbeat IPC: 1.17311 cumulative IPC: 1.15119 (Simulation time: 2 hr 11 min 33 sec) 
Heartbeat CPU 1 instructions: 960000000 cycles: 667782114 heartbeat IPC: 1.17901 cumulative IPC: 1.15164 (Simulation time: 2 hr 12 min 54 sec) 
Heartbeat CPU 3 instructions: 470000000 cycles: 667877470 heartbeat IPC: 0.35651 cumulative IPC: 0.418355 (Simulation time: 2 hr 12 min 55 sec) 
Heartbeat CPU 0 instructions: 720000000 cycles: 672126889 heartbeat IPC: 0.700323 cumulative IPC: 0.704925 (Simulation time: 2 hr 13 min 37 sec) 
Heartbeat CPU 2 instructions: 330000003 cycles: 676343269 heartbeat IPC: 0.24838 cumulative IPC: 0.245632 (Simulation time: 2 hr 14 min 17 sec) 
Heartbeat CPU 1 instructions: 970000000 cycles: 676432932 heartbeat IPC: 1.15596 cumulative IPC: 1.15171 (Simulation time: 2 hr 14 min 18 sec) 
Heartbeat CPU 1 instructions: 980000000 cycles: 685200662 heartbeat IPC: 1.14055 cumulative IPC: 1.15153 (Simulation time: 2 hr 15 min 42 sec) 
Heartbeat CPU 0 instructions: 730000001 cycles: 686409591 heartbeat IPC: 0.700148 cumulative IPC: 0.704798 (Simulation time: 2 hr 15 min 53 sec) 
Heartbeat CPU 1 instructions: 990000001 cycles: 692332221 heartbeat IPC: 1.40222 cumulative IPC: 1.15481 (Simulation time: 2 hr 16 min 53 sec) 
Heartbeat CPU 3 instructions: 480000000 cycles: 697570447 heartbeat IPC: 0.33678 cumulative IPC: 0.413954 (Simulation time: 2 hr 17 min 40 sec) 
Heartbeat CPU 0 instructions: 740000000 cycles: 700666350 heartbeat IPC: 0.701422 cumulative IPC: 0.704711 (Simulation time: 2 hr 18 min 8 sec) 
Heartbeat CPU 1 instructions: 1000000000 cycles: 702184288 heartbeat IPC: 1.01502 cumulative IPC: 1.15233 (Simulation time: 2 hr 18 min 21 sec) 
Heartbeat CPU 1 instructions: 1010000002 cycles: 710890712 heartbeat IPC: 1.14858 cumulative IPC: 1.15227 (Simulation time: 2 hr 19 min 45 sec) 
Heartbeat CPU 0 instructions: 750000000 cycles: 714932507 heartbeat IPC: 0.70096 cumulative IPC: 0.704617 (Simulation time: 2 hr 20 min 23 sec) 
Heartbeat CPU 2 instructions: 340000000 cycles: 717217498 heartbeat IPC: 0.244653 cumulative IPC: 0.245562 (Simulation time: 2 hr 20 min 46 sec) 
Heartbeat CPU 1 instructions: 1020000000 cycles: 718774180 heartbeat IPC: 1.26848 cumulative IPC: 1.15387 (Simulation time: 2 hr 21 min 2 sec) 
Heartbeat CPU 3 instructions: 490000001 cycles: 722391940 heartbeat IPC: 0.402877 cumulative IPC: 0.413477 (Simulation time: 2 hr 21 min 39 sec) 
Heartbeat CPU 1 instructions: 1030000000 cycles: 727149532 heartbeat IPC: 1.19398 cumulative IPC: 1.15445 (Simulation time: 2 hr 22 min 24 sec) 
Heartbeat CPU 0 instructions: 760000000 cycles: 729215488 heartbeat IPC: 0.700134 cumulative IPC: 0.704507 (Simulation time: 2 hr 22 min 41 sec) 
Heartbeat CPU 1 instructions: 1040000000 cycles: 736734393 heartbeat IPC: 1.04331 cumulative IPC: 1.15264 (Simulation time: 2 hr 23 min 50 sec) 
Heartbeat CPU 0 instructions: 770000001 cycles: 743543306 heartbeat IPC: 0.697943 cumulative IPC: 0.704349 (Simulation time: 2 hr 24 min 46 sec) 
Heartbeat CPU 1 instructions: 1050000001 cycles: 746268445 heartbeat IPC: 1.04887 cumulative IPC: 1.15099 (Simulation time: 2 hr 25 min 10 sec) 
Heartbeat CPU 3 instructions: 500000000 cycles: 749142959 heartbeat IPC: 0.373818 cumulative IPC: 0.411714 (Simulation time: 2 hr 25 min 36 sec) 
Heartbeat CPU 1 instructions: 1060000000 cycles: 753403181 heartbeat IPC: 1.40159 cumulative IPC: 1.15394 (Simulation time: 2 hr 26 min 15 sec) 
Heartbeat CPU 0 instructions: 780000000 cycles: 757806435 heartbeat IPC: 0.701108 cumulative IPC: 0.704274 (Simulation time: 2 hr 26 min 55 sec) 
Heartbeat CPU 2 instructions: 350000001 cycles: 758796926 heartbeat IPC: 0.240504 cumulative IPC: 0.245218 (Simulation time: 2 hr 27 min 4 sec) 
Heartbeat CPU 1 instructions: 1070000001 cycles: 762085126 heartbeat IPC: 1.15182 cumulative IPC: 1.15391 (Simulation time: 2 hr 27 min 32 sec) 
Heartbeat CPU 1 instructions: 1080000000 cycles: 771134872 heartbeat IPC: 1.105 cumulative IPC: 1.1532 (Simulation time: 2 hr 28 min 52 sec) 
Heartbeat CPU 0 instructions: 790000002 cycles: 772133873 heartbeat IPC: 0.697962 cumulative IPC: 0.704129 (Simulation time: 2 hr 29 min 1 sec) 
Heartbeat CPU 3 instructions: 510000001 cycles: 780038037 heartbeat IPC: 0.323676 cumulative IPC: 0.407417 (Simulation time: 2 hr 30 min 13 sec) 
Heartbeat CPU 1 instructions: 1090000000 cycles: 781114619 heartbeat IPC: 1.00203 cumulative IPC: 1.15082 (Simulation time: 2 hr 30 min 22 sec) 
Heartbeat CPU 0 instructions: 800000000 cycles: 786394720 heartbeat IPC: 0.70122 cumulative IPC: 0.704064 (Simulation time: 2 hr 31 min 13 sec) 
Heartbeat CPU 1 instructions: 1100000000 cycles: 789848135 heartbeat IPC: 1.14501 cumulative IPC: 1.15074 (Simulation time: 2 hr 31 min 47 sec) 
Heartbeat CPU 1 instructions: 1110000001 cycles: 798447983 heartbeat IPC: 1.16281 cumulative IPC: 1.1509 (Simulation time: 2 hr 33 min 10 sec) 
Heartbeat CPU 2 instructions: 360000000 cycles: 799733537 heartbeat IPC: 0.24428 cumulative IPC: 0.245159 (Simulation time: 2 hr 33 min 23 sec) 
Heartbeat CPU 0 instructions: 810000000 cycles: 800687582 heartbeat IPC: 0.69965 cumulative IPC: 0.703968 (Simulation time: 2 hr 33 min 32 sec) 
Heartbeat CPU 1 instructions: 1120000000 cycles: 807026083 heartbeat IPC: 1.16576 cumulative IPC: 1.1511 (Simulation time: 2 hr 34 min 34 sec) 
Heartbeat CPU 3 instructions: 520000000 cycles: 807973095 heartbeat IPC: 0.357973 cumulative IPC: 0.405327 (Simulation time: 2 hr 34 min 43 sec) 
Heartbeat CPU 0 instructions: 820000000 cycles: 814972190 heartbeat IPC: 0.700054 cumulative IPC: 0.703884 (Simulation time: 2 hr 35 min 52 sec) 
Heartbeat CPU 1 instructions: 1130000000 cycles: 815610950 heartbeat IPC: 1.16484 cumulative IPC: 1.15127 (Simulation time: 2 hr 35 min 58 sec) 
Heartbeat CPU 1 instructions: 1140000000 cycles: 824198178 heartbeat IPC: 1.16452 cumulative IPC: 1.15144 (Simulation time: 2 hr 37 min 22 sec) 
Heartbeat CPU 0 instructions: 830000000 cycles: 829226143 heartbeat IPC: 0.70156 cumulative IPC: 0.703835 (Simulation time: 2 hr 38 min 12 sec) 
Heartbeat CPU 1 instructions: 1150000001 cycles: 832830520 heartbeat IPC: 1.15843 cumulative IPC: 1.15153 (Simulation time: 2 hr 38 min 47 sec) 
Heartbeat CPU 3 instructions: 530000001 cycles: 834102422 heartbeat IPC: 0.382712 cumulative IPC: 0.404467 (Simulation time: 2 hr 39 min 0 sec) 
Heartbeat CPU 2 instructions: 370000001 cycles: 840428563 heartbeat IPC: 0.24573 cumulative IPC: 0.245192 (Simulation time: 2 hr 40 min 1 sec) 
Heartbeat CPU 1 instructions: 1160000000 cycles: 841645159 heartbeat IPC: 1.13448 cumulative IPC: 1.15131 (Simulation time: 2 hr 40 min 13 sec) 
Heartbeat CPU 0 instructions: 840000000 cycles: 843454153 heartbeat IPC: 0.702839 cumulative IPC: 0.703815 (Simulation time: 2 hr 40 min 31 sec) 
Heartbeat CPU 1 instructions: 1170000003 cycles: 849065575 heartbeat IPC: 1.34763 cumulative IPC: 1.15339 (Simulation time: 2 hr 41 min 28 sec) 
Heartbeat CPU 0 instructions: 850000000 cycles: 857670673 heartbeat IPC: 0.703407 cumulative IPC: 0.703807 (Simulation time: 2 hr 42 min 49 sec) 
Heartbeat CPU 1 instructions: 1180000000 cycles: 858129403 heartbeat IPC: 1.10329 cumulative IPC: 1.15275 (Simulation time: 2 hr 42 min 54 sec) 
Heartbeat CPU 3 instructions: 540000000 cycles: 858934328 heartbeat IPC: 0.402708 cumulative IPC: 0.404406 (Simulation time: 2 hr 43 min 1 sec) 
Heartbeat CPU 1 instructions: 1190000000 cycles: 867532253 heartbeat IPC: 1.06351 cumulative IPC: 1.15158 (Simulation time: 2 hr 44 min 22 sec) 
Heartbeat CPU 0 instructions: 860000000 cycles: 871873782 heartbeat IPC: 0.704071 cumulative IPC: 0.703812 (Simulation time: 2 hr 45 min 12 sec) 
Heartbeat CPU 1 instructions: 1200000000 cycles: 875941503 heartbeat IPC: 1.18917 cumulative IPC: 1.15202 (Simulation time: 2 hr 45 min 57 sec) 
Heartbeat CPU 2 instructions: 380000000 cycles: 881674846 heartbeat IPC: 0.242446 cumulative IPC: 0.245038 (Simulation time: 2 hr 47 min 3 sec) 
Heartbeat CPU 3 instructions: 550000003 cycles: 882803525 heartbeat IPC: 0.41895 cumulative IPC: 0.404877 (Simulation time: 2 hr 47 min 17 sec) 
Heartbeat CPU 1 instructions: 1210000003 cycles: 883481655 heartbeat IPC: 1.32623 cumulative IPC: 1.1538 (Simulation time: 2 hr 47 min 24 sec) 
Heartbeat CPU 0 instructions: 870000001 cycles: 886096661 heartbeat IPC: 0.703093 cumulative IPC: 0.703798 (Simulation time: 2 hr 47 min 52 sec) 
Heartbeat CPU 1 instructions: 1220000000 cycles: 892904288 heartbeat IPC: 1.06127 cumulative IPC: 1.15263 (Simulation time: 2 hr 49 min 2 sec) 
Heartbeat CPU 0 instructions: 880000000 cycles: 900318511 heartbeat IPC: 0.703143 cumulative IPC: 0.703786 (Simulation time: 2 hr 50 min 13 sec) 
Heartbeat CPU 1 instructions: 1230000003 cycles: 903526158 heartbeat IPC: 0.941454 cumulative IPC: 1.14967 (Simulation time: 2 hr 50 min 46 sec) 
Heartbeat CPU 3 instructions: 560000000 cycles: 905906609 heartbeat IPC: 0.432843 cumulative IPC: 0.405729 (Simulation time: 2 hr 51 min 10 sec) 
Heartbeat CPU 1 instructions: 1240000000 cycles: 910389163 heartbeat IPC: 1.45709 cumulative IPC: 1.15243 (Simulation time: 2 hr 51 min 59 sec) 
Heartbeat CPU 0 instructions: 890000001 cycles: 914569092 heartbeat IPC: 0.701726 cumulative IPC: 0.703748 (Simulation time: 2 hr 52 min 46 sec) 
Heartbeat CPU 1 instructions: 1250000000 cycles: 918119391 heartbeat IPC: 1.29362 cumulative IPC: 1.15385 (Simulation time: 2 hr 53 min 24 sec) 
Heartbeat CPU 3 instructions: 570000003 cycles: 921472110 heartbeat IPC: 0.642447 cumulative IPC: 0.410487 (Simulation time: 2 hr 54 min 3 sec) 
Heartbeat CPU 2 instructions: 390000002 cycles: 922739528 heartbeat IPC: 0.243518 cumulative IPC: 0.244958 (Simulation time: 2 hr 54 min 15 sec) 
Heartbeat CPU 1 instructions: 1260000000 cycles: 927253937 heartbeat IPC: 1.09475 cumulative IPC: 1.15316 (Simulation time: 2 hr 55 min 5 sec) 
Heartbeat CPU 0 instructions: 900000000 cycles: 928894801 heartbeat IPC: 0.698046 cumulative IPC: 0.703643 (Simulation time: 2 hr 55 min 23 sec) 
Heartbeat CPU 1 instructions: 1270000002 cycles: 936994941 heartbeat IPC: 1.02659 cumulative IPC: 1.15159 (Simulation time: 2 hr 56 min 51 sec) 
Heartbeat CPU 3 instructions: 580000000 cycles: 937010227 heartbeat IPC: 0.643578 cumulative IPC: 0.415072 (Simulation time: 2 hr 56 min 51 sec) 
Heartbeat CPU 0 instructions: 910000002 cycles: 943156467 heartbeat IPC: 0.701181 cumulative IPC: 0.703599 (Simulation time: 2 hr 57 min 57 sec) 
Heartbeat CPU 1 instructions: 1280000000 cycles: 946381470 heartbeat IPC: 1.06536 cumulative IPC: 1.15058 (Simulation time: 2 hr 58 min 35 sec) 
Heartbeat CPU 3 instructions: 590000000 cycles: 953923513 heartbeat IPC: 0.591251 cumulative IPC: 0.418765 (Simulation time: 2 hr 59 min 59 sec) 
Heartbeat CPU 1 instructions: 1290000001 cycles: 954925706 heartbeat IPC: 1.17038 cumulative IPC: 1.15079 (Simulation time: 3 hr 0 min 12 sec) 
Heartbeat CPU 0 instructions: 920000000 cycles: 957429936 heartbeat IPC: 0.7006 cumulative IPC: 0.703546 (Simulation time: 3 hr 0 min 42 sec) 
Heartbeat CPU 2 instructions: 400000000 cycles: 963239170 heartbeat IPC: 0.246916 cumulative IPC: 0.245055 (Simulation time: 3 hr 1 min 48 sec) 
Heartbeat CPU 1 instructions: 1300000000 cycles: 963438949 heartbeat IPC: 1.17464 cumulative IPC: 1.15104 (Simulation time: 3 hr 1 min 50 sec) 
Heartbeat CPU 0 instructions: 930000001 cycles: 971747629 heartbeat IPC: 0.698437 cumulative IPC: 0.703457 (Simulation time: 3 hr 3 min 21 sec) 
Heartbeat CPU 1 instructions: 1310000003 cycles: 971912888 heartbeat IPC: 1.18009 cumulative IPC: 1.15134 (Simulation time: 3 hr 3 min 23 sec) 
Heartbeat CPU 3 instructions: 600000000 cycles: 972556279 heartbeat IPC: 0.536689 cumulative IPC: 0.421427 (Simulation time: 3 hr 3 min 32 sec) 
Heartbeat CPU 1 instructions: 1320000000 cycles: 980415953 heartbeat IPC: 1.17605 cumulative IPC: 1.15159 (Simulation time: 3 hr 4 min 51 sec) 
Heartbeat CPU 0 instructions: 940000000 cycles: 985987727 heartbeat IPC: 0.702242 cumulative IPC: 0.703437 (Simulation time: 3 hr 5 min 51 sec) 
Heartbeat CPU 1 instructions: 1330000000 cycles: 988886215 heartbeat IPC: 1.1806 cumulative IPC: 1.15188 (Simulation time: 3 hr 6 min 22 sec) 
Heartbeat CPU 3 instructions: 610000000 cycles: 994615324 heartbeat IPC: 0.453329 cumulative IPC: 0.422257 (Simulation time: 3 hr 7 min 18 sec) 
Heartbeat CPU 1 instructions: 1340000000 cycles: 997621644 heartbeat IPC: 1.14476 cumulative IPC: 1.15181 (Simulation time: 3 hr 7 min 47 sec) 
Heartbeat CPU 0 instructions: 950000002 cycles: 1000213252 heartbeat IPC: 0.702962 cumulative IPC: 0.703429 (Simulation time: 3 hr 8 min 11 sec) 
Heartbeat CPU 2 instructions: 410000000 cycles: 1003621047 heartbeat IPC: 0.247636 cumulative IPC: 0.245177 (Simulation time: 3 hr 8 min 43 sec) 
Heartbeat CPU 1 instructions: 1350000001 cycles: 1006010597 heartbeat IPC: 1.19204 cumulative IPC: 1.1522 (Simulation time: 3 hr 9 min 6 sec) 
Heartbeat CPU 1 instructions: 1360000000 cycles: 1013745508 heartbeat IPC: 1.29284 cumulative IPC: 1.15346 (Simulation time: 3 hr 10 min 17 sec) 
Finished CPU 1 instructions: 1000000000 cycles: 867001833 cumulative IPC: 1.1534 (Simulation time: 3 hr 10 min 20 sec) 
Heartbeat CPU 0 instructions: 960000000 cycles: 1014406849 heartbeat IPC: 0.704543 cumulative IPC: 0.703447 (Simulation time: 3 hr 10 min 23 sec) 
Heartbeat CPU 1 instructions: 1370000000 cycles: 1022846699 heartbeat IPC: 1.09876 cumulative IPC: 1.15289 (Simulation time: 3 hr 11 min 38 sec) 
Heartbeat CPU 3 instructions: 620000000 cycles: 1024717877 heartbeat IPC: 0.332198 cumulative IPC: 0.419168 (Simulation time: 3 hr 11 min 56 sec) 
Heartbeat CPU 0 instructions: 970000000 cycles: 1028599238 heartbeat IPC: 0.704603 cumulative IPC: 0.703466 (Simulation time: 3 hr 12 min 33 sec) 
Heartbeat CPU 1 instructions: 1380000000 cycles: 1031543096 heartbeat IPC: 1.1499 cumulative IPC: 1.15286 (Simulation time: 3 hr 13 min 1 sec) 
Heartbeat CPU 1 instructions: 1390000003 cycles: 1039274861 heartbeat IPC: 1.29337 cumulative IPC: 1.15408 (Simulation time: 3 hr 14 min 15 sec) 
Heartbeat CPU 0 instructions: 980000000 cycles: 1042818433 heartbeat IPC: 0.703275 cumulative IPC: 0.703463 (Simulation time: 3 hr 14 min 49 sec) 
Heartbeat CPU 2 instructions: 420000000 cycles: 1044601930 heartbeat IPC: 0.244016 cumulative IPC: 0.245124 (Simulation time: 3 hr 15 min 4 sec) 
Heartbeat CPU 1 instructions: 1400000000 cycles: 1048325558 heartbeat IPC: 1.10489 cumulative IPC: 1.15358 (Simulation time: 3 hr 15 min 33 sec) 
Heartbeat CPU 3 instructions: 630000002 cycles: 1055969246 heartbeat IPC: 0.319986 cumulative IPC: 0.415758 (Simulation time: 3 hr 16 min 40 sec) 
Heartbeat CPU 0 instructions: 990000003 cycles: 1057055048 heartbeat IPC: 0.702414 cumulative IPC: 0.703446 (Simulation time: 3 hr 16 min 50 sec) 
Heartbeat CPU 1 instructions: 1410000003 cycles: 1058296182 heartbeat IPC: 1.00295 cumulative IPC: 1.15193 (Simulation time: 3 hr 17 min 1 sec) 
Heartbeat CPU 1 instructions: 1420000000 cycles: 1066461024 heartbeat IPC: 1.22476 cumulative IPC: 1.15258 (Simulation time: 3 hr 18 min 12 sec) 
Heartbeat CPU 0 instructions: 1000000000 cycles: 1071321145 heartbeat IPC: 0.700962 cumulative IPC: 0.703408 (Simulation time: 3 hr 18 min 57 sec) 
Heartbeat CPU 1 instructions: 1430000003 cycles: 1073828437 heartbeat IPC: 1.35733 cumulative IPC: 1.15421 (Simulation time: 3 hr 19 min 21 sec) 
Heartbeat CPU 1 instructions: 1440000000 cycles: 1082921897 heartbeat IPC: 1.09969 cumulative IPC: 1.15368 (Simulation time: 3 hr 20 min 39 sec) 
Heartbeat CPU 0 instructions: 1010000003 cycles: 1085599051 heartbeat IPC: 0.700383 cumulative IPC: 0.703362 (Simulation time: 3 hr 21 min 3 sec) 
Heartbeat CPU 2 instructions: 430000000 cycles: 1085821578 heartbeat IPC: 0.242603 cumulative IPC: 0.245013 (Simulation time: 3 hr 21 min 5 sec) 
Heartbeat CPU 3 instructions: 640000000 cycles: 1087695458 heartbeat IPC: 0.315197 cumulative IPC: 0.412366 (Simulation time: 3 hr 21 min 22 sec) 
Heartbeat CPU 1 instructions: 1450000001 cycles: 1092351253 heartbeat IPC: 1.06052 cumulative IPC: 1.15275 (Simulation time: 3 hr 22 min 4 sec) 
Heartbeat CPU 0 instructions: 1020000000 cycles: 1099777145 heartbeat IPC: 0.705313 cumulative IPC: 0.703391 (Simulation time: 3 hr 23 min 14 sec) 
Heartbeat CPU 1 instructions: 1460000000 cycles: 1102156204 heartbeat IPC: 1.01989 cumulative IPC: 1.15139 (Simulation time: 3 hr 23 min 38 sec) 
Heartbeat CPU 1 instructions: 1470000000 cycles: 1110819649 heartbeat IPC: 1.15428 cumulative IPC: 1.15141 (Simulation time: 3 hr 25 min 14 sec) 
Heartbeat CPU 0 instructions: 1030000003 cycles: 1113989681 heartbeat IPC: 0.703604 cumulative IPC: 0.703394 (Simulation time: 3 hr 25 min 50 sec) 
Heartbeat CPU 3 instructions: 650000000 cycles: 1116555394 heartbeat IPC: 0.346501 cumulative IPC: 0.410405 (Simulation time: 3 hr 26 min 21 sec) 
Heartbeat CPU 1 instructions: 1480000000 cycles: 1119438187 heartbeat IPC: 1.16029 cumulative IPC: 1.15149 (Simulation time: 3 hr 26 min 52 sec) 
Heartbeat CPU 2 instructions: 440000000 cycles: 1126328607 heartbeat IPC: 0.246871 cumulative IPC: 0.24509 (Simulation time: 3 hr 28 min 10 sec) 
Heartbeat CPU 1 instructions: 1490000002 cycles: 1128073412 heartbeat IPC: 1.15805 cumulative IPC: 1.15155 (Simulation time: 3 hr 28 min 29 sec) 
Heartbeat CPU 0 instructions: 1040000000 cycles: 1128214297 heartbeat IPC: 0.703006 cumulative IPC: 0.703389 (Simulation time: 3 hr 28 min 30 sec) 
Heartbeat CPU 1 instructions: 1500000000 cycles: 1136720872 heartbeat IPC: 1.15641 cumulative IPC: 1.15159 (Simulation time: 3 hr 30 min 3 sec) 
Heartbeat CPU 0 instructions: 1050000003 cycles: 1142468457 heartbeat IPC: 0.70155 cumulative IPC: 0.703362 (Simulation time: 3 hr 31 min 4 sec) 
Heartbeat CPU 3 instructions: 660000000 cycles: 1143301757 heartbeat IPC: 0.373883 cumulative IPC: 0.409425 (Simulation time: 3 hr 31 min 12 sec) 
Heartbeat CPU 1 instructions: 1510000002 cycles: 1145380301 heartbeat IPC: 1.15481 cumulative IPC: 1.15162 (Simulation time: 3 hr 31 min 32 sec) 
Heartbeat CPU 1 instructions: 1520000000 cycles: 1154134777 heartbeat IPC: 1.14227 cumulative IPC: 1.15154 (Simulation time: 3 hr 33 min 0 sec) 
Heartbeat CPU 0 instructions: 1060000000 cycles: 1156699568 heartbeat IPC: 0.702686 cumulative IPC: 0.703353 (Simulation time: 3 hr 33 min 25 sec) 
Heartbeat CPU 1 instructions: 1530000003 cycles: 1162976259 heartbeat IPC: 1.13103 cumulative IPC: 1.15136 (Simulation time: 3 hr 34 min 26 sec) 
Heartbeat CPU 2 instructions: 450000002 cycles: 1167088803 heartbeat IPC: 0.245337 cumulative IPC: 0.2451 (Simulation time: 3 hr 35 min 8 sec) 
Heartbeat CPU 3 instructions: 670000003 cycles: 1168468006 heartbeat IPC: 0.397358 cumulative IPC: 0.409128 (Simulation time: 3 hr 35 min 22 sec) 
Heartbeat CPU 1 instructions: 1540000000 cycles: 1170120304 heartbeat IPC: 1.39977 cumulative IPC: 1.15309 (Simulation time: 3 hr 35 min 39 sec) 
Heartbeat CPU 0 instructions: 1070000003 cycles: 1170910621 heartbeat IPC: 0.703678 cumulative IPC: 0.703357 (Simulation time: 3 hr 35 min 46 sec) 
Heartbeat CPU 1 instructions: 1550000001 cycles: 1179318639 heartbeat IPC: 1.08715 cumulative IPC: 1.15251 (Simulation time: 3 hr 37 min 4 sec) 
Heartbeat CPU 0 instructions: 1080000000 cycles: 1185079230 heartbeat IPC: 0.705785 cumulative IPC: 0.70339 (Simulation time: 3 hr 37 min 58 sec) 
Heartbeat CPU 1 instructions: 1560000000 cycles: 1189051357 heartbeat IPC: 1.02746 cumulative IPC: 1.15134 (Simulation time: 3 hr 38 min 37 sec) 
Heartbeat CPU 3 instructions: 680000000 cycles: 1191226294 heartbeat IPC: 0.4394 cumulative IPC: 0.409787 (Simulation time: 3 hr 38 min 59 sec) 
Heartbeat CPU 1 instructions: 1570000001 cycles: 1197216040 heartbeat IPC: 1.22479 cumulative IPC: 1.15191 (Simulation time: 3 hr 40 min 2 sec) 
Heartbeat CPU 0 instructions: 1090000002 cycles: 1199293878 heartbeat IPC: 0.7035 cumulative IPC: 0.703392 (Simulation time: 3 hr 40 min 24 sec) 
Heartbeat CPU 1 instructions: 1580000000 cycles: 1205325004 heartbeat IPC: 1.2332 cumulative IPC: 1.15253 (Simulation time: 3 hr 41 min 25 sec) 
Heartbeat CPU 3 instructions: 690000000 cycles: 1207209565 heartbeat IPC: 0.625654 cumulative IPC: 0.413042 (Simulation time: 3 hr 41 min 42 sec) 
Heartbeat CPU 2 instructions: 460000000 cycles: 1207741031 heartbeat IPC: 0.245989 cumulative IPC: 0.245134 (Simulation time: 3 hr 41 min 47 sec) 
Heartbeat CPU 0 instructions: 1100000000 cycles: 1213524323 heartbeat IPC: 0.702719 cumulative IPC: 0.703383 (Simulation time: 3 hr 42 min 43 sec) 
Heartbeat CPU 1 instructions: 1590000002 cycles: 1214534038 heartbeat IPC: 1.08589 cumulative IPC: 1.15196 (Simulation time: 3 hr 42 min 53 sec) 
Heartbeat CPU 1 instructions: 1600000000 cycles: 1224597978 heartbeat IPC: 0.993646 cumulative IPC: 1.15048 (Simulation time: 3 hr 44 min 29 sec) 
Heartbeat CPU 3 instructions: 700000000 cycles: 1224923275 heartbeat IPC: 0.564534 cumulative IPC: 0.415532 (Simulation time: 3 hr 44 min 32 sec) 
Heartbeat CPU 0 instructions: 1110000003 cycles: 1227804050 heartbeat IPC: 0.700294 cumulative IPC: 0.703342 (Simulation time: 3 hr 45 min 1 sec) 
Heartbeat CPU 1 instructions: 1610000001 cycles: 1231639199 heartbeat IPC: 1.42021 cumulative IPC: 1.15223 (Simulation time: 3 hr 45 min 40 sec) 
Heartbeat CPU 1 instructions: 1620000000 cycles: 1239698473 heartbeat IPC: 1.24081 cumulative IPC: 1.15288 (Simulation time: 3 hr 47 min 1 sec) 
Heartbeat CPU 0 instructions: 1120000000 cycles: 1242080942 heartbeat IPC: 0.700432 cumulative IPC: 0.703304 (Simulation time: 3 hr 47 min 25 sec) 
Heartbeat CPU 3 instructions: 710000003 cycles: 1246447805 heartbeat IPC: 0.464586 cumulative IPC: 0.416492 (Simulation time: 3 hr 48 min 6 sec) 
Heartbeat CPU 2 instructions: 470000001 cycles: 1248544324 heartbeat IPC: 0.245078 cumulative IPC: 0.245132 (Simulation time: 3 hr 48 min 26 sec) 
Heartbeat CPU 1 instructions: 1630000001 cycles: 1249081116 heartbeat IPC: 1.0658 cumulative IPC: 1.15214 (Simulation time: 3 hr 48 min 32 sec) 
Heartbeat CPU 0 instructions: 1130000000 cycles: 1256248771 heartbeat IPC: 0.705824 cumulative IPC: 0.703336 (Simulation time: 3 hr 49 min 44 sec) 
Heartbeat CPU 1 instructions: 1640000000 cycles: 1258968994 heartbeat IPC: 1.01134 cumulative IPC: 1.15089 (Simulation time: 3 hr 50 min 7 sec) 
Heartbeat CPU 1 instructions: 1650000002 cycles: 1267901180 heartbeat IPC: 1.11955 cumulative IPC: 1.15064 (Simulation time: 3 hr 51 min 32 sec) 
Heartbeat CPU 0 instructions: 1140000000 cycles: 1270417866 heartbeat IPC: 0.705761 cumulative IPC: 0.703367 (Simulation time: 3 hr 51 min 56 sec) 
Heartbeat CPU 1 instructions: 1660000000 cycles: 1276484198 heartbeat IPC: 1.16509 cumulative IPC: 1.15075 (Simulation time: 3 hr 52 min 55 sec) 
Heartbeat CPU 3 instructions: 720000000 cycles: 1277276267 heartbeat IPC: 0.324375 cumulative IPC: 0.413979 (Simulation time: 3 hr 53 min 3 sec) 
Heartbeat CPU 0 instructions: 1150000001 cycles: 1284610141 heartbeat IPC: 0.704609 cumulative IPC: 0.703382 (Simulation time: 3 hr 54 min 14 sec) 
Heartbeat CPU 1 instructions: 1670000000 cycles: 1285072845 heartbeat IPC: 1.16433 cumulative IPC: 1.15085 (Simulation time: 3 hr 54 min 18 sec) 
Heartbeat CPU 2 instructions: 480000000 cycles: 1288848059 heartbeat IPC: 0.248116 cumulative IPC: 0.245237 (Simulation time: 3 hr 54 min 55 sec) 
Heartbeat CPU 1 instructions: 1680000000 cycles: 1293645832 heartbeat IPC: 1.16645 cumulative IPC: 1.15097 (Simulation time: 3 hr 55 min 42 sec) 
Heartbeat CPU 0 instructions: 1160000000 cycles: 1298801255 heartbeat IPC: 0.704666 cumulative IPC: 0.703398 (Simulation time: 3 hr 56 min 33 sec) 
Heartbeat CPU 1 instructions: 1690000002 cycles: 1302216489 heartbeat IPC: 1.16677 cumulative IPC: 1.15109 (Simulation time: 3 hr 57 min 5 sec) 
Heartbeat CPU 3 instructions: 730000000 cycles: 1306292356 heartbeat IPC: 0.344636 cumulative IPC: 0.412244 (Simulation time: 3 hr 57 min 42 sec) 
Heartbeat CPU 1 instructions: 1700000000 cycles: 1310790137 heartbeat IPC: 1.16636 cumulative IPC: 1.1512 (Simulation time: 3 hr 58 min 25 sec) 
Heartbeat CPU 0 instructions: 1170000000 cycles: 1312992628 heartbeat IPC: 0.704653 cumulative IPC: 0.703413 (Simulation time: 3 hr 58 min 45 sec) 
Heartbeat CPU 1 instructions: 1710000000 cycles: 1319554982 heartbeat IPC: 1.14092 cumulative IPC: 1.15112 (Simulation time: 3 hr 59 min 45 sec) 
Heartbeat CPU 0 instructions: 1180000000 cycles: 1327179886 heartbeat IPC: 0.704858 cumulative IPC: 0.703431 (Simulation time: 4 hr 0 min 56 sec) 
Heartbeat CPU 1 instructions: 1720000000 cycles: 1327217637 heartbeat IPC: 1.30503 cumulative IPC: 1.15212 (Simulation time: 4 hr 0 min 56 sec) 
Heartbeat CPU 2 instructions: 490000002 cycles: 1329169274 heartbeat IPC: 0.248008 cumulative IPC: 0.245332 (Simulation time: 4 hr 1 min 15 sec) 
Heartbeat CPU 1 instructions: 1730000002 cycles: 1335787201 heartbeat IPC: 1.16692 cumulative IPC: 1.15223 (Simulation time: 4 hr 2 min 16 sec) 
Heartbeat CPU 3 instructions: 740000000 cycles: 1337771507 heartbeat IPC: 0.317671 cumulative IPC: 0.409743 (Simulation time: 4 hr 2 min 34 sec) 
Heartbeat CPU 0 instructions: 1190000001 cycles: 1341369482 heartbeat IPC: 0.704742 cumulative IPC: 0.703446 (Simulation time: 4 hr 3 min 7 sec) 
Heartbeat CPU 1 instructions: 1740000000 cycles: 1344821071 heartbeat IPC: 1.10695 cumulative IPC: 1.15189 (Simulation time: 4 hr 3 min 37 sec) 
Heartbeat CPU 1 instructions: 1750000002 cycles: 1353301640 heartbeat IPC: 1.17917 cumulative IPC: 1.15208 (Simulation time: 4 hr 4 min 55 sec) 
Heartbeat CPU 0 instructions: 1200000000 cycles: 1355569162 heartbeat IPC: 0.704241 cumulative IPC: 0.703456 (Simulation time: 4 hr 5 min 17 sec) 
Heartbeat CPU 1 instructions: 1760000000 cycles: 1360997297 heartbeat IPC: 1.29943 cumulative IPC: 1.15301 (Simulation time: 4 hr 6 min 9 sec) 
Heartbeat CPU 0 instructions: 1210000003 cycles: 1369776344 heartbeat IPC: 0.70387 cumulative IPC: 0.703461 (Simulation time: 4 hr 7 min 33 sec) 
Heartbeat CPU 2 instructions: 500000000 cycles: 1370127831 heartbeat IPC: 0.244149 cumulative IPC: 0.245292 (Simulation time: 4 hr 7 min 38 sec) 
Heartbeat CPU 3 instructions: 750000002 cycles: 1370200380 heartbeat IPC: 0.308367 cumulative IPC: 0.407055 (Simulation time: 4 hr 7 min 40 sec) 
Heartbeat CPU 1 instructions: 1770000003 cycles: 1370272594 heartbeat IPC: 1.07813 cumulative IPC: 1.15244 (Simulation time: 4 hr 7 min 41 sec) 
Heartbeat CPU 1 instructions: 1780000000 cycles: 1380743608 heartbeat IPC: 0.955017 cumulative IPC: 1.15077 (Simulation time: 4 hr 9 min 33 sec) 
Heartbeat CPU 0 instructions: 1220000000 cycles: 1384023380 heartbeat IPC: 0.7019 cumulative IPC: 0.703443 (Simulation time: 4 hr 10 min 4 sec) 
Heartbeat CPU 1 instructions: 1790000002 cycles: 1387526495 heartbeat IPC: 1.4743 cumulative IPC: 1.15254 (Simulation time: 4 hr 10 min 38 sec) 
Heartbeat CPU 1 instructions: 1800000000 cycles: 1395418540 heartbeat IPC: 1.2671 cumulative IPC: 1.15326 (Simulation time: 4 hr 11 min 53 sec) 
Heartbeat CPU 0 instructions: 1230000000 cycles: 1398251330 heartbeat IPC: 0.702842 cumulative IPC: 0.703436 (Simulation time: 4 hr 12 min 24 sec) 
Heartbeat CPU 3 instructions: 760000000 cycles: 1402889667 heartbeat IPC: 0.305911 cumulative IPC: 0.404423 (Simulation time: 4 hr 13 min 9 sec) 
Heartbeat CPU 1 instructions: 1810000000 cycles: 1404605288 heartbeat IPC: 1.08852 cumulative IPC: 1.15279 (Simulation time: 4 hr 13 min 24 sec) 
Heartbeat CPU 2 instructions: 510000002 cycles: 1411027923 heartbeat IPC: 0.244498 cumulative IPC: 0.245266 (Simulation time: 4 hr 14 min 28 sec) 
Heartbeat CPU 0 instructions: 1240000000 cycles: 1412514643 heartbeat IPC: 0.701099 cumulative IPC: 0.703409 (Simulation time: 4 hr 14 min 44 sec) 
Heartbeat CPU 1 instructions: 1820000000 cycles: 1414581444 heartbeat IPC: 1.00239 cumulative IPC: 1.15161 (Simulation time: 4 hr 15 min 7 sec) 
Heartbeat CPU 1 instructions: 1830000002 cycles: 1424002597 heartbeat IPC: 1.06144 cumulative IPC: 1.15094 (Simulation time: 4 hr 16 min 48 sec) 
Heartbeat CPU 0 instructions: 1250000003 cycles: 1426835619 heartbeat IPC: 0.698277 cumulative IPC: 0.703352 (Simulation time: 4 hr 17 min 20 sec) 
Heartbeat CPU 1 instructions: 1840000000 cycles: 1432778314 heartbeat IPC: 1.13951 cumulative IPC: 1.15086 (Simulation time: 4 hr 18 min 23 sec) 
Heartbeat CPU 3 instructions: 770000001 cycles: 1432845936 heartbeat IPC: 0.33382 cumulative IPC: 0.402778 (Simulation time: 4 hr 18 min 23 sec) 
Heartbeat CPU 0 instructions: 1260000000 cycles: 1441141892 heartbeat IPC: 0.698994 cumulative IPC: 0.703304 (Simulation time: 4 hr 19 min 46 sec) 
Heartbeat CPU 1 instructions: 1850000002 cycles: 1441488414 heartbeat IPC: 1.14809 cumulative IPC: 1.15084 (Simulation time: 4 hr 19 min 49 sec) 
Heartbeat CPU 1 instructions: 1860000000 cycles: 1450213645 heartbeat IPC: 1.1461 cumulative IPC: 1.15081 (Simulation time: 4 hr 21 min 12 sec) 
Heartbeat CPU 2 instructions: 520000000 cycles: 1451423460 heartbeat IPC: 0.247552 cumulative IPC: 0.245337 (Simulation time: 4 hr 21 min 24 sec) 
Heartbeat CPU 0 instructions: 1270000002 cycles: 1455473017 heartbeat IPC: 0.697782 cumulative IPC: 0.703243 (Simulation time: 4 hr 22 min 2 sec) 
Heartbeat CPU 1 instructions: 1870000000 cycles: 1458980301 heartbeat IPC: 1.14069 cumulative IPC: 1.15074 (Simulation time: 4 hr 22 min 36 sec) 
Heartbeat CPU 3 instructions: 780000000 cycles: 1460232386 heartbeat IPC: 0.365144 cumulative IPC: 0.401993 (Simulation time: 4 hr 22 min 48 sec) 
Heartbeat CPU 1 instructions: 1880000000 cycles: 1467740988 heartbeat IPC: 1.14146 cumulative IPC: 1.15068 (Simulation time: 4 hr 23 min 59 sec) 
Heartbeat CPU 0 instructions: 1280000000 cycles: 1469823085 heartbeat IPC: 0.696861 cumulative IPC: 0.703174 (Simulation time: 4 hr 24 min 19 sec) 
Heartbeat CPU 1 instructions: 1890000001 cycles: 1476592698 heartbeat IPC: 1.12973 cumulative IPC: 1.15054 (Simulation time: 4 hr 25 min 28 sec) 
Heartbeat CPU 0 instructions: 1290000000 cycles: 1484150478 heartbeat IPC: 0.697964 cumulative IPC: 0.703118 (Simulation time: 4 hr 26 min 42 sec) 
Heartbeat CPU 1 instructions: 1900000000 cycles: 1484795565 heartbeat IPC: 1.21909 cumulative IPC: 1.15096 (Simulation time: 4 hr 26 min 48 sec) 
Heartbeat CPU 3 instructions: 790000000 cycles: 1485664954 heartbeat IPC: 0.393197 cumulative IPC: 0.401826 (Simulation time: 4 hr 26 min 57 sec) 
Heartbeat CPU 2 instructions: 530000000 cycles: 1492086005 heartbeat IPC: 0.245927 cumulative IPC: 0.245355 (Simulation time: 4 hr 28 min 1 sec) 
Heartbeat CPU 1 instructions: 1910000001 cycles: 1492854085 heartbeat IPC: 1.24092 cumulative IPC: 1.1515 (Simulation time: 4 hr 28 min 9 sec) 
Heartbeat CPU 0 instructions: 1300000000 cycles: 1498439473 heartbeat IPC: 0.699839 cumulative IPC: 0.703084 (Simulation time: 4 hr 29 min 3 sec) 
Heartbeat CPU 1 instructions: 1920000000 cycles: 1501834322 heartbeat IPC: 1.11356 cumulative IPC: 1.15125 (Simulation time: 4 hr 29 min 36 sec) 
Heartbeat CPU 3 instructions: 800000000 cycles: 1503296668 heartbeat IPC: 0.56716 cumulative IPC: 0.403975 (Simulation time: 4 hr 29 min 50 sec) 
Heartbeat CPU 1 instructions: 1930000002 cycles: 1512272024 heartbeat IPC: 0.958066 cumulative IPC: 1.14977 (Simulation time: 4 hr 31 min 14 sec) 
Heartbeat CPU 0 instructions: 1310000003 cycles: 1512737578 heartbeat IPC: 0.699394 cumulative IPC: 0.703045 (Simulation time: 4 hr 31 min 18 sec) 
Heartbeat CPU 1 instructions: 1940000000 cycles: 1520423990 heartbeat IPC: 1.2267 cumulative IPC: 1.15023 (Simulation time: 4 hr 32 min 32 sec) 
Heartbeat CPU 3 instructions: 810000000 cycles: 1524576990 heartbeat IPC: 0.469918 cumulative IPC: 0.404994 (Simulation time: 4 hr 33 min 13 sec) 
Heartbeat CPU 0 instructions: 1320000000 cycles: 1527091434 heartbeat IPC: 0.696677 cumulative IPC: 0.702979 (Simulation time: 4 hr 33 min 37 sec) 
Heartbeat CPU 1 instructions: 1950000000 cycles: 1528916264 heartbeat IPC: 1.17754 cumulative IPC: 1.1504 (Simulation time: 4 hr 33 min 55 sec) 
Heartbeat CPU 2 instructions: 540000000 cycles: 1532524879 heartbeat IPC: 0.247287 cumulative IPC: 0.245411 (Simulation time: 4 hr 34 min 26 sec) 
Heartbeat CPU 1 instructions: 1960000000 cycles: 1538382298 heartbeat IPC: 1.05641 cumulative IPC: 1.14976 (Simulation time: 4 hr 35 min 21 sec) 
Heartbeat CPU 0 instructions: 1330000000 cycles: 1541395792 heartbeat IPC: 0.699088 cumulative IPC: 0.702939 (Simulation time: 4 hr 35 min 51 sec) 
Heartbeat CPU 1 instructions: 1970000003 cycles: 1547487192 heartbeat IPC: 1.09831 cumulative IPC: 1.14942 (Simulation time: 4 hr 36 min 50 sec) 
Heartbeat CPU 1 instructions: 1980000000 cycles: 1554724593 heartbeat IPC: 1.38171 cumulative IPC: 1.15062 (Simulation time: 4 hr 38 min 9 sec) 
Heartbeat CPU 0 instructions: 1340000000 cycles: 1555728336 heartbeat IPC: 0.697713 cumulative IPC: 0.702886 (Simulation time: 4 hr 38 min 20 sec) 
Heartbeat CPU 3 instructions: 820000000 cycles: 1555925295 heartbeat IPC: 0.318997 cumulative IPC: 0.40308 (Simulation time: 4 hr 38 min 22 sec) 
Heartbeat CPU 1 instructions: 1990000002 cycles: 1563594717 heartbeat IPC: 1.12738 cumulative IPC: 1.15047 (Simulation time: 4 hr 39 min 36 sec) 
Finished CPU 0 instructions: 1000000000 cycles: 1422819019 cumulative IPC: 0.70283 (Simulation time: 4 hr 40 min 36 sec) 
Heartbeat CPU 0 instructions: 1350000001 cycles: 1570072244 heartbeat IPC: 0.69716 cumulative IPC: 0.702828 (Simulation time: 4 hr 40 min 37 sec) 
*** Reached end of trace for Core: 1 Repeating trace: /scratch/user/djimenez/champsim-traces/speccpu2017/xz/628.pop2_s/628.pop2_s-17B.champsimtrace.xz
Heartbeat CPU 1 instructions: 2000000000 cycles: 1572742454 heartbeat IPC: 1.09317 cumulative IPC: 1.15011 (Simulation time: 4 hr 41 min 8 sec) 
Heartbeat CPU 2 instructions: 550000001 cycles: 1573850474 heartbeat IPC: 0.241981 cumulative IPC: 0.245312 (Simulation time: 4 hr 41 min 18 sec) 
Heartbeat CPU 1 instructions: 2010000002 cycles: 1581722708 heartbeat IPC: 1.11355 cumulative IPC: 1.14988 (Simulation time: 4 hr 42 min 34 sec) 
Heartbeat CPU 3 instructions: 830000000 cycles: 1583745769 heartbeat IPC: 0.359448 cumulative IPC: 0.402235 (Simulation time: 4 hr 42 min 52 sec) 
Heartbeat CPU 0 instructions: 1360000000 cycles: 1584382887 heartbeat IPC: 0.698781 cumulative IPC: 0.702788 (Simulation time: 4 hr 42 min 58 sec) 
Heartbeat CPU 1 instructions: 2020000000 cycles: 1590336425 heartbeat IPC: 1.16094 cumulative IPC: 1.14994 (Simulation time: 4 hr 43 min 54 sec) 
Heartbeat CPU 0 instructions: 1370000001 cycles: 1598707656 heartbeat IPC: 0.698092 cumulative IPC: 0.702741 (Simulation time: 4 hr 45 min 13 sec) 
Heartbeat CPU 1 instructions: 2030000002 cycles: 1598915688 heartbeat IPC: 1.1656 cumulative IPC: 1.15003 (Simulation time: 4 hr 45 min 15 sec) 
Heartbeat CPU 1 instructions: 2040000000 cycles: 1607530651 heartbeat IPC: 1.16077 cumulative IPC: 1.1501 (Simulation time: 4 hr 46 min 36 sec) 
Heartbeat CPU 0 instructions: 1380000000 cycles: 1613018602 heartbeat IPC: 0.698766 cumulative IPC: 0.702702 (Simulation time: 4 hr 47 min 29 sec) 
Heartbeat CPU 2 instructions: 560000000 cycles: 1614702713 heartbeat IPC: 0.244785 cumulative IPC: 0.245297 (Simulation time: 4 hr 47 min 45 sec) 
Heartbeat CPU 1 instructions: 2050000001 cycles: 1616086735 heartbeat IPC: 1.16876 cumulative IPC: 1.15021 (Simulation time: 4 hr 47 min 59 sec) 
Heartbeat CPU 3 instructions: 840000000 cycles: 1616200518 heartbeat IPC: 0.308121 cumulative IPC: 0.400156 (Simulation time: 4 hr 48 min 0 sec) 
Heartbeat CPU 1 instructions: 2060000000 cycles: 1624573009 heartbeat IPC: 1.17837 cumulative IPC: 1.15037 (Simulation time: 4 hr 49 min 21 sec) 
Heartbeat CPU 0 instructions: 1390000002 cycles: 1627317491 heartbeat IPC: 0.699355 cumulative IPC: 0.70267 (Simulation time: 4 hr 49 min 48 sec) 
Heartbeat CPU 1 instructions: 2070000002 cycles: 1632964363 heartbeat IPC: 1.1917 cumulative IPC: 1.1506 (Simulation time: 4 hr 50 min 43 sec) 
Heartbeat CPU 1 instructions: 2080000000 cycles: 1640199042 heartbeat IPC: 1.38223 cumulative IPC: 1.15172 (Simulation time: 4 hr 51 min 55 sec) 
Heartbeat CPU 0 instructions: 1400000000 cycles: 1641605983 heartbeat IPC: 0.699864 cumulative IPC: 0.702643 (Simulation time: 4 hr 52 min 8 sec) 
Heartbeat CPU 3 instructions: 850000000 cycles: 1645129979 heartbeat IPC: 0.345668 cumulative IPC: 0.399104 (Simulation time: 4 hr 52 min 40 sec) 
Heartbeat CPU 1 instructions: 2090000002 cycles: 1649300615 heartbeat IPC: 1.09871 cumulative IPC: 1.1514 (Simulation time: 4 hr 53 min 19 sec) 
Heartbeat CPU 2 instructions: 570000001 cycles: 1655001004 heartbeat IPC: 0.248149 cumulative IPC: 0.245373 (Simulation time: 4 hr 54 min 15 sec) 
Heartbeat CPU 0 instructions: 1410000000 cycles: 1655876300 heartbeat IPC: 0.700755 cumulative IPC: 0.702625 (Simulation time: 4 hr 54 min 25 sec) 
Heartbeat CPU 1 instructions: 2100000000 cycles: 1657745856 heartbeat IPC: 1.1841 cumulative IPC: 1.15159 (Simulation time: 4 hr 54 min 43 sec) 
Heartbeat CPU 1 instructions: 2110000001 cycles: 1665529129 heartbeat IPC: 1.28481 cumulative IPC: 1.15227 (Simulation time: 4 hr 55 min 59 sec) 
Heartbeat CPU 3 instructions: 860000000 cycles: 1669538000 heartbeat IPC: 0.409701 cumulative IPC: 0.399274 (Simulation time: 4 hr 56 min 36 sec) 
Heartbeat CPU 0 instructions: 1420000000 cycles: 1670196388 heartbeat IPC: 0.69832 cumulative IPC: 0.702585 (Simulation time: 4 hr 56 min 41 sec) 
Heartbeat CPU 1 instructions: 2120000000 cycles: 1674136510 heartbeat IPC: 1.16179 cumulative IPC: 1.15232 (Simulation time: 4 hr 57 min 15 sec) 
Heartbeat CPU 1 instructions: 2130000001 cycles: 1683425358 heartbeat IPC: 1.07656 cumulative IPC: 1.15186 (Simulation time: 4 hr 58 min 38 sec) 
Heartbeat CPU 0 instructions: 1430000000 cycles: 1684506534 heartbeat IPC: 0.698805 cumulative IPC: 0.70255 (Simulation time: 4 hr 58 min 47 sec) 
Heartbeat CPU 1 instructions: 2140000000 cycles: 1691495754 heartbeat IPC: 1.2391 cumulative IPC: 1.15232 (Simulation time: 4 hr 59 min 50 sec) 
Heartbeat CPU 2 instructions: 580000000 cycles: 1695967361 heartbeat IPC: 0.244103 cumulative IPC: 0.24534 (Simulation time: 5 hr 0 min 31 sec) 
Heartbeat CPU 1 instructions: 2150000001 cycles: 1698773099 heartbeat IPC: 1.37413 cumulative IPC: 1.15336 (Simulation time: 5 hr 0 min 57 sec) 
Heartbeat CPU 0 instructions: 1440000000 cycles: 1698875187 heartbeat IPC: 0.695959 cumulative IPC: 0.702489 (Simulation time: 5 hr 0 min 58 sec) 
Heartbeat CPU 3 instructions: 870000000 cycles: 1700454465 heartbeat IPC: 0.323452 cumulative IPC: 0.397765 (Simulation time: 5 hr 1 min 12 sec) 
Heartbeat CPU 1 instructions: 2160000000 cycles: 1707474942 heartbeat IPC: 1.14918 cumulative IPC: 1.15334 (Simulation time: 5 hr 2 min 14 sec) 
Heartbeat CPU 0 instructions: 1450000000 cycles: 1713217926 heartbeat IPC: 0.697217 cumulative IPC: 0.70244 (Simulation time: 5 hr 3 min 7 sec) 
Heartbeat CPU 1 instructions: 2170000001 cycles: 1716897684 heartbeat IPC: 1.06126 cumulative IPC: 1.15278 (Simulation time: 5 hr 3 min 40 sec) 
Heartbeat CPU 1 instructions: 2180000000 cycles: 1726397751 heartbeat IPC: 1.05262 cumulative IPC: 1.15218 (Simulation time: 5 hr 5 min 9 sec) 
Heartbeat CPU 0 instructions: 1460000000 cycles: 1727509598 heartbeat IPC: 0.699708 cumulative IPC: 0.702416 (Simulation time: 5 hr 5 min 20 sec) 
Heartbeat CPU 3 instructions: 880000000 cycles: 1728177492 heartbeat IPC: 0.360711 cumulative IPC: 0.397115 (Simulation time: 5 hr 5 min 26 sec) 
Heartbeat CPU 1 instructions: 2190000002 cycles: 1735013882 heartbeat IPC: 1.16061 cumulative IPC: 1.15223 (Simulation time: 5 hr 6 min 35 sec) 
Heartbeat CPU 2 instructions: 590000001 cycles: 1736706583 heartbeat IPC: 0.245464 cumulative IPC: 0.245343 (Simulation time: 5 hr 6 min 52 sec) 
Heartbeat CPU 0 instructions: 1470000000 cycles: 1741805814 heartbeat IPC: 0.699486 cumulative IPC: 0.702389 (Simulation time: 5 hr 7 min 48 sec) 
Heartbeat CPU 1 instructions: 2200000000 cycles: 1743571098 heartbeat IPC: 1.1686 cumulative IPC: 1.15232 (Simulation time: 5 hr 8 min 9 sec) 
Heartbeat CPU 3 instructions: 890000000 cycles: 1749354387 heartbeat IPC: 0.472213 cumulative IPC: 0.398108 (Simulation time: 5 hr 9 min 10 sec) 
Heartbeat CPU 1 instructions: 2210000001 cycles: 1752128314 heartbeat IPC: 1.1686 cumulative IPC: 1.1524 (Simulation time: 5 hr 9 min 40 sec) 
Heartbeat CPU 0 instructions: 1480000000 cycles: 1756098044 heartbeat IPC: 0.699681 cumulative IPC: 0.702365 (Simulation time: 5 hr 10 min 20 sec) 
Heartbeat CPU 1 instructions: 2220000000 cycles: 1760700307 heartbeat IPC: 1.16659 cumulative IPC: 1.15248 (Simulation time: 5 hr 11 min 4 sec) 
Heartbeat CPU 1 instructions: 2230000003 cycles: 1769244979 heartbeat IPC: 1.17032 cumulative IPC: 1.15257 (Simulation time: 5 hr 12 min 28 sec) 
Heartbeat CPU 0 instructions: 1490000003 cycles: 1770385870 heartbeat IPC: 0.699897 cumulative IPC: 0.702344 (Simulation time: 5 hr 12 min 40 sec) 
Heartbeat CPU 2 instructions: 600000000 cycles: 1776972018 heartbeat IPC: 0.248352 cumulative IPC: 0.245417 (Simulation time: 5 hr 13 min 48 sec) 
Heartbeat CPU 1 instructions: 2240000000 cycles: 1777778965 heartbeat IPC: 1.17178 cumulative IPC: 1.15267 (Simulation time: 5 hr 13 min 55 sec) 
Heartbeat CPU 3 instructions: 900000000 cycles: 1781577605 heartbeat IPC: 0.310335 cumulative IPC: 0.396377 (Simulation time: 5 hr 14 min 38 sec) 
Heartbeat CPU 0 instructions: 1500000000 cycles: 1784690325 heartbeat IPC: 0.699083 cumulative IPC: 0.702315 (Simulation time: 5 hr 15 min 14 sec) 
Heartbeat CPU 1 instructions: 2250000003 cycles: 1786149577 heartbeat IPC: 1.19466 cumulative IPC: 1.15289 (Simulation time: 5 hr 15 min 31 sec) 
Heartbeat CPU 1 instructions: 2260000000 cycles: 1793675016 heartbeat IPC: 1.32883 cumulative IPC: 1.15369 (Simulation time: 5 hr 16 min 55 sec) 
Heartbeat CPU 0 instructions: 1510000000 cycles: 1798962538 heartbeat IPC: 0.700662 cumulative IPC: 0.702301 (Simulation time: 5 hr 17 min 48 sec) 
Heartbeat CPU 1 instructions: 2270000001 cycles: 1803261776 heartbeat IPC: 1.04311 cumulative IPC: 1.15305 (Simulation time: 5 hr 18 min 31 sec) 
Heartbeat CPU 3 instructions: 910000000 cycles: 1811783119 heartbeat IPC: 0.331065 cumulative IPC: 0.395192 (Simulation time: 5 hr 19 min 59 sec) 
Heartbeat CPU 1 instructions: 2280000000 cycles: 1811838951 heartbeat IPC: 1.16588 cumulative IPC: 1.15312 (Simulation time: 5 hr 20 min 0 sec) 
Heartbeat CPU 0 instructions: 1520000000 cycles: 1813227145 heartbeat IPC: 0.701036 cumulative IPC: 0.70229 (Simulation time: 5 hr 20 min 15 sec) 
Heartbeat CPU 2 instructions: 610000003 cycles: 1817806606 heartbeat IPC: 0.244891 cumulative IPC: 0.245404 (Simulation time: 5 hr 21 min 6 sec) 
Heartbeat CPU 1 instructions: 2290000000 cycles: 1819716807 heartbeat IPC: 1.26938 cumulative IPC: 1.15366 (Simulation time: 5 hr 21 min 28 sec) 
Heartbeat CPU 0 instructions: 1530000000 cycles: 1827546510 heartbeat IPC: 0.698355 cumulative IPC: 0.702257 (Simulation time: 5 hr 22 min 41 sec) 
Heartbeat CPU 1 instructions: 2300000000 cycles: 1828483293 heartbeat IPC: 1.14071 cumulative IPC: 1.1536 (Simulation time: 5 hr 22 min 50 sec) 
Heartbeat CPU 1 instructions: 2310000000 cycles: 1838091390 heartbeat IPC: 1.04079 cumulative IPC: 1.15296 (Simulation time: 5 hr 24 min 26 sec) 
Heartbeat CPU 3 instructions: 920000000 cycles: 1839311797 heartbeat IPC: 0.363258 cumulative IPC: 0.394673 (Simulation time: 5 hr 24 min 37 sec) 
Heartbeat CPU 0 instructions: 1540000000 cycles: 1841888384 heartbeat IPC: 0.697259 cumulative IPC: 0.702214 (Simulation time: 5 hr 25 min 0 sec) 
Heartbeat CPU 1 instructions: 2320000000 cycles: 1846491813 heartbeat IPC: 1.19042 cumulative IPC: 1.15314 (Simulation time: 5 hr 25 min 46 sec) 
Heartbeat CPU 1 instructions: 2330000002 cycles: 1853953070 heartbeat IPC: 1.34026 cumulative IPC: 1.15396 (Simulation time: 5 hr 27 min 1 sec) 
[...]
Heartbeat CPU 1 instructions: 4890000000 cycles: 4078707253 heartbeat IPC: 1.10935 cumulative IPC: 1.15211 (Simulation time: 10 hr 50 min 3 sec) 
Heartbeat CPU 0 instructions: 3150000001 cycles: 4084443054 heartbeat IPC: 0.702251 cumulative IPC: 0.711166 (Simulation time: 10 hr 50 min 49 sec) 
Heartbeat CPU 1 instructions: 4900000000 cycles: 4088050997 heartbeat IPC: 1.07023 cumulative IPC: 1.15191 (Simulation time: 10 hr 51 min 18 sec) 
Heartbeat CPU 3 instructions: 1770000001 cycles: 4092329109 heartbeat IPC: 0.342469 cumulative IPC: 0.384736 (Simulation time: 10 hr 51 min 53 sec) 
Heartbeat CPU 1 instructions: 4910000002 cycles: 4097681891 heartbeat IPC: 1.03833 cumulative IPC: 1.15164 (Simulation time: 10 hr 52 min 38 sec) 
Heartbeat CPU 0 instructions: 3160000000 cycles: 4098605780 heartbeat IPC: 0.706079 cumulative IPC: 0.711148 (Simulation time: 10 hr 52 min 46 sec) 
Heartbeat CPU 1 instructions: 4920000000 cycles: 4106200340 heartbeat IPC: 1.17392 cumulative IPC: 1.15169 (Simulation time: 10 hr 53 min 53 sec) 
Heartbeat CPU 0 instructions: 3170000000 cycles: 4112818180 heartbeat IPC: 0.703611 cumulative IPC: 0.711121 (Simulation time: 10 hr 54 min 51 sec) 
Heartbeat CPU 1 instructions: 4930000002 cycles: 4114721663 heartbeat IPC: 1.17353 cumulative IPC: 1.15173 (Simulation time: 10 hr 55 min 8 sec) 
Heartbeat CPU 2 instructions: 1170000000 cycles: 4115195582 heartbeat IPC: 0.247817 cumulative IPC: 0.244449 (Simulation time: 10 hr 55 min 12 sec) 
Heartbeat CPU 3 instructions: 1780000000 cycles: 4118147359 heartbeat IPC: 0.387323 cumulative IPC: 0.384752 (Simulation time: 10 hr 55 min 38 sec) 
Heartbeat CPU 1 instructions: 4940000000 cycles: 4123207062 heartbeat IPC: 1.17849 cumulative IPC: 1.15179 (Simulation time: 10 hr 56 min 25 sec) 
Heartbeat CPU 0 instructions: 3180000000 cycles: 4127002983 heartbeat IPC: 0.70498 cumulative IPC: 0.711099 (Simulation time: 10 hr 56 min 59 sec) 
Heartbeat CPU 1 instructions: 4950000003 cycles: 4131687182 heartbeat IPC: 1.17923 cumulative IPC: 1.15185 (Simulation time: 10 hr 57 min 41 sec) 
Heartbeat CPU 3 instructions: 1790000000 cycles: 4139125832 heartbeat IPC: 0.476679 cumulative IPC: 0.385235 (Simulation time: 10 hr 58 min 46 sec) 
Heartbeat CPU 1 instructions: 4960000000 cycles: 4140160504 heartbeat IPC: 1.18017 cumulative IPC: 1.15191 (Simulation time: 10 hr 58 min 55 sec) 
Heartbeat CPU 0 instructions: 3190000001 cycles: 4141207444 heartbeat IPC: 0.704004 cumulative IPC: 0.711074 (Simulation time: 10 hr 59 min 4 sec) 
Heartbeat CPU 1 instructions: 4970000000 cycles: 4148803371 heartbeat IPC: 1.15702 cumulative IPC: 1.15192 (Simulation time: 11 hr 0 min 6 sec) 
Heartbeat CPU 0 instructions: 3200000000 cycles: 4155408301 heartbeat IPC: 0.704183 cumulative IPC: 0.711049 (Simulation time: 11 hr 1 min 1 sec) 
Heartbeat CPU 2 instructions: 1180000000 cycles: 4155881211 heartbeat IPC: 0.245787 cumulative IPC: 0.244463 (Simulation time: 11 hr 1 min 5 sec) 
Heartbeat CPU 1 instructions: 4980000000 cycles: 4157535872 heartbeat IPC: 1.14515 cumulative IPC: 1.1519 (Simulation time: 11 hr 1 min 19 sec) 
Heartbeat CPU 1 instructions: 4990000001 cycles: 4164671529 heartbeat IPC: 1.40141 cumulative IPC: 1.15235 (Simulation time: 11 hr 2 min 22 sec) 
Heartbeat CPU 0 instructions: 3210000003 cycles: 4169573713 heartbeat IPC: 0.705945 cumulative IPC: 0.711031 (Simulation time: 11 hr 3 min 1 sec) 
Heartbeat CPU 3 instructions: 1800000000 cycles: 4170753088 heartbeat IPC: 0.316183 cumulative IPC: 0.384693 (Simulation time: 11 hr 3 min 10 sec) 
Heartbeat CPU 1 instructions: 5000000000 cycles: 4174533374 heartbeat IPC: 1.01401 cumulative IPC: 1.15201 (Simulation time: 11 hr 3 min 40 sec) 
Heartbeat CPU 1 instructions: 5010000002 cycles: 4183242741 heartbeat IPC: 1.14819 cumulative IPC: 1.152 (Simulation time: 11 hr 4 min 54 sec) 
Heartbeat CPU 0 instructions: 3220000000 cycles: 4183724151 heartbeat IPC: 0.706692 cumulative IPC: 0.711016 (Simulation time: 11 hr 4 min 58 sec) 
Heartbeat CPU 1 instructions: 5020000000 cycles: 4191123421 heartbeat IPC: 1.26893 cumulative IPC: 1.15223 (Simulation time: 11 hr 6 min 2 sec) 
Heartbeat CPU 2 instructions: 1190000001 cycles: 4196959151 heartbeat IPC: 0.24344 cumulative IPC: 0.244453 (Simulation time: 11 hr 6 min 53 sec) 
Heartbeat CPU 3 instructions: 1810000000 cycles: 4197009047 heartbeat IPC: 0.380866 cumulative IPC: 0.384668 (Simulation time: 11 hr 6 min 54 sec) 
Heartbeat CPU 0 instructions: 3230000000 cycles: 4197928528 heartbeat IPC: 0.704008 cumulative IPC: 0.710991 (Simulation time: 11 hr 7 min 0 sec) 
Heartbeat CPU 1 instructions: 5030000000 cycles: 4199498899 heartbeat IPC: 1.19396 cumulative IPC: 1.15231 (Simulation time: 11 hr 7 min 12 sec) 
Heartbeat CPU 1 instructions: 5040000000 cycles: 4209068438 heartbeat IPC: 1.04498 cumulative IPC: 1.15206 (Simulation time: 11 hr 8 min 25 sec) 
Heartbeat CPU 0 instructions: 3240000000 cycles: 4212231248 heartbeat IPC: 0.699168 cumulative IPC: 0.71095 (Simulation time: 11 hr 8 min 49 sec) 
Heartbeat CPU 1 instructions: 5050000001 cycles: 4218502885 heartbeat IPC: 1.05995 cumulative IPC: 1.15185 (Simulation time: 11 hr 9 min 38 sec) 
Heartbeat CPU 1 instructions: 5060000000 cycles: 4225605962 heartbeat IPC: 1.40784 cumulative IPC: 1.15229 (Simulation time: 11 hr 10 min 36 sec) 
Heartbeat CPU 0 instructions: 3250000003 cycles: 4226603662 heartbeat IPC: 0.695778 cumulative IPC: 0.710896 (Simulation time: 11 hr 10 min 44 sec) 
Heartbeat CPU 3 instructions: 1820000000 cycles: 4228740248 heartbeat IPC: 0.315147 cumulative IPC: 0.384127 (Simulation time: 11 hr 11 min 2 sec) 
Heartbeat CPU 1 instructions: 5070000001 cycles: 4234257775 heartbeat IPC: 1.15583 cumulative IPC: 1.1523 (Simulation time: 11 hr 11 min 44 sec) 
Heartbeat CPU 2 instructions: 1200000000 cycles: 4238272009 heartbeat IPC: 0.242055 cumulative IPC: 0.244428 (Simulation time: 11 hr 12 min 15 sec) 
Finished CPU 2 instructions: 1000000000 cycles: 4091176446 cumulative IPC: 0.244428 (Simulation time: 11 hr 12 min 15 sec) 

CPU 0 Branch Prediction Accuracy: 99.9494% MPKI: 0.124371

CPU 1 Branch Prediction Accuracy: 97.5983% MPKI: 3.44183

CPU 2 Branch Prediction Accuracy: 96.7197% MPKI: 4.86726

CPU 3 Branch Prediction Accuracy: 99.2727% MPKI: 1.77817

ChampSim completed all CPUs

Total Simulation Statistics (not including warmup)

CPU 0 cumulative IPC: 0.710849 instructions: 2908209516 cycles: 4091176446
L1D TOTAL     ACCESS:  616973710  HIT:  544859645  MISS:   72114065
L1D LOAD      ACCESS:  564430532  HIT:  492380476  MISS:   72050056
L1D RFO       ACCESS:   52543178  HIT:   52479169  MISS:      64009
L1D PREFETCH  ACCESS:          0  HIT:          0  MISS:          0
L1D WRITEBACK ACCESS:          0  HIT:          0  MISS:          0
L1I TOTAL     ACCESS: 1022351367  HIT: 1022351366  MISS:          1
L1I LOAD      ACCESS: 1022351367  HIT: 1022351366  MISS:          1
L1I RFO       ACCESS:          0  HIT:          0  MISS:          0
L1I PREFETCH  ACCESS:          0  HIT:          0  MISS:          0
L1I WRITEBACK ACCESS:          0  HIT:          0  MISS:          0
L2C TOTAL     ACCESS:   96987741  HIT:   26397079  MISS:   70590662
L2C LOAD      ACCESS:   72050055  HIT:   20162873  MISS:   51887182
L2C RFO       ACCESS:      64009  HIT:       8400  MISS:      55609
L2C PREFETCH  ACCESS:   24780435  HIT:    6132582  MISS:   18647853
L2C WRITEBACK ACCESS:      93242  HIT:      93224  MISS:         18
LLC TOTAL     ACCESS:  240313558  HIT:  239968323  MISS:     345235
LLC LOAD      ACCESS:   49538957  HIT:   49466984  MISS:      71973
LLC RFO       ACCESS:      55605  HIT:      45499  MISS:      10106
LLC PREFETCH  ACCESS:  190633418  HIT:  190374035  MISS:     259383
LLC WRITEBACK ACCESS:      85578  HIT:      81805  MISS:       3773

CPU 1 cumulative IPC: 1.15233 instructions: 4714383996 cycles: 4091176446
L1D TOTAL     ACCESS:  873401301  HIT:  792707824  MISS:   80693477
L1D LOAD      ACCESS:  624853711  HIT:  571282088  MISS:   53571623
L1D RFO       ACCESS:  248547590  HIT:  221425736  MISS:   27121854
L1D PREFETCH  ACCESS:          0  HIT:          0  MISS:          0
L1D WRITEBACK ACCESS:          0  HIT:          0  MISS:          0
L1I TOTAL     ACCESS: 1136094335  HIT: 1133756849  MISS:    2337486
L1I LOAD      ACCESS: 1136094335  HIT: 1133756849  MISS:    2337486
L1I RFO       ACCESS:          0  HIT:          0  MISS:          0
L1I PREFETCH  ACCESS:          0  HIT:          0  MISS:          0
L1I WRITEBACK ACCESS:          0  HIT:          0  MISS:          0
L2C TOTAL     ACCESS:  226572479  HIT:  188141262  MISS:   38431217
L2C LOAD      ACCESS:   55905115  HIT:   37163600  MISS:   18741515
L2C RFO       ACCESS:   27120727  HIT:   14063308  MISS:   13057419
L2C PREFETCH  ACCESS:  109021880  HIT:  102413442  MISS:    6608438
L2C WRITEBACK ACCESS:   34524757  HIT:   34500912  MISS:      23845
LLC TOTAL     ACCESS:  131717295  HIT:  115697927  MISS:   16019368
LLC LOAD      ACCESS:   17270903  HIT:   16206502  MISS:    1064401
LLC RFO       ACCESS:   13057259  HIT:    6969901  MISS:    6087358
LLC PREFETCH  ACCESS:   83305702  HIT:   74482280  MISS:    8823422
LLC WRITEBACK ACCESS:   18083431  HIT:   18039244  MISS:      44187

CPU 2 cumulative IPC: 0.244428 instructions: 1000000000 cycles: 4091176446
L1D TOTAL     ACCESS:  444547722  HIT:  424531751  MISS:   20015971
L1D LOAD      ACCESS:  262760120  HIT:  245267563  MISS:   17492557
L1D RFO       ACCESS:  181787602  HIT:  179264188  MISS:    2523414
L1D PREFETCH  ACCESS:          0  HIT:          0  MISS:          0
L1D WRITEBACK ACCESS:          0  HIT:          0  MISS:          0
L1I TOTAL     ACCESS:  357196966  HIT:  356815932  MISS:     381034
L1I LOAD      ACCESS:  357196966  HIT:  356815932  MISS:     381034
L1I RFO       ACCESS:          0  HIT:          0  MISS:          0
L1I PREFETCH  ACCESS:          0  HIT:          0  MISS:          0
L1I WRITEBACK ACCESS:          0  HIT:          0  MISS:          0
L2C TOTAL     ACCESS:   34029150  HIT:   19270530  MISS:   14758620
L2C LOAD      ACCESS:   17872982  HIT:    5559574  MISS:   12313408
L2C RFO       ACCESS:    2523283  HIT:     510701  MISS:    2012582
L2C PREFETCH  ACCESS:    3958897  HIT:    3552508  MISS:     406389
L2C WRITEBACK ACCESS:    9673988  HIT:    9647747  MISS:      26241
LLC TOTAL     ACCESS:   41633458  HIT:   24503499  MISS:   17129959
LLC LOAD      ACCESS:   12309919  HIT:    5988376  MISS:    6321543
LLC RFO       ACCESS:    2011735  HIT:    1285821  MISS:     725914
LLC PREFETCH  ACCESS:   20092679  HIT:   10032728  MISS:   10059951
LLC WRITEBACK ACCESS:    7219125  HIT:    7196574  MISS:      22551

CPU 3 cumulative IPC: 0.384108 instructions: 1571453620 cycles: 4091176447
L1D TOTAL     ACCESS:  389496544  HIT:  306526866  MISS:   82969678
L1D LOAD      ACCESS:  280999633  HIT:  200474278  MISS:   80525355
L1D RFO       ACCESS:  108496911  HIT:  106052588  MISS:    2444323
L1D PREFETCH  ACCESS:          0  HIT:          0  MISS:          0
L1D WRITEBACK ACCESS:          0  HIT:          0  MISS:          0
L1I TOTAL     ACCESS:  683012163  HIT:  679154426  MISS:    3857737
L1I LOAD      ACCESS:  683012163  HIT:  679154426  MISS:    3857737
L1I RFO       ACCESS:          0  HIT:          0  MISS:          0
L1I PREFETCH  ACCESS:          0  HIT:          0  MISS:          0
L1I WRITEBACK ACCESS:          0  HIT:          0  MISS:          0
L2C TOTAL     ACCESS:  145124749  HIT:  111512253  MISS:   33612496
L2C LOAD      ACCESS:   84382631  HIT:   53859958  MISS:   30522673
L2C RFO       ACCESS:    2444273  HIT:     420220  MISS:    2024053
L2C PREFETCH  ACCESS:   54206725  HIT:   53142493  MISS:    1064232
L2C WRITEBACK ACCESS:    4091120  HIT:    4089582  MISS:       1538
LLC TOTAL     ACCESS:  113547184  HIT:  109514715  MISS:    4032469
LLC LOAD      ACCESS:   29952221  HIT:   29287473  MISS:     664748
LLC RFO       ACCESS:    2023897  HIT:     354986  MISS:    1668911
LLC PREFETCH  ACCESS:   78685985  HIT:   77025905  MISS:    1660080
LLC WRITEBACK ACCESS:    2885081  HIT:    2846351  MISS:      38730

Region of Interest Statistics

CPU 0 cumulative IPC: 0.70283 instructions: 1000000000 cycles: 1422819019
L1D TOTAL     ACCESS:  213963840  HIT:  188595957  MISS:   25367883
L1D LOAD      ACCESS:  195559782  HIT:  170213800  MISS:   25345982
L1D RFO       ACCESS:   18404058  HIT:   18382157  MISS:      21901
L1D PREFETCH  ACCESS:          0  HIT:          0  MISS:          0
L1D WRITEBACK ACCESS:          0  HIT:          0  MISS:          0
L1D PREFETCH  REQUESTED:          0  ISSUED:          0  USEFUL:          0  USELESS:          0
L1I TOTAL     ACCESS:  350678130  HIT:  350678129  MISS:          1
L1I LOAD      ACCESS:  350678130  HIT:  350678129  MISS:          1
L1I RFO       ACCESS:          0  HIT:          0  MISS:          0
L1I PREFETCH  ACCESS:          0  HIT:          0  MISS:          0
L1I WRITEBACK ACCESS:          0  HIT:          0  MISS:          0
L1I PREFETCH  REQUESTED:          0  ISSUED:          0  USEFUL:          0  USELESS:          0
L2C TOTAL     ACCESS:   32618414  HIT:    7217698  MISS:   25400716
L2C LOAD      ACCESS:   25345983  HIT:    6765529  MISS:   18580454
L2C RFO       ACCESS:      21901  HIT:       1591  MISS:      20310
L2C PREFETCH  ACCESS:    7218466  HIT:     418520  MISS:    6799946
L2C WRITEBACK ACCESS:      32064  HIT:      32058  MISS:          6
L2C PREFETCH  REQUESTED:  397506576  ISSUED:  397506576  USEFUL:   19809414  USELESS:     431903
LLC TOTAL     ACCESS:   87301363  HIT:   87237560  MISS:      63803
LLC LOAD      ACCESS:   17805808  HIT:   17794004  MISS:      11804
LLC RFO       ACCESS:      20309  HIT:      17550  MISS:       2759
LLC PREFETCH  ACCESS:   69443044  HIT:   69394085  MISS:      48959
LLC WRITEBACK ACCESS:      32202  HIT:      31921  MISS:        281
LLC PREFETCH  REQUESTED:          0  ISSUED:          0  USEFUL:    9861755  USELESS:   13913782
Major fault: 0 Minor fault: 4844

CPU 1 cumulative IPC: 1.1534 instructions: 1000000000 cycles: 867001833
L1D TOTAL     ACCESS:  188224826  HIT:  170604029  MISS:   17620797
L1D LOAD      ACCESS:  134621794  HIT:  122787766  MISS:   11834028
L1D RFO       ACCESS:   53603032  HIT:   47816263  MISS:    5786769
L1D PREFETCH  ACCESS:          0  HIT:          0  MISS:          0
L1D WRITEBACK ACCESS:          0  HIT:          0  MISS:          0
L1D PREFETCH  REQUESTED:          0  ISSUED:          0  USEFUL:          0  USELESS:          0
L1I TOTAL     ACCESS:  240212614  HIT:  239677556  MISS:     535058
L1I LOAD      ACCESS:  240212614  HIT:  239677556  MISS:     535058
L1I RFO       ACCESS:          0  HIT:          0  MISS:          0
L1I PREFETCH  ACCESS:          0  HIT:          0  MISS:          0
L1I WRITEBACK ACCESS:          0  HIT:          0  MISS:          0
L1I PREFETCH  REQUESTED:          0  ISSUED:          0  USEFUL:          0  USELESS:          0
L2C TOTAL     ACCESS:   49716224  HIT:   41300803  MISS:    8415421
L2C LOAD      ACCESS:   12368263  HIT:    8176738  MISS:    4191525
L2C RFO       ACCESS:    5786510  HIT:    3008590  MISS:    2777920
L2C PREFETCH  ACCESS:   24119957  HIT:   22678993  MISS:    1440964
L2C WRITEBACK ACCESS:    7441494  HIT:    7436482  MISS:       5012
L2C PREFETCH  REQUESTED:  262188942  ISSUED:  256859736  USEFUL:    6913777  USELESS:     252337
LLC TOTAL     ACCESS:   29118062  HIT:   25753059  MISS:    3365003
LLC LOAD      ACCESS:    3879547  HIT:    3651664  MISS:     227883
LLC RFO       ACCESS:    2777887  HIT:    1565518  MISS:    1212369
LLC PREFETCH  ACCESS:   18557381  HIT:   16640623  MISS:    1916758
LLC WRITEBACK ACCESS:    3903247  HIT:    3895254  MISS:       7993
LLC PREFETCH  REQUESTED:          0  ISSUED:          0  USEFUL:    9861755  USELESS:   13913782
Major fault: 0 Minor fault: 54915

CPU 2 cumulative IPC: 0.244428 instructions: 1000000000 cycles: 4091176446
L1D TOTAL     ACCESS:  444547722  HIT:  424531751  MISS:   20015971
L1D LOAD      ACCESS:  262760120  HIT:  245267563  MISS:   17492557
L1D RFO       ACCESS:  181787602  HIT:  179264188  MISS:    2523414
L1D PREFETCH  ACCESS:          0  HIT:          0  MISS:          0
L1D WRITEBACK ACCESS:          0  HIT:          0  MISS:          0
L1D PREFETCH  REQUESTED:          0  ISSUED:          0  USEFUL:          0  USELESS:          0
L1I TOTAL     ACCESS:  357196966  HIT:  356815932  MISS:     381034
L1I LOAD      ACCESS:  357196966  HIT:  356815932  MISS:     381034
L1I RFO       ACCESS:          0  HIT:          0  MISS:          0
L1I PREFETCH  ACCESS:          0  HIT:          0  MISS:          0
L1I WRITEBACK ACCESS:          0  HIT:          0  MISS:          0
L1I PREFETCH  REQUESTED:          0  ISSUED:          0  USEFUL:          0  USELESS:          0
L2C TOTAL     ACCESS:   34029150  HIT:   19270530  MISS:   14758620
L2C LOAD      ACCESS:   17872982  HIT:    5559574  MISS:   12313408
L2C RFO       ACCESS:    2523283  HIT:     510701  MISS:    2012582
L2C PREFETCH  ACCESS:    3958897  HIT:    3552508  MISS:     406389
L2C WRITEBACK ACCESS:    9673988  HIT:    9647747  MISS:      26241
L2C PREFETCH  REQUESTED:   31620834  ISSUED:   31620834  USEFUL:     132271  USELESS:     330039
LLC TOTAL     ACCESS:   41633458  HIT:   24503499  MISS:   17129959
LLC LOAD      ACCESS:   12309919  HIT:    5988376  MISS:    6321543
LLC RFO       ACCESS:    2011735  HIT:    1285821  MISS:     725914
LLC PREFETCH  ACCESS:   20092679  HIT:   10032728  MISS:   10059951
LLC WRITEBACK ACCESS:    7219125  HIT:    7196574  MISS:      22551
LLC PREFETCH  REQUESTED:          0  ISSUED:          0  USEFUL:    9861755  USELESS:   13913782
Major fault: 0 Minor fault: 52120

CPU 3 cumulative IPC: 0.390748 instructions: 1000000003 cycles: 2559191060
L1D TOTAL     ACCESS:  242231181  HIT:  189579365  MISS:   52651816
L1D LOAD      ACCESS:  175414351  HIT:  124397787  MISS:   51016564
L1D RFO       ACCESS:   66816830  HIT:   65181578  MISS:    1635252
L1D PREFETCH  ACCESS:          0  HIT:          0  MISS:          0
L1D WRITEBACK ACCESS:          0  HIT:          0  MISS:          0
L1D PREFETCH  REQUESTED:          0  ISSUED:          0  USEFUL:          0  USELESS:          0
L1I TOTAL     ACCESS:  435996845  HIT:  433616779  MISS:    2380066
L1I LOAD      ACCESS:  435996845  HIT:  433616779  MISS:    2380066
L1I RFO       ACCESS:          0  HIT:          0  MISS:          0
L1I PREFETCH  ACCESS:          0  HIT:          0  MISS:          0
L1I WRITEBACK ACCESS:          0  HIT:          0  MISS:          0
L1I PREFETCH  REQUESTED:          0  ISSUED:          0  USEFUL:          0  USELESS:          0
L2C TOTAL     ACCESS:   94445383  HIT:   73323220  MISS:   21122163
L2C LOAD      ACCESS:   53396235  HIT:   34301190  MISS:   19095045
L2C RFO       ACCESS:    1635214  HIT:     286610  MISS:    1348604
L2C PREFETCH  ACCESS:   36709096  HIT:   36031657  MISS:     677439
L2C WRITEBACK ACCESS:    2704838  HIT:    2703763  MISS:       1075
L2C PREFETCH  REQUESTED:  178240170  ISSUED:  178239971  USEFUL:     586449  USELESS:     695438
LLC TOTAL     ACCESS:   70982410  HIT:   68394430  MISS:    2587980
LLC LOAD      ACCESS:   18706614  HIT:   18306157  MISS:     400457
LLC RFO       ACCESS:    1348499  HIT:     220206  MISS:    1128293
LLC PREFETCH  ACCESS:   49044168  HIT:   48009714  MISS:    1034454
LLC WRITEBACK ACCESS:    1883129  HIT:    1858353  MISS:      24776
LLC PREFETCH  REQUESTED:          0  ISSUED:          0  USEFUL:    9861755  USELESS:   13913782
Major fault: 0 Minor fault: 6292

DRAM Statistics
 CHANNEL 0
 RQ ROW_BUFFER_HIT:    6135325  ROW_BUFFER_MISS:   12515308
 DBUS_CONGESTED:   24290071
 WQ ROW_BUFFER_HIT:     788003  ROW_BUFFER_MISS:    6660679  FULL:          0

 CHANNEL 1
 RQ ROW_BUFFER_HIT:    6154818  ROW_BUFFER_MISS:   12607652
 DBUS_CONGESTED:   24290071
 WQ ROW_BUFFER_HIT:     790309  ROW_BUFFER_MISS:    6662224  FULL:          0

 AVG_CONGESTED_CYCLE: 13
