Initialize SIGNATURE TABLE
ST_SET: 1
ST_WAY: 256
ST_TAG_BIT: 16
ST_TAG_MASK: ffff

Initialize PATTERN TABLE
PT_SET: 512
PT_WAY: 4
SIG_DELTA_BIT: 7
C_SIG_BIT: 4
C_DELTA_BIT: 4

Initialize PREFETCH FILTER
FILTER_SET: 1024

*** ChampSim Multicore Out-of-Order Simulator ***

Warmup Instructions: 200000000
Simulation Instructions: 1000000000
Number of CPUs: 4
LLC sets: 8192
LLC ways: 16
Off-chip DRAM Size: 8192 MB Channels: 2 Width: 64-bit Data Rate: 1600 MT/s

CPU 0 runs /scratch/user/djimenez/champsim-traces/speccpu2017/xz/603.bwaves_s/603.bwaves_s-891B.champsimtrace.xz
CPU 1 runs /scratch/user/djimenez/champsim-traces/speccpu2017/xz/620.omnetpp_s/620.omnetpp_s-141B.champsimtrace.xz
CPU 2 runs /scratch/user/djimenez/champsim-traces/speccpu2017/xz/602.gcc_s/602.gcc_s-734B.champsimtrace.xz
CPU 3 runs /scratch/user/djimenez/champsim-traces/speccpu2017/xz/644.nab_s/644.nab_s-12459B.champsimtrace.xz
Heartbeat CPU 0 instructions: 10000003 cycles: 3218635 heartbeat IPC: 3.10691 cumulative IPC: 3.10691 (Simulation time: 0 hr 1 min 20 sec) 
Heartbeat CPU 3 instructions: 10000000 cycles: 4636049 heartbeat IPC: 2.15701 cumulative IPC: 2.15701 (Simulation time: 0 hr 1 min 55 sec) 
Heartbeat CPU 2 instructions: 10000000 cycles: 5371273 heartbeat IPC: 1.86176 cumulative IPC: 1.86176 (Simulation time: 0 hr 2 min 14 sec) 
Heartbeat CPU 0 instructions: 20000000 cycles: 6436066 heartbeat IPC: 3.10807 cumulative IPC: 3.10749 (Simulation time: 0 hr 2 min 40 sec) 
Heartbeat CPU 1 instructions: 10000000 cycles: 7403822 heartbeat IPC: 1.35065 cumulative IPC: 1.35065 (Simulation time: 0 hr 3 min 4 sec) 
Heartbeat CPU 3 instructions: 20000000 cycles: 9298069 heartbeat IPC: 2.14499 cumulative IPC: 2.15098 (Simulation time: 0 hr 3 min 48 sec) 
Heartbeat CPU 0 instructions: 30000003 cycles: 9653263 heartbeat IPC: 3.1083 cumulative IPC: 3.10776 (Simulation time: 0 hr 3 min 57 sec) 
Heartbeat CPU 2 instructions: 20000000 cycles: 10762097 heartbeat IPC: 1.855 cumulative IPC: 1.85837 (Simulation time: 0 hr 4 min 23 sec) 
Heartbeat CPU 0 instructions: 40000000 cycles: 12870225 heartbeat IPC: 3.10852 cumulative IPC: 3.10795 (Simulation time: 0 hr 5 min 15 sec) 
Heartbeat CPU 3 instructions: 30000001 cycles: 13992420 heartbeat IPC: 2.13022 cumulative IPC: 2.14402 (Simulation time: 0 hr 5 min 45 sec) 
Heartbeat CPU 1 instructions: 20000000 cycles: 14831195 heartbeat IPC: 1.34637 cumulative IPC: 1.34851 (Simulation time: 0 hr 6 min 3 sec) 
Heartbeat CPU 2 instructions: 30000003 cycles: 16123493 heartbeat IPC: 1.86519 cumulative IPC: 1.86064 (Simulation time: 0 hr 6 min 31 sec) 
Heartbeat CPU 0 instructions: 50000001 cycles: 16145661 heartbeat IPC: 3.05303 cumulative IPC: 3.09681 (Simulation time: 0 hr 6 min 31 sec) 
Heartbeat CPU 3 instructions: 40000000 cycles: 18645662 heartbeat IPC: 2.14904 cumulative IPC: 2.14527 (Simulation time: 0 hr 7 min 26 sec) 
Heartbeat CPU 0 instructions: 60000000 cycles: 19445490 heartbeat IPC: 3.03046 cumulative IPC: 3.08555 (Simulation time: 0 hr 7 min 47 sec) 
Heartbeat CPU 2 instructions: 40000000 cycles: 21508167 heartbeat IPC: 1.85712 cumulative IPC: 1.85976 (Simulation time: 0 hr 8 min 28 sec) 
Heartbeat CPU 1 instructions: 30000003 cycles: 22280811 heartbeat IPC: 1.34235 cumulative IPC: 1.34645 (Simulation time: 0 hr 8 min 44 sec) 
Heartbeat CPU 0 instructions: 70000000 cycles: 22745531 heartbeat IPC: 3.03027 cumulative IPC: 3.07753 (Simulation time: 0 hr 8 min 53 sec) 
Heartbeat CPU 3 instructions: 50000002 cycles: 23347048 heartbeat IPC: 2.12703 cumulative IPC: 2.1416 (Simulation time: 0 hr 9 min 5 sec) 
Heartbeat CPU 0 instructions: 80000000 cycles: 26045670 heartbeat IPC: 3.03018 cumulative IPC: 3.07153 (Simulation time: 0 hr 10 min 0 sec) 
Heartbeat CPU 2 instructions: 50000000 cycles: 26869782 heartbeat IPC: 1.86511 cumulative IPC: 1.86083 (Simulation time: 0 hr 10 min 17 sec) 
Heartbeat CPU 3 instructions: 60000000 cycles: 28115317 heartbeat IPC: 2.0972 cumulative IPC: 2.13407 (Simulation time: 0 hr 10 min 43 sec) 
Heartbeat CPU 0 instructions: 90000000 cycles: 29345517 heartbeat IPC: 3.03044 cumulative IPC: 3.06691 (Simulation time: 0 hr 11 min 8 sec) 
Heartbeat CPU 1 instructions: 40000000 cycles: 29687917 heartbeat IPC: 1.35005 cumulative IPC: 1.34735 (Simulation time: 0 hr 11 min 15 sec) 
Heartbeat CPU 2 instructions: 60000000 cycles: 32244261 heartbeat IPC: 1.86065 cumulative IPC: 1.8608 (Simulation time: 0 hr 12 min 6 sec) 
Heartbeat CPU 0 instructions: 100000000 cycles: 32645314 heartbeat IPC: 3.03049 cumulative IPC: 3.06323 (Simulation time: 0 hr 12 min 15 sec) 
Heartbeat CPU 3 instructions: 70000001 cycles: 32940592 heartbeat IPC: 2.07242 cumulative IPC: 2.12504 (Simulation time: 0 hr 12 min 20 sec) 
Heartbeat CPU 0 instructions: 110000002 cycles: 35945380 heartbeat IPC: 3.03024 cumulative IPC: 3.0602 (Simulation time: 0 hr 13 min 29 sec) 
Heartbeat CPU 1 instructions: 50000001 cycles: 37142686 heartbeat IPC: 1.34142 cumulative IPC: 1.34616 (Simulation time: 0 hr 13 min 51 sec) 
Heartbeat CPU 2 instructions: 70000001 cycles: 37668987 heartbeat IPC: 1.84341 cumulative IPC: 1.85829 (Simulation time: 0 hr 14 min 1 sec) 
Heartbeat CPU 3 instructions: 80000000 cycles: 37745384 heartbeat IPC: 2.08126 cumulative IPC: 2.11946 (Simulation time: 0 hr 14 min 3 sec) 
Heartbeat CPU 0 instructions: 120000000 cycles: 39245168 heartbeat IPC: 3.0305 cumulative IPC: 3.0577 (Simulation time: 0 hr 14 min 31 sec) 
Heartbeat CPU 3 instructions: 90000000 cycles: 42508261 heartbeat IPC: 2.09957 cumulative IPC: 2.11724 (Simulation time: 0 hr 15 min 33 sec) 
Heartbeat CPU 0 instructions: 130000003 cycles: 42544932 heartbeat IPC: 3.03052 cumulative IPC: 3.05559 (Simulation time: 0 hr 15 min 33 sec) 
Heartbeat CPU 2 instructions: 80000000 cycles: 43025711 heartbeat IPC: 1.86681 cumulative IPC: 1.85935 (Simulation time: 0 hr 15 min 42 sec) 
Heartbeat CPU 1 instructions: 60000000 cycles: 44527424 heartbeat IPC: 1.35414 cumulative IPC: 1.34748 (Simulation time: 0 hr 16 min 11 sec) 
Heartbeat CPU 0 instructions: 140000000 cycles: 45844596 heartbeat IPC: 3.03061 cumulative IPC: 3.0538 (Simulation time: 0 hr 16 min 35 sec) 
Heartbeat CPU 3 instructions: 100000000 cycles: 47354378 heartbeat IPC: 2.06351 cumulative IPC: 2.11174 (Simulation time: 0 hr 17 min 4 sec) 
Heartbeat CPU 2 instructions: 90000003 cycles: 48393709 heartbeat IPC: 1.86289 cumulative IPC: 1.85975 (Simulation time: 0 hr 17 min 23 sec) 
Heartbeat CPU 0 instructions: 150000000 cycles: 49144261 heartbeat IPC: 3.03061 cumulative IPC: 3.05224 (Simulation time: 0 hr 17 min 37 sec) 
Heartbeat CPU 1 instructions: 70000000 cycles: 51969871 heartbeat IPC: 1.34364 cumulative IPC: 1.34693 (Simulation time: 0 hr 18 min 27 sec) 
Heartbeat CPU 3 instructions: 110000001 cycles: 52293189 heartbeat IPC: 2.02478 cumulative IPC: 2.10352 (Simulation time: 0 hr 18 min 34 sec) 
Heartbeat CPU 0 instructions: 160000000 cycles: 52444739 heartbeat IPC: 3.02986 cumulative IPC: 3.05083 (Simulation time: 0 hr 18 min 37 sec) 
Heartbeat CPU 2 instructions: 100000000 cycles: 54037403 heartbeat IPC: 1.77189 cumulative IPC: 1.85057 (Simulation time: 0 hr 19 min 9 sec) 
Heartbeat CPU 0 instructions: 170000003 cycles: 55744447 heartbeat IPC: 3.03057 cumulative IPC: 3.04963 (Simulation time: 0 hr 19 min 47 sec) 
Heartbeat CPU 3 instructions: 120000000 cycles: 57307350 heartbeat IPC: 1.99435 cumulative IPC: 2.09397 (Simulation time: 0 hr 20 min 19 sec) 
Heartbeat CPU 0 instructions: 180000000 cycles: 59044176 heartbeat IPC: 3.03055 cumulative IPC: 3.04856 (Simulation time: 0 hr 20 min 54 sec) 
Heartbeat CPU 1 instructions: 80000000 cycles: 59389542 heartbeat IPC: 1.34777 cumulative IPC: 1.34704 (Simulation time: 0 hr 21 min 1 sec) 
Heartbeat CPU 2 instructions: 110000002 cycles: 59399985 heartbeat IPC: 1.86477 cumulative IPC: 1.85185 (Simulation time: 0 hr 21 min 1 sec) 
Heartbeat CPU 3 instructions: 130000001 cycles: 62233222 heartbeat IPC: 2.0301 cumulative IPC: 2.08892 (Simulation time: 0 hr 22 min 1 sec) 
Heartbeat CPU 0 instructions: 190000003 cycles: 62267122 heartbeat IPC: 3.10275 cumulative IPC: 3.05137 (Simulation time: 0 hr 22 min 2 sec) 
Heartbeat CPU 2 instructions: 120000000 cycles: 64767190 heartbeat IPC: 1.86317 cumulative IPC: 1.85279 (Simulation time: 0 hr 22 min 57 sec) 
Heartbeat CPU 0 instructions: 200000000 cycles: 65400375 heartbeat IPC: 3.19157 cumulative IPC: 3.05809 (Simulation time: 0 hr 23 min 12 sec) 
Heartbeat CPU 1 instructions: 90000002 cycles: 66837481 heartbeat IPC: 1.34265 cumulative IPC: 1.34655 (Simulation time: 0 hr 23 min 44 sec) 
Heartbeat CPU 3 instructions: 140000000 cycles: 67072215 heartbeat IPC: 2.06655 cumulative IPC: 2.0873 (Simulation time: 0 hr 23 min 49 sec) 
Heartbeat CPU 0 instructions: 210000000 cycles: 68533329 heartbeat IPC: 3.19188 cumulative IPC: 0.145914 (Simulation time: 0 hr 24 min 18 sec) 
Heartbeat CPU 2 instructions: 130000000 cycles: 70346116 heartbeat IPC: 1.79246 cumulative IPC: 1.84801 (Simulation time: 0 hr 24 min 55 sec) 
Heartbeat CPU 0 instructions: 220000000 cycles: 71664834 heartbeat IPC: 3.19335 cumulative IPC: 0.279077 (Simulation time: 0 hr 25 min 22 sec) 
Heartbeat CPU 3 instructions: 150000000 cycles: 71908613 heartbeat IPC: 2.06765 cumulative IPC: 2.08598 (Simulation time: 0 hr 25 min 27 sec) 
Heartbeat CPU 1 instructions: 100000000 cycles: 74266935 heartbeat IPC: 1.34599 cumulative IPC: 1.34649 (Simulation time: 0 hr 26 min 16 sec) 
Heartbeat CPU 0 instructions: 230000001 cycles: 74796077 heartbeat IPC: 3.19362 cumulative IPC: 0.401091 (Simulation time: 0 hr 26 min 27 sec) 
Heartbeat CPU 2 instructions: 140000000 cycles: 75730590 heartbeat IPC: 1.85719 cumulative IPC: 1.84866 (Simulation time: 0 hr 26 min 46 sec) 
Heartbeat CPU 3 instructions: 160000000 cycles: 76739795 heartbeat IPC: 2.06989 cumulative IPC: 2.08497 (Simulation time: 0 hr 27 min 7 sec) 
Heartbeat CPU 0 instructions: 240000000 cycles: 77926492 heartbeat IPC: 3.19446 cumulative IPC: 0.513304 (Simulation time: 0 hr 27 min 32 sec) 
Heartbeat CPU 0 instructions: 250000001 cycles: 81057763 heartbeat IPC: 3.19359 cumulative IPC: 0.616844 (Simulation time: 0 hr 28 min 36 sec) 
Heartbeat CPU 2 instructions: 150000002 cycles: 81120198 heartbeat IPC: 1.85542 cumulative IPC: 1.84911 (Simulation time: 0 hr 28 min 37 sec) 
Heartbeat CPU 3 instructions: 170000003 cycles: 81584075 heartbeat IPC: 2.06429 cumulative IPC: 2.08374 (Simulation time: 0 hr 28 min 46 sec) 
Heartbeat CPU 1 instructions: 110000002 cycles: 81697810 heartbeat IPC: 1.34574 cumulative IPC: 1.34643 (Simulation time: 0 hr 28 min 49 sec) 
Heartbeat CPU 0 instructions: 260000000 cycles: 84189109 heartbeat IPC: 3.19351 cumulative IPC: 0.712681 (Simulation time: 0 hr 29 min 37 sec) 
Heartbeat CPU 3 instructions: 180000000 cycles: 86394704 heartbeat IPC: 2.07873 cumulative IPC: 2.08346 (Simulation time: 0 hr 30 min 20 sec) 
Heartbeat CPU 2 instructions: 160000000 cycles: 86533822 heartbeat IPC: 1.84719 cumulative IPC: 1.84899 (Simulation time: 0 hr 30 min 23 sec) 
Heartbeat CPU 0 instructions: 270000001 cycles: 87323030 heartbeat IPC: 3.19089 cumulative IPC: 0.801621 (Simulation time: 0 hr 30 min 40 sec) 
Heartbeat CPU 1 instructions: 120000000 cycles: 89125918 heartbeat IPC: 1.34624 cumulative IPC: 1.34641 (Simulation time: 0 hr 31 min 17 sec) 
Heartbeat CPU 0 instructions: 280000000 cycles: 90455516 heartbeat IPC: 3.19235 cumulative IPC: 0.884413 (Simulation time: 0 hr 31 min 44 sec) 
Heartbeat CPU 3 instructions: 190000000 cycles: 91161814 heartbeat IPC: 2.09771 cumulative IPC: 2.08421 (Simulation time: 0 hr 31 min 59 sec) 
Heartbeat CPU 2 instructions: 170000003 cycles: 91896201 heartbeat IPC: 1.86484 cumulative IPC: 1.84991 (Simulation time: 0 hr 32 min 14 sec) 
Heartbeat CPU 0 instructions: 290000001 cycles: 93589045 heartbeat IPC: 3.19129 cumulative IPC: 0.961651 (Simulation time: 0 hr 32 min 48 sec) 
Heartbeat CPU 3 instructions: 200000000 cycles: 95939307 heartbeat IPC: 2.09315 cumulative IPC: 2.08465 (Simulation time: 0 hr 33 min 35 sec) 
Heartbeat CPU 1 instructions: 130000000 cycles: 96520701 heartbeat IPC: 1.3523 cumulative IPC: 1.34686 (Simulation time: 0 hr 33 min 46 sec) 
Heartbeat CPU 0 instructions: 300000000 cycles: 96722554 heartbeat IPC: 3.19131 cumulative IPC: 1.03389 (Simulation time: 0 hr 33 min 51 sec) 
Heartbeat CPU 2 instructions: 180000000 cycles: 97260365 heartbeat IPC: 1.86422 cumulative IPC: 1.8507 (Simulation time: 0 hr 34 min 3 sec) 
Heartbeat CPU 0 instructions: 310000003 cycles: 99857482 heartbeat IPC: 3.18987 cumulative IPC: 1.10157 (Simulation time: 0 hr 34 min 56 sec) 
Heartbeat CPU 3 instructions: 210000000 cycles: 100735952 heartbeat IPC: 2.08479 cumulative IPC: 0.0992694 (Simulation time: 0 hr 35 min 14 sec) 
Heartbeat CPU 0 instructions: 320000000 cycles: 102992266 heartbeat IPC: 3.19001 cumulative IPC: 1.16514 (Simulation time: 0 hr 36 min 1 sec) 
Heartbeat CPU 2 instructions: 190000001 cycles: 102995131 heartbeat IPC: 1.74375 cumulative IPC: 1.84475 (Simulation time: 0 hr 36 min 1 sec) 
Heartbeat CPU 1 instructions: 140000000 cycles: 103946721 heartbeat IPC: 1.34662 cumulative IPC: 1.34684 (Simulation time: 0 hr 36 min 28 sec) 
Heartbeat CPU 3 instructions: 220000000 cycles: 105554576 heartbeat IPC: 2.07528 cumulative IPC: 0.189475 (Simulation time: 0 hr 37 min 6 sec) 
Heartbeat CPU 0 instructions: 330000003 cycles: 106126811 heartbeat IPC: 3.19026 cumulative IPC: 1.22495 (Simulation time: 0 hr 37 min 30 sec) 
Heartbeat CPU 2 instructions: 200000000 cycles: 108504607 heartbeat IPC: 1.81505 cumulative IPC: 1.84324 (Simulation time: 0 hr 38 min 27 sec) 
Heartbeat CPU 0 instructions: 340000000 cycles: 109260033 heartbeat IPC: 3.1916 cumulative IPC: 1.28135 (Simulation time: 0 hr 38 min 46 sec) 
Heartbeat CPU 3 instructions: 230000003 cycles: 110316729 heartbeat IPC: 2.09989 cumulative IPC: 0.271944 (Simulation time: 0 hr 39 min 11 sec) 
Heartbeat CPU 1 instructions: 150000001 cycles: 111387277 heartbeat IPC: 1.34399 cumulative IPC: 1.34665 (Simulation time: 0 hr 39 min 35 sec) 
Heartbeat CPU 0 instructions: 350000002 cycles: 112404976 heartbeat IPC: 3.17971 cumulative IPC: 1.33446 (Simulation time: 0 hr 39 min 58 sec) 
Heartbeat CPU 2 instructions: 210000003 cycles: 113870837 heartbeat IPC: 1.86351 cumulative IPC: 0.0878188 (Simulation time: 0 hr 40 min 32 sec) 
Heartbeat CPU 3 instructions: 240000000 cycles: 115112788 heartbeat IPC: 2.08504 cumulative IPC: 0.347485 (Simulation time: 0 hr 41 min 3 sec) 
Heartbeat CPU 0 instructions: 360000000 cycles: 115681555 heartbeat IPC: 3.05196 cumulative IPC: 1.38311 (Simulation time: 0 hr 41 min 17 sec) 
Heartbeat CPU 1 instructions: 160000000 cycles: 118822459 heartbeat IPC: 1.34496 cumulative IPC: 1.34655 (Simulation time: 0 hr 42 min 42 sec) 
Heartbeat CPU 0 instructions: 370000003 cycles: 118957532 heartbeat IPC: 3.05253 cumulative IPC: 1.42908 (Simulation time: 0 hr 42 min 45 sec) 
Heartbeat CPU 2 instructions: 220000000 cycles: 119254929 heartbeat IPC: 1.85732 cumulative IPC: 0.167708 (Simulation time: 0 hr 42 min 52 sec) 
Heartbeat CPU 3 instructions: 250000003 cycles: 119880281 heartbeat IPC: 2.09754 cumulative IPC: 0.417083 (Simulation time: 0 hr 43 min 7 sec) 
Heartbeat CPU 0 instructions: 380000000 cycles: 122233865 heartbeat IPC: 3.05219 cumulative IPC: 1.47259 (Simulation time: 0 hr 44 min 5 sec) 
Heartbeat CPU 2 instructions: 230000000 cycles: 124616747 heartbeat IPC: 1.86504 cumulative IPC: 0.240738 (Simulation time: 0 hr 45 min 0 sec) 
Heartbeat CPU 3 instructions: 260000000 cycles: 124657611 heartbeat IPC: 2.09322 cumulative IPC: 0.481318 (Simulation time: 0 hr 45 min 1 sec) 
Heartbeat CPU 0 instructions: 390000001 cycles: 125510428 heartbeat IPC: 3.05198 cumulative IPC: 1.51382 (Simulation time: 0 hr 45 min 21 sec) 
Heartbeat CPU 1 instructions: 170000003 cycles: 126230166 heartbeat IPC: 1.34995 cumulative IPC: 1.34675 (Simulation time: 0 hr 45 min 38 sec) 
Heartbeat CPU 0 instructions: 400000000 cycles: 128786126 heartbeat IPC: 3.05278 cumulative IPC: 1.55296 (Simulation time: 0 hr 46 min 37 sec) 
Heartbeat CPU 3 instructions: 270000002 cycles: 129475278 heartbeat IPC: 2.07569 cumulative IPC: 0.540644 (Simulation time: 0 hr 46 min 53 sec) 
Heartbeat CPU 2 instructions: 240000000 cycles: 129975847 heartbeat IPC: 1.86598 cumulative IPC: 0.307749 (Simulation time: 0 hr 47 min 4 sec) 
Heartbeat CPU 0 instructions: 410000002 cycles: 132063126 heartbeat IPC: 3.05157 cumulative IPC: 1.59015 (Simulation time: 0 hr 47 min 51 sec) 
Heartbeat CPU 1 instructions: 180000000 cycles: 133656752 heartbeat IPC: 1.34651 cumulative IPC: 1.34673 (Simulation time: 0 hr 48 min 27 sec) 
Heartbeat CPU 3 instructions: 280000000 cycles: 134293891 heartbeat IPC: 2.07529 cumulative IPC: 0.595708 (Simulation time: 0 hr 48 min 42 sec) 
Heartbeat CPU 0 instructions: 420000000 cycles: 135339649 heartbeat IPC: 3.05202 cumulative IPC: 1.62554 (Simulation time: 0 hr 49 min 6 sec) 
Heartbeat CPU 2 instructions: 250000001 cycles: 135409649 heartbeat IPC: 1.84033 cumulative IPC: 0.36925 (Simulation time: 0 hr 49 min 7 sec) 
Heartbeat CPU 0 instructions: 430000002 cycles: 138616247 heartbeat IPC: 3.05195 cumulative IPC: 1.65926 (Simulation time: 0 hr 50 min 16 sec) 
Heartbeat CPU 3 instructions: 290000003 cycles: 139131361 heartbeat IPC: 2.0672 cumulative IPC: 0.646871 (Simulation time: 0 hr 50 min 27 sec) 
Heartbeat CPU 2 instructions: 260000000 cycles: 140770124 heartbeat IPC: 1.86551 cumulative IPC: 0.426227 (Simulation time: 0 hr 51 min 2 sec) 
Heartbeat CPU 1 instructions: 190000003 cycles: 141080053 heartbeat IPC: 1.34711 cumulative IPC: 1.34675 (Simulation time: 0 hr 51 min 9 sec) 
Heartbeat CPU 0 instructions: 440000000 cycles: 141893009 heartbeat IPC: 3.05179 cumulative IPC: 1.69142 (Simulation time: 0 hr 51 min 26 sec) 
Heartbeat CPU 3 instructions: 300000000 cycles: 144029286 heartbeat IPC: 2.04168 cumulative IPC: 0.694303 (Simulation time: 0 hr 52 min 12 sec) 
Heartbeat CPU 0 instructions: 450000003 cycles: 145171211 heartbeat IPC: 3.05045 cumulative IPC: 1.7221 (Simulation time: 0 hr 52 min 35 sec) 
Heartbeat CPU 2 instructions: 270000000 cycles: 146164238 heartbeat IPC: 1.85387 cumulative IPC: 0.478913 (Simulation time: 0 hr 52 min 56 sec) 
Heartbeat CPU 0 instructions: 460000000 cycles: 148448140 heartbeat IPC: 3.05164 cumulative IPC: 1.75145 (Simulation time: 0 hr 53 min 45 sec) 
Heartbeat CPU 1 instructions: 200000000 cycles: 148519888 heartbeat IPC: 1.34412 cumulative IPC: 1.34662 (Simulation time: 0 hr 53 min 47 sec) 

Warmup complete CPU 0 instructions: 460218662 cycles: 148519889 (Simulation time: 0 hr 53 min 47 sec) 
Warmup complete CPU 1 instructions: 200000003 cycles: 148519889 (Simulation time: 0 hr 53 min 47 sec) 
Warmup complete CPU 2 instructions: 274397160 cycles: 148519888 (Simulation time: 0 hr 53 min 47 sec) 
Warmup complete CPU 3 instructions: 309262762 cycles: 148519888 (Simulation time: 0 hr 53 min 47 sec) 

Heartbeat CPU 3 instructions: 310000002 cycles: 149824176 heartbeat IPC: 1.72566 cumulative IPC: 0.565243 (Simulation time: 0 hr 53 min 58 sec) 
Heartbeat CPU 0 instructions: 470000001 cycles: 157810670 heartbeat IPC: 1.06809 cumulative IPC: 1.0528 (Simulation time: 0 hr 55 min 9 sec) 
Heartbeat CPU 2 instructions: 280000000 cycles: 161693797 heartbeat IPC: 0.643933 cumulative IPC: 0.425298 (Simulation time: 0 hr 55 min 44 sec) 
Heartbeat CPU 3 instructions: 320000000 cycles: 165237707 heartbeat IPC: 0.64878 cumulative IPC: 0.642263 (Simulation time: 0 hr 56 min 15 sec) 
Heartbeat CPU 0 instructions: 480000000 cycles: 167288735 heartbeat IPC: 1.05507 cumulative IPC: 1.05395 (Simulation time: 0 hr 56 min 33 sec) 
Heartbeat CPU 0 instructions: 490000001 cycles: 176806883 heartbeat IPC: 1.05062 cumulative IPC: 1.05283 (Simulation time: 0 hr 57 min 57 sec) 
Heartbeat CPU 3 instructions: 330000003 cycles: 180605979 heartbeat IPC: 0.650691 cumulative IPC: 0.6463 (Simulation time: 0 hr 58 min 31 sec) 
Heartbeat CPU 2 instructions: 290000001 cycles: 185378717 heartbeat IPC: 0.42221 cumulative IPC: 0.423314 (Simulation time: 0 hr 59 min 13 sec) 
Heartbeat CPU 0 instructions: 500000000 cycles: 186278521 heartbeat IPC: 1.05578 cumulative IPC: 1.05357 (Simulation time: 0 hr 59 min 21 sec) 
Heartbeat CPU 0 instructions: 510000000 cycles: 195814852 heartbeat IPC: 1.04862 cumulative IPC: 1.05257 (Simulation time: 1 hr 0 min 45 sec) 
Heartbeat CPU 3 instructions: 340000000 cycles: 196064508 heartbeat IPC: 0.646892 cumulative IPC: 0.646492 (Simulation time: 1 hr 0 min 47 sec) 
Heartbeat CPU 1 instructions: 210000003 cycles: 198588061 heartbeat IPC: 0.199728 cumulative IPC: 0.199728 (Simulation time: 1 hr 1 min 9 sec) 
Heartbeat CPU 0 instructions: 520000000 cycles: 205341896 heartbeat IPC: 1.04964 cumulative IPC: 1.05208 (Simulation time: 1 hr 2 min 10 sec) 
Heartbeat CPU 2 instructions: 300000000 cycles: 209503104 heartbeat IPC: 0.414518 cumulative IPC: 0.419834 (Simulation time: 1 hr 2 min 46 sec) 
Heartbeat CPU 3 instructions: 350000003 cycles: 211377079 heartbeat IPC: 0.653058 cumulative IPC: 0.648092 (Simulation time: 1 hr 3 min 3 sec) 
Heartbeat CPU 0 instructions: 530000000 cycles: 214827481 heartbeat IPC: 1.05423 cumulative IPC: 1.05239 (Simulation time: 1 hr 3 min 33 sec) 
Heartbeat CPU 0 instructions: 540000000 cycles: 224311574 heartbeat IPC: 1.0544 cumulative IPC: 1.05264 (Simulation time: 1 hr 4 min 57 sec) 
Heartbeat CPU 3 instructions: 360000000 cycles: 226681502 heartbeat IPC: 0.653406 cumulative IPC: 0.649132 (Simulation time: 1 hr 5 min 18 sec) 
Heartbeat CPU 2 instructions: 310000000 cycles: 233077506 heartbeat IPC: 0.424189 cumulative IPC: 0.421048 (Simulation time: 1 hr 6 min 15 sec) 
Heartbeat CPU 0 instructions: 550000003 cycles: 233752973 heartbeat IPC: 1.05917 cumulative IPC: 1.05336 (Simulation time: 1 hr 6 min 21 sec) 
Heartbeat CPU 3 instructions: 370000001 cycles: 242154154 heartbeat IPC: 0.646302 cumulative IPC: 0.648665 (Simulation time: 1 hr 7 min 35 sec) 
Heartbeat CPU 0 instructions: 560000000 cycles: 243202050 heartbeat IPC: 1.0583 cumulative IPC: 1.05386 (Simulation time: 1 hr 7 min 44 sec) 
Heartbeat CPU 1 instructions: 220000000 cycles: 248009283 heartbeat IPC: 0.202342 cumulative IPC: 0.201026 (Simulation time: 1 hr 8 min 26 sec) 
Heartbeat CPU 0 instructions: 570000000 cycles: 252536720 heartbeat IPC: 1.07128 cumulative IPC: 1.05542 (Simulation time: 1 hr 9 min 7 sec) 
Heartbeat CPU 2 instructions: 320000000 cycles: 256871602 heartbeat IPC: 0.420272 cumulative IPC: 0.420878 (Simulation time: 1 hr 9 min 50 sec) 
Heartbeat CPU 3 instructions: 380000000 cycles: 257710640 heartbeat IPC: 0.642819 cumulative IPC: 0.647832 (Simulation time: 1 hr 9 min 57 sec) 
Heartbeat CPU 0 instructions: 580000000 cycles: 261270576 heartbeat IPC: 1.14497 cumulative IPC: 1.06236 (Simulation time: 1 hr 10 min 32 sec) 
Heartbeat CPU 0 instructions: 590000001 cycles: 269833342 heartbeat IPC: 1.16785 cumulative IPC: 1.0698 (Simulation time: 1 hr 11 min 57 sec) 
Heartbeat CPU 3 instructions: 390000000 cycles: 272931033 heartbeat IPC: 0.657013 cumulative IPC: 0.648955 (Simulation time: 1 hr 12 min 27 sec) 
Heartbeat CPU 0 instructions: 600000000 cycles: 278432660 heartbeat IPC: 1.16288 cumulative IPC: 1.07596 (Simulation time: 1 hr 13 min 21 sec) 
Heartbeat CPU 2 instructions: 330000000 cycles: 280571375 heartbeat IPC: 0.421945 cumulative IPC: 0.421069 (Simulation time: 1 hr 13 min 43 sec) 
Heartbeat CPU 0 instructions: 610000000 cycles: 287027788 heartbeat IPC: 1.16345 cumulative IPC: 1.08139 (Simulation time: 1 hr 14 min 46 sec) 
Heartbeat CPU 3 instructions: 400000000 cycles: 288237825 heartbeat IPC: 0.653305 cumulative IPC: 0.649432 (Simulation time: 1 hr 14 min 58 sec) 
Heartbeat CPU 1 instructions: 230000001 cycles: 292963311 heartbeat IPC: 0.222449 cumulative IPC: 0.207694 (Simulation time: 1 hr 15 min 44 sec) 
Heartbeat CPU 0 instructions: 620000000 cycles: 295616352 heartbeat IPC: 1.16434 cumulative IPC: 1.08624 (Simulation time: 1 hr 16 min 11 sec) 
Heartbeat CPU 3 instructions: 410000001 cycles: 303596201 heartbeat IPC: 0.651111 cumulative IPC: 0.649598 (Simulation time: 1 hr 17 min 29 sec) 
Heartbeat CPU 2 instructions: 340000000 cycles: 303926464 heartbeat IPC: 0.428172 cumulative IPC: 0.422137 (Simulation time: 1 hr 17 min 32 sec) 
Heartbeat CPU 0 instructions: 630000000 cycles: 304207033 heartbeat IPC: 1.16405 cumulative IPC: 1.09053 (Simulation time: 1 hr 17 min 35 sec) 
Heartbeat CPU 0 instructions: 640000000 cycles: 312776680 heartbeat IPC: 1.16691 cumulative IPC: 1.09451 (Simulation time: 1 hr 18 min 59 sec) 
Heartbeat CPU 3 instructions: 420000000 cycles: 318761612 heartbeat IPC: 0.659395 cumulative IPC: 0.650471 (Simulation time: 1 hr 19 min 59 sec) 
Heartbeat CPU 0 instructions: 650000002 cycles: 321376077 heartbeat IPC: 1.16287 cumulative IPC: 1.09791 (Simulation time: 1 hr 20 min 24 sec) 
Heartbeat CPU 2 instructions: 350000003 cycles: 327514028 heartbeat IPC: 0.423952 cumulative IPC: 0.422376 (Simulation time: 1 hr 21 min 25 sec) 
Heartbeat CPU 0 instructions: 660000000 cycles: 329952372 heartbeat IPC: 1.166 cumulative IPC: 1.10113 (Simulation time: 1 hr 21 min 49 sec) 
Heartbeat CPU 3 instructions: 430000001 cycles: 333961941 heartbeat IPC: 0.657881 cumulative IPC: 0.651078 (Simulation time: 1 hr 22 min 28 sec) 
Heartbeat CPU 1 instructions: 240000000 cycles: 337324036 heartbeat IPC: 0.225425 cumulative IPC: 0.21186 (Simulation time: 1 hr 23 min 1 sec) 
Heartbeat CPU 0 instructions: 670000001 cycles: 338537012 heartbeat IPC: 1.16487 cumulative IPC: 1.10401 (Simulation time: 1 hr 23 min 13 sec) 
Heartbeat CPU 0 instructions: 680000000 cycles: 347127602 heartbeat IPC: 1.16406 cumulative IPC: 1.10661 (Simulation time: 1 hr 24 min 37 sec) 
Heartbeat CPU 3 instructions: 440000000 cycles: 349269581 heartbeat IPC: 0.653269 cumulative IPC: 0.651245 (Simulation time: 1 hr 24 min 58 sec) 
Heartbeat CPU 2 instructions: 360000000 cycles: 351205995 heartbeat IPC: 0.422084 cumulative IPC: 0.422342 (Simulation time: 1 hr 25 min 18 sec) 
Heartbeat CPU 0 instructions: 690000003 cycles: 355709873 heartbeat IPC: 1.16519 cumulative IPC: 1.10904 (Simulation time: 1 hr 26 min 3 sec) 
Heartbeat CPU 3 instructions: 450000002 cycles: 364184126 heartbeat IPC: 0.670487 cumulative IPC: 0.652576 (Simulation time: 1 hr 27 min 27 sec) 
Heartbeat CPU 0 instructions: 700000000 cycles: 364306044 heartbeat IPC: 1.16331 cumulative IPC: 1.1112 (Simulation time: 1 hr 27 min 28 sec) 
Heartbeat CPU 0 instructions: 710000000 cycles: 372903506 heartbeat IPC: 1.16313 cumulative IPC: 1.11319 (Simulation time: 1 hr 28 min 54 sec) 
Heartbeat CPU 2 instructions: 370000003 cycles: 374565006 heartbeat IPC: 0.4281 cumulative IPC: 0.422937 (Simulation time: 1 hr 29 min 10 sec) 
Heartbeat CPU 3 instructions: 460000000 cycles: 378999968 heartbeat IPC: 0.674953 cumulative IPC: 0.654014 (Simulation time: 1 hr 29 min 54 sec) 
Heartbeat CPU 1 instructions: 250000001 cycles: 380602504 heartbeat IPC: 0.231062 cumulative IPC: 0.215441 (Simulation time: 1 hr 30 min 10 sec) 
Heartbeat CPU 0 instructions: 720000000 cycles: 381482615 heartbeat IPC: 1.16562 cumulative IPC: 1.11512 (Simulation time: 1 hr 30 min 18 sec) 
Heartbeat CPU 0 instructions: 730000003 cycles: 390068501 heartbeat IPC: 1.1647 cumulative IPC: 1.11688 (Simulation time: 1 hr 31 min 39 sec) 
Heartbeat CPU 3 instructions: 470000002 cycles: 393923480 heartbeat IPC: 0.670084 cumulative IPC: 0.654991 (Simulation time: 1 hr 32 min 15 sec) 
Heartbeat CPU 2 instructions: 380000000 cycles: 398180699 heartbeat IPC: 0.423447 cumulative IPC: 0.422985 (Simulation time: 1 hr 32 min 55 sec) 
Heartbeat CPU 0 instructions: 740000000 cycles: 398649555 heartbeat IPC: 1.16536 cumulative IPC: 1.11855 (Simulation time: 1 hr 32 min 59 sec) 
Heartbeat CPU 0 instructions: 750000000 cycles: 407209604 heartbeat IPC: 1.16822 cumulative IPC: 1.12019 (Simulation time: 1 hr 34 min 20 sec) 
Heartbeat CPU 3 instructions: 480000000 cycles: 408846272 heartbeat IPC: 0.670116 cumulative IPC: 0.655858 (Simulation time: 1 hr 34 min 35 sec) 
Heartbeat CPU 0 instructions: 760000000 cycles: 415816590 heartbeat IPC: 1.16185 cumulative IPC: 1.12153 (Simulation time: 1 hr 35 min 39 sec) 
Heartbeat CPU 2 instructions: 390000000 cycles: 421390166 heartbeat IPC: 0.430859 cumulative IPC: 0.423655 (Simulation time: 1 hr 36 min 32 sec) 
Heartbeat CPU 3 instructions: 490000000 cycles: 423507403 heartbeat IPC: 0.682076 cumulative IPC: 0.657256 (Simulation time: 1 hr 36 min 52 sec) 
Heartbeat CPU 1 instructions: 260000000 cycles: 424196586 heartbeat IPC: 0.229389 cumulative IPC: 0.217646 (Simulation time: 1 hr 36 min 58 sec) 
Heartbeat CPU 0 instructions: 770000000 cycles: 424417416 heartbeat IPC: 1.16268 cumulative IPC: 1.12281 (Simulation time: 1 hr 37 min 0 sec) 
Heartbeat CPU 0 instructions: 780000000 cycles: 433005182 heartbeat IPC: 1.16445 cumulative IPC: 1.12407 (Simulation time: 1 hr 38 min 21 sec) 
Heartbeat CPU 3 instructions: 500000000 cycles: 438358331 heartbeat IPC: 0.673359 cumulative IPC: 0.658081 (Simulation time: 1 hr 39 min 12 sec) 
Heartbeat CPU 0 instructions: 790000001 cycles: 441596113 heartbeat IPC: 1.16402 cumulative IPC: 1.12524 (Simulation time: 1 hr 39 min 42 sec) 
Heartbeat CPU 2 instructions: 400000000 cycles: 444733051 heartbeat IPC: 0.428396 cumulative IPC: 0.424029 (Simulation time: 1 hr 40 min 12 sec) 
Heartbeat CPU 0 instructions: 800000000 cycles: 450205310 heartbeat IPC: 1.16155 cumulative IPC: 1.12628 (Simulation time: 1 hr 41 min 3 sec) 
Heartbeat CPU 3 instructions: 510000002 cycles: 453133930 heartbeat IPC: 0.676792 cumulative IPC: 0.658989 (Simulation time: 1 hr 41 min 31 sec) 
Heartbeat CPU 0 instructions: 810000000 cycles: 458775609 heartbeat IPC: 1.16682 cumulative IPC: 1.1274 (Simulation time: 1 hr 42 min 24 sec) 
Heartbeat CPU 0 instructions: 820000000 cycles: 467399795 heartbeat IPC: 1.15953 cumulative IPC: 1.12827 (Simulation time: 1 hr 43 min 45 sec) 
Heartbeat CPU 3 instructions: 520000000 cycles: 467694936 heartbeat IPC: 0.686766 cumulative IPC: 0.660256 (Simulation time: 1 hr 43 min 48 sec) 
Heartbeat CPU 2 instructions: 410000001 cycles: 468274416 heartbeat IPC: 0.424784 cumulative IPC: 0.424084 (Simulation time: 1 hr 43 min 53 sec) 
Heartbeat CPU 1 instructions: 270000002 cycles: 468361638 heartbeat IPC: 0.226423 cumulative IPC: 0.218858 (Simulation time: 1 hr 43 min 54 sec) 
Heartbeat CPU 0 instructions: 830000001 cycles: 476003514 heartbeat IPC: 1.16229 cumulative IPC: 1.12916 (Simulation time: 1 hr 45 min 5 sec) 
Heartbeat CPU 3 instructions: 530000000 cycles: 482344063 heartbeat IPC: 0.682635 cumulative IPC: 0.661238 (Simulation time: 1 hr 46 min 3 sec) 
Heartbeat CPU 0 instructions: 840000000 cycles: 484529282 heartbeat IPC: 1.17291 cumulative IPC: 1.13027 (Simulation time: 1 hr 46 min 21 sec) 
Heartbeat CPU 0 instructions: 850000000 cycles: 493120198 heartbeat IPC: 1.16402 cumulative IPC: 1.13111 (Simulation time: 1 hr 47 min 41 sec) 
Heartbeat CPU 2 instructions: 420000000 cycles: 493527507 heartbeat IPC: 0.395991 cumulative IPC: 0.422028 (Simulation time: 1 hr 47 min 45 sec) 
Heartbeat CPU 3 instructions: 540000000 cycles: 497236074 heartbeat IPC: 0.671501 cumulative IPC: 0.661676 (Simulation time: 1 hr 48 min 20 sec) 
Heartbeat CPU 0 instructions: 860000000 cycles: 501721751 heartbeat IPC: 1.16258 cumulative IPC: 1.13188 (Simulation time: 1 hr 49 min 2 sec) 
Heartbeat CPU 0 instructions: 870000000 cycles: 510313831 heartbeat IPC: 1.16386 cumulative IPC: 1.13264 (Simulation time: 1 hr 50 min 23 sec) 
Heartbeat CPU 3 instructions: 550000002 cycles: 512080812 heartbeat IPC: 0.67364 cumulative IPC: 0.662165 (Simulation time: 1 hr 50 min 40 sec) 
Heartbeat CPU 1 instructions: 280000000 cycles: 513150328 heartbeat IPC: 0.223271 cumulative IPC: 0.2194 (Simulation time: 1 hr 50 min 50 sec) 
Heartbeat CPU 2 instructions: 430000000 cycles: 516889755 heartbeat IPC: 0.428041 cumulative IPC: 0.422409 (Simulation time: 1 hr 51 min 25 sec) 
Heartbeat CPU 0 instructions: 880000000 cycles: 518902697 heartbeat IPC: 1.1643 cumulative IPC: 1.13337 (Simulation time: 1 hr 51 min 44 sec) 
Heartbeat CPU 3 instructions: 560000000 cycles: 526967523 heartbeat IPC: 0.67174 cumulative IPC: 0.662541 (Simulation time: 1 hr 53 min 0 sec) 
Heartbeat CPU 0 instructions: 890000003 cycles: 527466711 heartbeat IPC: 1.16768 cumulative IPC: 1.13415 (Simulation time: 1 hr 53 min 5 sec) 
Heartbeat CPU 0 instructions: 900000000 cycles: 536045291 heartbeat IPC: 1.16569 cumulative IPC: 1.13485 (Simulation time: 1 hr 54 min 26 sec) 
Heartbeat CPU 2 instructions: 440000000 cycles: 540486659 heartbeat IPC: 0.423784 cumulative IPC: 0.422492 (Simulation time: 1 hr 55 min 7 sec) 
Heartbeat CPU 3 instructions: 570000001 cycles: 542084029 heartbeat IPC: 0.661529 cumulative IPC: 0.662503 (Simulation time: 1 hr 55 min 22 sec) 
Heartbeat CPU 0 instructions: 910000001 cycles: 544637976 heartbeat IPC: 1.16378 cumulative IPC: 1.13547 (Simulation time: 1 hr 55 min 47 sec) 
Heartbeat CPU 0 instructions: 920000000 cycles: 553224210 heartbeat IPC: 1.16465 cumulative IPC: 1.13609 (Simulation time: 1 hr 57 min 8 sec) 
Heartbeat CPU 3 instructions: 580000000 cycles: 556957751 heartbeat IPC: 0.672327 cumulative IPC: 0.66286 (Simulation time: 1 hr 57 min 42 sec) 
Heartbeat CPU 1 instructions: 290000001 cycles: 557406050 heartbeat IPC: 0.22596 cumulative IPC: 0.22011 (Simulation time: 1 hr 57 min 46 sec) 
Heartbeat CPU 0 instructions: 930000002 cycles: 561846376 heartbeat IPC: 1.1598 cumulative IPC: 1.13659 (Simulation time: 1 hr 58 min 29 sec) 
Heartbeat CPU 2 instructions: 450000001 cycles: 564188904 heartbeat IPC: 0.421901 cumulative IPC: 0.422458 (Simulation time: 1 hr 58 min 51 sec) 
Heartbeat CPU 0 instructions: 940000000 cycles: 570440703 heartbeat IPC: 1.16356 cumulative IPC: 1.13714 (Simulation time: 1 hr 59 min 50 sec) 
Heartbeat CPU 3 instructions: 590000000 cycles: 571857328 heartbeat IPC: 0.67116 cumulative IPC: 0.663152 (Simulation time: 2 hr 0 min 4 sec) 
Heartbeat CPU 0 instructions: 950000001 cycles: 579053703 heartbeat IPC: 1.16104 cumulative IPC: 1.13761 (Simulation time: 2 hr 1 min 11 sec) 
Heartbeat CPU 3 instructions: 600000000 cycles: 586877410 heartbeat IPC: 0.665775 cumulative IPC: 0.663242 (Simulation time: 2 hr 2 min 25 sec) 
Heartbeat CPU 2 instructions: 460000000 cycles: 587544582 heartbeat IPC: 0.428161 cumulative IPC: 0.422762 (Simulation time: 2 hr 2 min 31 sec) 
Heartbeat CPU 0 instructions: 960000000 cycles: 587647771 heartbeat IPC: 1.16359 cumulative IPC: 1.13812 (Simulation time: 2 hr 2 min 32 sec) 
Heartbeat CPU 0 instructions: 970000000 cycles: 596247416 heartbeat IPC: 1.16284 cumulative IPC: 1.1386 (Simulation time: 2 hr 3 min 53 sec) 
Heartbeat CPU 1 instructions: 300000000 cycles: 600932340 heartbeat IPC: 0.229746 cumulative IPC: 0.221037 (Simulation time: 2 hr 4 min 38 sec) 
Heartbeat CPU 3 instructions: 610000000 cycles: 601643560 heartbeat IPC: 0.677225 cumulative IPC: 0.663698 (Simulation time: 2 hr 4 min 45 sec) 
Heartbeat CPU 0 instructions: 980000000 cycles: 604850635 heartbeat IPC: 1.16236 cumulative IPC: 1.13905 (Simulation time: 2 hr 5 min 17 sec) 
Heartbeat CPU 2 instructions: 470000000 cycles: 611266427 heartbeat IPC: 0.421552 cumulative IPC: 0.4227 (Simulation time: 2 hr 6 min 20 sec) 
Heartbeat CPU 0 instructions: 990000002 cycles: 613409719 heartbeat IPC: 1.16835 cumulative IPC: 1.13958 (Simulation time: 2 hr 6 min 39 sec) 
Heartbeat CPU 3 instructions: 620000000 cycles: 616390201 heartbeat IPC: 0.678121 cumulative IPC: 0.664153 (Simulation time: 2 hr 7 min 7 sec) 
Heartbeat CPU 0 instructions: 1000000000 cycles: 621989000 heartbeat IPC: 1.1656 cumulative IPC: 1.14006 (Simulation time: 2 hr 8 min 3 sec) 
Heartbeat CPU 0 instructions: 1010000003 cycles: 630586960 heartbeat IPC: 1.16307 cumulative IPC: 1.14047 (Simulation time: 2 hr 9 min 30 sec) 
Heartbeat CPU 3 instructions: 630000003 cycles: 631055916 heartbeat IPC: 0.681863 cumulative IPC: 0.664691 (Simulation time: 2 hr 9 min 34 sec) 
Heartbeat CPU 2 instructions: 480000000 cycles: 635929641 heartbeat IPC: 0.405462 cumulative IPC: 0.421827 (Simulation time: 2 hr 10 min 23 sec) 
Heartbeat CPU 0 instructions: 1020000000 cycles: 639197772 heartbeat IPC: 1.16133 cumulative IPC: 1.14083 (Simulation time: 2 hr 10 min 56 sec) 
Heartbeat CPU 1 instructions: 310000000 cycles: 645201463 heartbeat IPC: 0.225891 cumulative IPC: 0.22147 (Simulation time: 2 hr 11 min 57 sec) 
Heartbeat CPU 3 instructions: 640000000 cycles: 646202057 heartbeat IPC: 0.660234 cumulative IPC: 0.664555 (Simulation time: 2 hr 12 min 7 sec) 
Heartbeat CPU 0 instructions: 1030000001 cycles: 647794510 heartbeat IPC: 1.16323 cumulative IPC: 1.14122 (Simulation time: 2 hr 12 min 24 sec) 
Heartbeat CPU 0 instructions: 1040000000 cycles: 656380140 heartbeat IPC: 1.16474 cumulative IPC: 1.14162 (Simulation time: 2 hr 13 min 52 sec) 
Heartbeat CPU 2 instructions: 490000000 cycles: 659358782 heartbeat IPC: 0.426819 cumulative IPC: 0.422056 (Simulation time: 2 hr 14 min 22 sec) 
Heartbeat CPU 3 instructions: 650000002 cycles: 661073269 heartbeat IPC: 0.67244 cumulative IPC: 0.664784 (Simulation time: 2 hr 14 min 40 sec) 
Heartbeat CPU 0 instructions: 1050000002 cycles: 664967956 heartbeat IPC: 1.16444 cumulative IPC: 1.142 (Simulation time: 2 hr 15 min 19 sec) 
Heartbeat CPU 0 instructions: 1060000000 cycles: 673562438 heartbeat IPC: 1.16354 cumulative IPC: 1.14235 (Simulation time: 2 hr 16 min 45 sec) 
Heartbeat CPU 3 instructions: 660000000 cycles: 675942166 heartbeat IPC: 0.672545 cumulative IPC: 0.665003 (Simulation time: 2 hr 17 min 15 sec) 
Heartbeat CPU 0 instructions: 1070000003 cycles: 682152473 heartbeat IPC: 1.16414 cumulative IPC: 1.1427 (Simulation time: 2 hr 18 min 18 sec) 
Heartbeat CPU 2 instructions: 500000000 cycles: 683165732 heartbeat IPC: 0.420045 cumulative IPC: 0.421967 (Simulation time: 2 hr 18 min 28 sec) 
Heartbeat CPU 1 instructions: 320000000 cycles: 689201737 heartbeat IPC: 0.227271 cumulative IPC: 0.221942 (Simulation time: 2 hr 19 min 36 sec) 
Heartbeat CPU 0 instructions: 1080000000 cycles: 690750989 heartbeat IPC: 1.16299 cumulative IPC: 1.14302 (Simulation time: 2 hr 19 min 53 sec) 
Heartbeat CPU 3 instructions: 670000003 cycles: 690916328 heartbeat IPC: 0.667817 cumulative IPC: 0.66508 (Simulation time: 2 hr 19 min 55 sec) 
Heartbeat CPU 0 instructions: 1090000003 cycles: 699334670 heartbeat IPC: 1.165 cumulative IPC: 1.14336 (Simulation time: 2 hr 21 min 35 sec) 
Heartbeat CPU 3 instructions: 680000000 cycles: 705706549 heartbeat IPC: 0.676122 cumulative IPC: 0.665374 (Simulation time: 2 hr 22 min 46 sec) 
Heartbeat CPU 2 instructions: 510000000 cycles: 706503424 heartbeat IPC: 0.428491 cumulative IPC: 0.42224 (Simulation time: 2 hr 22 min 54 sec) 
Heartbeat CPU 0 instructions: 1100000000 cycles: 707942950 heartbeat IPC: 1.16167 cumulative IPC: 1.14364 (Simulation time: 2 hr 23 min 9 sec) 
Heartbeat CPU 0 instructions: 1110000001 cycles: 716497673 heartbeat IPC: 1.16895 cumulative IPC: 1.14403 (Simulation time: 2 hr 24 min 34 sec) 
Heartbeat CPU 3 instructions: 690000000 cycles: 720949355 heartbeat IPC: 0.656047 cumulative IPC: 0.665125 (Simulation time: 2 hr 25 min 19 sec) 
Heartbeat CPU 0 instructions: 1120000000 cycles: 725086967 heartbeat IPC: 1.16424 cumulative IPC: 1.14433 (Simulation time: 2 hr 26 min 0 sec) 
Heartbeat CPU 2 instructions: 520000000 cycles: 730262769 heartbeat IPC: 0.420887 cumulative IPC: 0.422185 (Simulation time: 2 hr 26 min 50 sec) 
Heartbeat CPU 1 instructions: 330000000 cycles: 733182911 heartbeat IPC: 0.22737 cumulative IPC: 0.22235 (Simulation time: 2 hr 27 min 19 sec) 
Heartbeat CPU 0 instructions: 1130000003 cycles: 733701282 heartbeat IPC: 1.16086 cumulative IPC: 1.14457 (Simulation time: 2 hr 27 min 24 sec) 
Heartbeat CPU 3 instructions: 700000000 cycles: 736164097 heartbeat IPC: 0.657257 cumulative IPC: 0.664921 (Simulation time: 2 hr 27 min 49 sec) 
Heartbeat CPU 0 instructions: 1140000000 cycles: 742308127 heartbeat IPC: 1.16187 cumulative IPC: 1.14482 (Simulation time: 2 hr 28 min 50 sec) 
Heartbeat CPU 0 instructions: 1150000002 cycles: 750927867 heartbeat IPC: 1.16013 cumulative IPC: 1.14504 (Simulation time: 2 hr 30 min 16 sec) 
Heartbeat CPU 3 instructions: 710000000 cycles: 751242704 heartbeat IPC: 0.663191 cumulative IPC: 0.664878 (Simulation time: 2 hr 30 min 19 sec) 
Heartbeat CPU 2 instructions: 530000000 cycles: 753674501 heartbeat IPC: 0.427136 cumulative IPC: 0.422376 (Simulation time: 2 hr 30 min 43 sec) 
Heartbeat CPU 0 instructions: 1160000000 cycles: 759533980 heartbeat IPC: 1.16196 cumulative IPC: 1.14528 (Simulation time: 2 hr 31 min 41 sec) 
Heartbeat CPU 3 instructions: 720000000 cycles: 766228118 heartbeat IPC: 0.667316 cumulative IPC: 0.664937 (Simulation time: 2 hr 32 min 48 sec) 
Heartbeat CPU 0 instructions: 1170000000 cycles: 768143375 heartbeat IPC: 1.16152 cumulative IPC: 1.1455 (Simulation time: 2 hr 33 min 7 sec) 
Heartbeat CPU 1 instructions: 340000000 cycles: 776345286 heartbeat IPC: 0.231683 cumulative IPC: 0.222992 (Simulation time: 2 hr 34 min 28 sec) 
Heartbeat CPU 0 instructions: 1180000000 cycles: 776738554 heartbeat IPC: 1.16344 cumulative IPC: 1.14575 (Simulation time: 2 hr 34 min 32 sec) 
Heartbeat CPU 2 instructions: 540000000 cycles: 777014901 heartbeat IPC: 0.428442 cumulative IPC: 0.422601 (Simulation time: 2 hr 34 min 35 sec) 
Heartbeat CPU 3 instructions: 730000003 cycles: 781888765 heartbeat IPC: 0.638543 cumulative IPC: 0.664285 (Simulation time: 2 hr 35 min 23 sec) 
Heartbeat CPU 0 instructions: 1190000001 cycles: 785361843 heartbeat IPC: 1.15965 cumulative IPC: 1.14594 (Simulation time: 2 hr 35 min 59 sec) 
Heartbeat CPU 0 instructions: 1200000000 cycles: 793940200 heartbeat IPC: 1.16572 cumulative IPC: 1.1462 (Simulation time: 2 hr 37 min 35 sec) 
Heartbeat CPU 3 instructions: 740000000 cycles: 797821996 heartbeat IPC: 0.627619 cumulative IPC: 0.663385 (Simulation time: 2 hr 38 min 19 sec) 
Heartbeat CPU 2 instructions: 550000000 cycles: 800581688 heartbeat IPC: 0.424326 cumulative IPC: 0.422664 (Simulation time: 2 hr 38 min 48 sec) 
Heartbeat CPU 0 instructions: 1210000003 cycles: 802565275 heartbeat IPC: 1.15941 cumulative IPC: 1.14638 (Simulation time: 2 hr 39 min 10 sec) 
Heartbeat CPU 0 instructions: 1220000000 cycles: 811113539 heartbeat IPC: 1.16983 cumulative IPC: 1.14668 (Simulation time: 2 hr 40 min 32 sec) 
Heartbeat CPU 3 instructions: 750000003 cycles: 813532177 heartbeat IPC: 0.63653 cumulative IPC: 0.662751 (Simulation time: 2 hr 40 min 59 sec) 
Heartbeat CPU 0 instructions: 1230000002 cycles: 819697812 heartbeat IPC: 1.16492 cumulative IPC: 1.14691 (Simulation time: 2 hr 42 min 5 sec) 
Heartbeat CPU 1 instructions: 350000000 cycles: 820389408 heartbeat IPC: 0.227045 cumulative IPC: 0.223258 (Simulation time: 2 hr 42 min 12 sec) 
Heartbeat CPU 2 instructions: 560000000 cycles: 825887163 heartbeat IPC: 0.395171 cumulative IPC: 0.421637 (Simulation time: 2 hr 43 min 10 sec) 
Heartbeat CPU 0 instructions: 1240000000 cycles: 828295794 heartbeat IPC: 1.16306 cumulative IPC: 1.14712 (Simulation time: 2 hr 43 min 34 sec) 
Heartbeat CPU 3 instructions: 760000000 cycles: 828843431 heartbeat IPC: 0.653114 cumulative IPC: 0.662534 (Simulation time: 2 hr 43 min 39 sec) 
Heartbeat CPU 0 instructions: 1250000002 cycles: 836857449 heartbeat IPC: 1.168 cumulative IPC: 1.14737 (Simulation time: 2 hr 45 min 10 sec) 
Heartbeat CPU 3 instructions: 770000000 cycles: 844337908 heartbeat IPC: 0.645391 cumulative IPC: 0.662152 (Simulation time: 2 hr 46 min 26 sec) 
Heartbeat CPU 0 instructions: 1260000000 cycles: 845432999 heartbeat IPC: 1.16611 cumulative IPC: 1.14761 (Simulation time: 2 hr 46 min 37 sec) 
Heartbeat CPU 2 instructions: 570000000 cycles: 849493741 heartbeat IPC: 0.423611 cumulative IPC: 0.421703 (Simulation time: 2 hr 47 min 18 sec) 
Heartbeat CPU 0 instructions: 1270000003 cycles: 854011773 heartbeat IPC: 1.16567 cumulative IPC: 1.14783 (Simulation time: 2 hr 48 min 3 sec) 
Heartbeat CPU 3 instructions: 780000000 cycles: 860534906 heartbeat IPC: 0.617398 cumulative IPC: 0.661134 (Simulation time: 2 hr 49 min 9 sec) 
Heartbeat CPU 0 instructions: 1280000000 cycles: 862601863 heartbeat IPC: 1.16413 cumulative IPC: 1.14802 (Simulation time: 2 hr 49 min 30 sec) 
Heartbeat CPU 1 instructions: 360000000 cycles: 864026480 heartbeat IPC: 0.229163 cumulative IPC: 0.223618 (Simulation time: 2 hr 49 min 44 sec) 
Heartbeat CPU 0 instructions: 1290000003 cycles: 871166689 heartbeat IPC: 1.16757 cumulative IPC: 1.14825 (Simulation time: 2 hr 50 min 56 sec) 
Heartbeat CPU 2 instructions: 580000000 cycles: 873374414 heartbeat IPC: 0.418749 cumulative IPC: 0.421606 (Simulation time: 2 hr 51 min 18 sec) 
Heartbeat CPU 3 instructions: 790000000 cycles: 876137888 heartbeat IPC: 0.640903 cumulative IPC: 0.6607 (Simulation time: 2 hr 51 min 46 sec) 
Heartbeat CPU 0 instructions: 1300000000 cycles: 879774809 heartbeat IPC: 1.16169 cumulative IPC: 1.14841 (Simulation time: 2 hr 52 min 23 sec) 
Heartbeat CPU 0 instructions: 1310000001 cycles: 888354344 heartbeat IPC: 1.16556 cumulative IPC: 1.14861 (Simulation time: 2 hr 53 min 50 sec) 
Heartbeat CPU 3 instructions: 800000000 cycles: 891858296 heartbeat IPC: 0.636116 cumulative IPC: 0.66018 (Simulation time: 2 hr 54 min 25 sec) 
Heartbeat CPU 2 instructions: 590000003 cycles: 896724513 heartbeat IPC: 0.428264 cumulative IPC: 0.421814 (Simulation time: 2 hr 55 min 15 sec) 
Heartbeat CPU 0 instructions: 1320000000 cycles: 896917872 heartbeat IPC: 1.16774 cumulative IPC: 1.14883 (Simulation time: 2 hr 55 min 17 sec) 
Heartbeat CPU 0 instructions: 1330000001 cycles: 905508370 heartbeat IPC: 1.16408 cumulative IPC: 1.149 (Simulation time: 2 hr 56 min 44 sec) 
Heartbeat CPU 3 instructions: 810000001 cycles: 907274023 heartbeat IPC: 0.648688 cumulative IPC: 0.659947 (Simulation time: 2 hr 57 min 2 sec) 
Heartbeat CPU 1 instructions: 370000000 cycles: 907870389 heartbeat IPC: 0.228082 cumulative IPC: 0.223876 (Simulation time: 2 hr 57 min 9 sec) 
Heartbeat CPU 0 instructions: 1340000000 cycles: 914078277 heartbeat IPC: 1.16687 cumulative IPC: 1.1492 (Simulation time: 2 hr 58 min 12 sec) 
Heartbeat CPU 2 instructions: 600000000 cycles: 920154890 heartbeat IPC: 0.426796 cumulative IPC: 0.421965 (Simulation time: 2 hr 59 min 13 sec) 
Heartbeat CPU 0 instructions: 1350000000 cycles: 922674743 heartbeat IPC: 1.16327 cumulative IPC: 1.14936 (Simulation time: 2 hr 59 min 39 sec) 
Heartbeat CPU 3 instructions: 820000000 cycles: 923097772 heartbeat IPC: 0.631961 cumulative IPC: 0.659375 (Simulation time: 2 hr 59 min 43 sec) 
Heartbeat CPU 0 instructions: 1360000000 cycles: 931250785 heartbeat IPC: 1.16604 cumulative IPC: 1.14954 (Simulation time: 3 hr 1 min 5 sec) 
Heartbeat CPU 3 instructions: 830000001 cycles: 939096773 heartbeat IPC: 0.625039 cumulative IPC: 0.65868 (Simulation time: 3 hr 2 min 23 sec) 
Heartbeat CPU 0 instructions: 1370000001 cycles: 939835595 heartbeat IPC: 1.16485 cumulative IPC: 1.14971 (Simulation time: 3 hr 2 min 30 sec) 
Heartbeat CPU 2 instructions: 610000000 cycles: 943930014 heartbeat IPC: 0.420608 cumulative IPC: 0.421924 (Simulation time: 3 hr 3 min 10 sec) 
Heartbeat CPU 0 instructions: 1380000000 cycles: 948461483 heartbeat IPC: 1.1593 cumulative IPC: 1.14981 (Simulation time: 3 hr 3 min 56 sec) 
Heartbeat CPU 1 instructions: 380000000 cycles: 951413261 heartbeat IPC: 0.229659 cumulative IPC: 0.224189 (Simulation time: 3 hr 4 min 26 sec) 
Heartbeat CPU 3 instructions: 840000000 cycles: 954930805 heartbeat IPC: 0.631551 cumulative IPC: 0.658147 (Simulation time: 3 hr 5 min 2 sec) 
Heartbeat CPU 0 instructions: 1390000002 cycles: 957052328 heartbeat IPC: 1.16403 cumulative IPC: 1.14996 (Simulation time: 3 hr 5 min 23 sec) 
Heartbeat CPU 0 instructions: 1400000000 cycles: 965638418 heartbeat IPC: 1.16467 cumulative IPC: 1.15012 (Simulation time: 3 hr 6 min 50 sec) 
Heartbeat CPU 2 instructions: 620000000 cycles: 967272127 heartbeat IPC: 0.42841 cumulative IPC: 0.422109 (Simulation time: 3 hr 7 min 6 sec) 
Heartbeat CPU 3 instructions: 850000000 cycles: 970894159 heartbeat IPC: 0.626435 cumulative IPC: 0.657532 (Simulation time: 3 hr 7 min 43 sec) 
Heartbeat CPU 0 instructions: 1410000003 cycles: 974236993 heartbeat IPC: 1.16298 cumulative IPC: 1.15025 (Simulation time: 3 hr 8 min 17 sec) 
Heartbeat CPU 0 instructions: 1420000000 cycles: 982839579 heartbeat IPC: 1.16244 cumulative IPC: 1.15038 (Simulation time: 3 hr 9 min 43 sec) 
Heartbeat CPU 3 instructions: 860000000 cycles: 987142527 heartbeat IPC: 0.615446 cumulative IPC: 0.656716 (Simulation time: 3 hr 10 min 26 sec) 
Heartbeat CPU 2 instructions: 630000003 cycles: 990722896 heartbeat IPC: 0.426425 cumulative IPC: 0.422229 (Simulation time: 3 hr 11 min 3 sec) 
Heartbeat CPU 0 instructions: 1430000001 cycles: 991428153 heartbeat IPC: 1.16434 cumulative IPC: 1.15052 (Simulation time: 3 hr 11 min 10 sec) 
Heartbeat CPU 1 instructions: 390000000 cycles: 995039857 heartbeat IPC: 0.229218 cumulative IPC: 0.224448 (Simulation time: 3 hr 11 min 46 sec) 
Heartbeat CPU 0 instructions: 1440000000 cycles: 1000036701 heartbeat IPC: 1.16164 cumulative IPC: 1.15063 (Simulation time: 3 hr 12 min 36 sec) 
Heartbeat CPU 3 instructions: 870000001 cycles: 1003352416 heartbeat IPC: 0.616907 cumulative IPC: 0.655962 (Simulation time: 3 hr 13 min 9 sec) 
Heartbeat CPU 0 instructions: 1450000000 cycles: 1008620429 heartbeat IPC: 1.16499 cumulative IPC: 1.15077 (Simulation time: 3 hr 14 min 2 sec) 
Heartbeat CPU 2 instructions: 640000000 cycles: 1014528004 heartbeat IPC: 0.420078 cumulative IPC: 0.42217 (Simulation time: 3 hr 15 min 1 sec) 
Heartbeat CPU 0 instructions: 1460000000 cycles: 1017220610 heartbeat IPC: 1.16277 cumulative IPC: 1.15089 (Simulation time: 3 hr 15 min 28 sec) 
Finished CPU 0 instructions: 1000000001 cycles: 868890241 cumulative IPC: 1.15089 (Simulation time: 3 hr 15 min 30 sec) 
Heartbeat CPU 3 instructions: 880000000 cycles: 1019771554 heartbeat IPC: 0.609045 cumulative IPC: 0.655077 (Simulation time: 3 hr 15 min 54 sec) 
Heartbeat CPU 0 instructions: 1470000000 cycles: 1025795915 heartbeat IPC: 1.16614 cumulative IPC: 1.15104 (Simulation time: 3 hr 16 min 55 sec) 
Heartbeat CPU 0 instructions: 1480000000 cycles: 1034374396 heartbeat IPC: 1.16571 cumulative IPC: 1.15118 (Simulation time: 3 hr 18 min 22 sec) 
Heartbeat CPU 3 instructions: 890000003 cycles: 1035619982 heartbeat IPC: 0.630978 cumulative IPC: 0.654647 (Simulation time: 3 hr 18 min 34 sec) 
Heartbeat CPU 2 instructions: 650000000 cycles: 1037907038 heartbeat IPC: 0.427734 cumulative IPC: 0.422316 (Simulation time: 3 hr 18 min 57 sec) 
Heartbeat CPU 1 instructions: 400000000 cycles: 1038686895 heartbeat IPC: 0.229111 cumulative IPC: 0.224677 (Simulation time: 3 hr 19 min 5 sec) 
Heartbeat CPU 0 instructions: 1490000000 cycles: 1042942372 heartbeat IPC: 1.16714 cumulative IPC: 1.15134 (Simulation time: 3 hr 19 min 48 sec) 
Heartbeat CPU 0 instructions: 1500000000 cycles: 1051523664 heartbeat IPC: 1.16533 cumulative IPC: 1.15147 (Simulation time: 3 hr 21 min 15 sec) 
Heartbeat CPU 3 instructions: 900000000 cycles: 1051755208 heartbeat IPC: 0.619762 cumulative IPC: 0.654024 (Simulation time: 3 hr 21 min 17 sec) 
Heartbeat CPU 0 instructions: 1510000000 cycles: 1060098243 heartbeat IPC: 1.16624 cumulative IPC: 1.15161 (Simulation time: 3 hr 22 min 41 sec) 
Heartbeat CPU 2 instructions: 660000000 cycles: 1061458230 heartbeat IPC: 0.424607 cumulative IPC: 0.422376 (Simulation time: 3 hr 22 min 54 sec) 
Heartbeat CPU 3 instructions: 910000001 cycles: 1067812942 heartbeat IPC: 0.622753 cumulative IPC: 0.653477 (Simulation time: 3 hr 23 min 58 sec) 
Heartbeat CPU 0 instructions: 1520000000 cycles: 1068688862 heartbeat IPC: 1.16406 cumulative IPC: 1.15172 (Simulation time: 3 hr 24 min 7 sec) 
Heartbeat CPU 0 instructions: 1530000000 cycles: 1077297012 heartbeat IPC: 1.16169 cumulative IPC: 1.15182 (Simulation time: 3 hr 25 min 34 sec) 
Heartbeat CPU 1 instructions: 410000000 cycles: 1082324123 heartbeat IPC: 0.229162 cumulative IPC: 0.224887 (Simulation time: 3 hr 26 min 26 sec) 
Heartbeat CPU 3 instructions: 920000000 cycles: 1083463152 heartbeat IPC: 0.638969 cumulative IPC: 0.653235 (Simulation time: 3 hr 26 min 37 sec) 
Heartbeat CPU 2 instructions: 670000000 cycles: 1085272910 heartbeat IPC: 0.419909 cumulative IPC: 0.422313 (Simulation time: 3 hr 26 min 55 sec) 
Heartbeat CPU 0 instructions: 1540000000 cycles: 1085879947 heartbeat IPC: 1.1651 cumulative IPC: 1.15194 (Simulation time: 3 hr 27 min 1 sec) 
Heartbeat CPU 0 instructions: 1550000000 cycles: 1094490015 heartbeat IPC: 1.16143 cumulative IPC: 1.15203 (Simulation time: 3 hr 28 min 28 sec) 
Heartbeat CPU 3 instructions: 930000001 cycles: 1099310475 heartbeat IPC: 0.631021 cumulative IPC: 0.652864 (Simulation time: 3 hr 29 min 16 sec) 
Heartbeat CPU 0 instructions: 1560000000 cycles: 1103079550 heartbeat IPC: 1.16421 cumulative IPC: 1.15213 (Simulation time: 3 hr 29 min 53 sec) 
Heartbeat CPU 2 instructions: 680000000 cycles: 1108903386 heartbeat IPC: 0.423182 cumulative IPC: 0.422334 (Simulation time: 3 hr 30 min 49 sec) 
Heartbeat CPU 0 instructions: 1570000000 cycles: 1111660933 heartbeat IPC: 1.16531 cumulative IPC: 1.15225 (Simulation time: 3 hr 31 min 15 sec) 
Heartbeat CPU 3 instructions: 940000000 cycles: 1115336751 heartbeat IPC: 0.623975 cumulative IPC: 0.652385 (Simulation time: 3 hr 31 min 50 sec) 
Heartbeat CPU 0 instructions: 1580000000 cycles: 1120234271 heartbeat IPC: 1.16641 cumulative IPC: 1.15238 (Simulation time: 3 hr 32 min 36 sec) 
Heartbeat CPU 1 instructions: 420000000 cycles: 1126460661 heartbeat IPC: 0.22657 cumulative IPC: 0.224963 (Simulation time: 3 hr 33 min 36 sec) 
Heartbeat CPU 0 instructions: 1590000002 cycles: 1128810353 heartbeat IPC: 1.16603 cumulative IPC: 1.1525 (Simulation time: 3 hr 33 min 58 sec) 
Heartbeat CPU 3 instructions: 950000000 cycles: 1130735888 heartbeat IPC: 0.649387 cumulative IPC: 0.652338 (Simulation time: 3 hr 34 min 17 sec) 
Heartbeat CPU 2 instructions: 690000003 cycles: 1132701989 heartbeat IPC: 0.420193 cumulative IPC: 0.422282 (Simulation time: 3 hr 34 min 35 sec) 
Heartbeat CPU 0 instructions: 1600000000 cycles: 1137394945 heartbeat IPC: 1.16488 cumulative IPC: 1.1526 (Simulation time: 3 hr 35 min 21 sec) 
Heartbeat CPU 0 instructions: 1610000001 cycles: 1145977265 heartbeat IPC: 1.16519 cumulative IPC: 1.15271 (Simulation time: 3 hr 36 min 47 sec) 
Heartbeat CPU 3 instructions: 960000000 cycles: 1146316799 heartbeat IPC: 0.641811 cumulative IPC: 0.652174 (Simulation time: 3 hr 36 min 51 sec) 
Heartbeat CPU 0 instructions: 1620000000 cycles: 1154563733 heartbeat IPC: 1.16462 cumulative IPC: 1.15281 (Simulation time: 3 hr 38 min 13 sec) 
Heartbeat CPU 2 instructions: 700000000 cycles: 1156651010 heartbeat IPC: 0.417553 cumulative IPC: 0.42217 (Simulation time: 3 hr 38 min 34 sec) 
Heartbeat CPU 3 instructions: 970000001 cycles: 1162078095 heartbeat IPC: 0.634466 cumulative IPC: 0.651899 (Simulation time: 3 hr 39 min 29 sec) 
Heartbeat CPU 0 instructions: 1630000001 cycles: 1163140109 heartbeat IPC: 1.16599 cumulative IPC: 1.15293 (Simulation time: 3 hr 39 min 40 sec) 
Heartbeat CPU 1 instructions: 430000000 cycles: 1170414966 heartbeat IPC: 0.227509 cumulative IPC: 0.225072 (Simulation time: 3 hr 40 min 53 sec) 
Heartbeat CPU 0 instructions: 1640000000 cycles: 1171746212 heartbeat IPC: 1.16197 cumulative IPC: 1.153 (Simulation time: 3 hr 41 min 10 sec) 
Heartbeat CPU 3 instructions: 980000000 cycles: 1177844880 heartbeat IPC: 0.634245 cumulative IPC: 0.651628 (Simulation time: 3 hr 42 min 19 sec) 
Heartbeat CPU 2 instructions: 710000000 cycles: 1180040908 heartbeat IPC: 0.427535 cumulative IPC: 0.422292 (Simulation time: 3 hr 42 min 42 sec) 
Heartbeat CPU 0 instructions: 1650000000 cycles: 1180337544 heartbeat IPC: 1.16396 cumulative IPC: 1.15309 (Simulation time: 3 hr 42 min 45 sec) 
Heartbeat CPU 0 instructions: 1660000000 cycles: 1188922098 heartbeat IPC: 1.16488 cumulative IPC: 1.15319 (Simulation time: 3 hr 44 min 21 sec) 
Heartbeat CPU 3 instructions: 990000000 cycles: 1193556151 heartbeat IPC: 0.636486 cumulative IPC: 0.651401 (Simulation time: 3 hr 45 min 11 sec) 
Heartbeat CPU 0 instructions: 1670000002 cycles: 1197508121 heartbeat IPC: 1.16468 cumulative IPC: 1.15328 (Simulation time: 3 hr 45 min 53 sec) 
Heartbeat CPU 2 instructions: 720000000 cycles: 1203645519 heartbeat IPC: 0.423646 cumulative IPC: 0.422322 (Simulation time: 3 hr 47 min 0 sec) 
Heartbeat CPU 0 instructions: 1680000000 cycles: 1206101825 heartbeat IPC: 1.16364 cumulative IPC: 1.15337 (Simulation time: 3 hr 47 min 28 sec) 
Heartbeat CPU 3 instructions: 1000000000 cycles: 1208817146 heartbeat IPC: 0.655265 cumulative IPC: 0.651456 (Simulation time: 3 hr 47 min 58 sec) 
Heartbeat CPU 1 instructions: 440000000 cycles: 1214479686 heartbeat IPC: 0.226939 cumulative IPC: 0.225149 (Simulation time: 3 hr 48 min 55 sec) 
Heartbeat CPU 0 instructions: 1690000000 cycles: 1214716156 heartbeat IPC: 1.16086 cumulative IPC: 1.15343 (Simulation time: 3 hr 48 min 57 sec) 
Heartbeat CPU 0 instructions: 1700000000 cycles: 1223275286 heartbeat IPC: 1.16834 cumulative IPC: 1.15355 (Simulation time: 3 hr 50 min 26 sec) 
Heartbeat CPU 3 instructions: 1010000001 cycles: 1224182407 heartbeat IPC: 0.650819 cumulative IPC: 0.651447 (Simulation time: 3 hr 50 min 37 sec) 
Heartbeat CPU 2 instructions: 730000003 cycles: 1227396404 heartbeat IPC: 0.421037 cumulative IPC: 0.422294 (Simulation time: 3 hr 51 min 9 sec) 
Heartbeat CPU 0 instructions: 1710000001 cycles: 1231849884 heartbeat IPC: 1.16624 cumulative IPC: 1.15365 (Simulation time: 3 hr 51 min 53 sec) 
Heartbeat CPU 3 instructions: 1020000000 cycles: 1240142637 heartbeat IPC: 0.626557 cumulative IPC: 0.651083 (Simulation time: 3 hr 53 min 14 sec) 
Heartbeat CPU 0 instructions: 1720000000 cycles: 1240404217 heartbeat IPC: 1.169 cumulative IPC: 1.15377 (Simulation time: 3 hr 53 min 17 sec) 
Heartbeat CPU 0 instructions: 1730000003 cycles: 1248964725 heartbeat IPC: 1.16816 cumulative IPC: 1.15388 (Simulation time: 3 hr 54 min 41 sec) 
Heartbeat CPU 2 instructions: 740000000 cycles: 1251034770 heartbeat IPC: 0.423041 cumulative IPC: 0.42231 (Simulation time: 3 hr 55 min 1 sec) 
Heartbeat CPU 3 instructions: 1030000003 cycles: 1255973151 heartbeat IPC: 0.631692 cumulative IPC: 0.650806 (Simulation time: 3 hr 55 min 50 sec) 
Heartbeat CPU 0 instructions: 1740000000 cycles: 1257526436 heartbeat IPC: 1.16799 cumulative IPC: 1.15399 (Simulation time: 3 hr 56 min 6 sec) 
Heartbeat CPU 1 instructions: 450000000 cycles: 1258469928 heartbeat IPC: 0.227323 cumulative IPC: 0.225235 (Simulation time: 3 hr 56 min 15 sec) 
Heartbeat CPU 0 instructions: 1750000000 cycles: 1266070803 heartbeat IPC: 1.17036 cumulative IPC: 1.15411 (Simulation time: 3 hr 57 min 29 sec) 
Heartbeat CPU 3 instructions: 1040000000 cycles: 1271440773 heartbeat IPC: 0.646512 cumulative IPC: 0.650747 (Simulation time: 3 hr 58 min 22 sec) 
Heartbeat CPU 0 instructions: 1760000000 cycles: 1274620617 heartbeat IPC: 1.16962 cumulative IPC: 1.15423 (Simulation time: 3 hr 58 min 54 sec) 
Heartbeat CPU 2 instructions: 750000002 cycles: 1275011801 heartbeat IPC: 0.417066 cumulative IPC: 0.422198 (Simulation time: 3 hr 58 min 57 sec) 
Heartbeat CPU 0 instructions: 1770000000 cycles: 1283177766 heartbeat IPC: 1.16861 cumulative IPC: 1.15434 (Simulation time: 4 hr 0 min 14 sec) 
Heartbeat CPU 3 instructions: 1050000002 cycles: 1287520277 heartbeat IPC: 0.62191 cumulative IPC: 0.65034 (Simulation time: 4 hr 0 min 57 sec) 
Heartbeat CPU 0 instructions: 1780000000 cycles: 1291736308 heartbeat IPC: 1.16842 cumulative IPC: 1.15445 (Simulation time: 4 hr 1 min 42 sec) 
Heartbeat CPU 0 instructions: 1790000002 cycles: 1300284533 heartbeat IPC: 1.16983 cumulative IPC: 1.15456 (Simulation time: 4 hr 3 min 0 sec) 
Heartbeat CPU 2 instructions: 760000000 cycles: 1301674534 heartbeat IPC: 0.375055 cumulative IPC: 0.421108 (Simulation time: 4 hr 3 min 14 sec) 
Heartbeat CPU 1 instructions: 460000000 cycles: 1302272544 heartbeat IPC: 0.228297 cumulative IPC: 0.225352 (Simulation time: 4 hr 3 min 20 sec) 
Heartbeat CPU 3 instructions: 1060000000 cycles: 1302870341 heartbeat IPC: 0.651463 cumulative IPC: 0.650355 (Simulation time: 4 hr 3 min 26 sec) 
Heartbeat CPU 0 instructions: 1800000000 cycles: 1308847001 heartbeat IPC: 1.16789 cumulative IPC: 1.15466 (Simulation time: 4 hr 4 min 25 sec) 
Heartbeat CPU 0 instructions: 1810000000 cycles: 1317416200 heartbeat IPC: 1.16697 cumulative IPC: 1.15475 (Simulation time: 4 hr 6 min 2 sec) 
Heartbeat CPU 3 instructions: 1070000000 cycles: 1318190880 heartbeat IPC: 0.652719 cumulative IPC: 0.650386 (Simulation time: 4 hr 6 min 10 sec) 
Heartbeat CPU 0 instructions: 1820000000 cycles: 1325989734 heartbeat IPC: 1.16638 cumulative IPC: 1.15483 (Simulation time: 4 hr 7 min 38 sec) 
Heartbeat CPU 2 instructions: 770000000 cycles: 1326379848 heartbeat IPC: 0.404771 cumulative IPC: 0.420766 (Simulation time: 4 hr 7 min 44 sec) 
Heartbeat CPU 3 instructions: 1080000000 cycles: 1333501846 heartbeat IPC: 0.653127 cumulative IPC: 0.650421 (Simulation time: 4 hr 9 min 7 sec) 
Heartbeat CPU 0 instructions: 1830000002 cycles: 1334583108 heartbeat IPC: 1.16369 cumulative IPC: 1.1549 (Simulation time: 4 hr 9 min 18 sec) 
Heartbeat CPU 0 instructions: 1840000000 cycles: 1343147039 heartbeat IPC: 1.16769 cumulative IPC: 1.15499 (Simulation time: 4 hr 10 min 44 sec) 
Heartbeat CPU 1 instructions: 470000000 cycles: 1346190043 heartbeat IPC: 0.2277 cumulative IPC: 0.225438 (Simulation time: 4 hr 11 min 14 sec) 
Heartbeat CPU 3 instructions: 1090000000 cycles: 1349581819 heartbeat IPC: 0.621892 cumulative IPC: 0.650039 (Simulation time: 4 hr 11 min 47 sec) 
Heartbeat CPU 2 instructions: 780000000 cycles: 1349760181 heartbeat IPC: 0.42771 cumulative IPC: 0.420901 (Simulation time: 4 hr 11 min 49 sec) 
Heartbeat CPU 0 instructions: 1850000000 cycles: 1351739451 heartbeat IPC: 1.16382 cumulative IPC: 1.15505 (Simulation time: 4 hr 12 min 8 sec) 
Heartbeat CPU 0 instructions: 1860000000 cycles: 1360320831 heartbeat IPC: 1.16531 cumulative IPC: 1.15512 (Simulation time: 4 hr 13 min 39 sec) 
Heartbeat CPU 3 instructions: 1100000000 cycles: 1365209735 heartbeat IPC: 0.639881 cumulative IPC: 0.649909 (Simulation time: 4 hr 14 min 28 sec) 
Heartbeat CPU 0 instructions: 1870000003 cycles: 1368921053 heartbeat IPC: 1.16276 cumulative IPC: 1.15518 (Simulation time: 4 hr 15 min 10 sec) 
Heartbeat CPU 2 instructions: 790000002 cycles: 1373492652 heartbeat IPC: 0.421364 cumulative IPC: 0.42091 (Simulation time: 4 hr 16 min 0 sec) 
Heartbeat CPU 0 instructions: 1880000000 cycles: 1377511366 heartbeat IPC: 1.1641 cumulative IPC: 1.15524 (Simulation time: 4 hr 16 min 40 sec) 
Heartbeat CPU 3 instructions: 1110000000 cycles: 1380514970 heartbeat IPC: 0.653371 cumulative IPC: 0.649952 (Simulation time: 4 hr 17 min 10 sec) 
Heartbeat CPU 0 instructions: 1890000001 cycles: 1386101369 heartbeat IPC: 1.16414 cumulative IPC: 1.1553 (Simulation time: 4 hr 18 min 6 sec) 
Heartbeat CPU 1 instructions: 480000000 cycles: 1390129191 heartbeat IPC: 0.227587 cumulative IPC: 0.225514 (Simulation time: 4 hr 18 min 46 sec) 
Heartbeat CPU 0 instructions: 1900000000 cycles: 1394705734 heartbeat IPC: 1.1622 cumulative IPC: 1.15535 (Simulation time: 4 hr 19 min 31 sec) 
Heartbeat CPU 3 instructions: 1120000000 cycles: 1395606576 heartbeat IPC: 0.66262 cumulative IPC: 0.650105 (Simulation time: 4 hr 19 min 40 sec) 
Heartbeat CPU 2 instructions: 800000000 cycles: 1397029973 heartbeat IPC: 0.424857 cumulative IPC: 0.420984 (Simulation time: 4 hr 19 min 55 sec) 
Heartbeat CPU 0 instructions: 1910000001 cycles: 1403295826 heartbeat IPC: 1.16413 cumulative IPC: 1.15541 (Simulation time: 4 hr 20 min 56 sec) 
Heartbeat CPU 3 instructions: 1130000000 cycles: 1410874625 heartbeat IPC: 0.654963 cumulative IPC: 0.650164 (Simulation time: 4 hr 22 min 15 sec) 
Heartbeat CPU 0 instructions: 1920000000 cycles: 1411897079 heartbeat IPC: 1.16262 cumulative IPC: 1.15546 (Simulation time: 4 hr 22 min 25 sec) 
Heartbeat CPU 2 instructions: 810000000 cycles: 1420431037 heartbeat IPC: 0.427331 cumulative IPC: 0.421101 (Simulation time: 4 hr 23 min 50 sec) 
Heartbeat CPU 0 instructions: 1930000001 cycles: 1420497665 heartbeat IPC: 1.16271 cumulative IPC: 1.15551 (Simulation time: 4 hr 23 min 51 sec) 
Heartbeat CPU 3 instructions: 1140000000 cycles: 1426482798 heartbeat IPC: 0.64069 cumulative IPC: 0.650048 (Simulation time: 4 hr 24 min 50 sec) 
Heartbeat CPU 0 instructions: 1940000000 cycles: 1429081945 heartbeat IPC: 1.16492 cumulative IPC: 1.15557 (Simulation time: 4 hr 25 min 15 sec) 
Heartbeat CPU 1 instructions: 490000000 cycles: 1435198736 heartbeat IPC: 0.221879 cumulative IPC: 0.225386 (Simulation time: 4 hr 26 min 16 sec) 
Heartbeat CPU 0 instructions: 1950000001 cycles: 1437671149 heartbeat IPC: 1.16425 cumulative IPC: 1.15563 (Simulation time: 4 hr 26 min 41 sec) 
Heartbeat CPU 3 instructions: 1150000001 cycles: 1441745504 heartbeat IPC: 0.655192 cumulative IPC: 0.650109 (Simulation time: 4 hr 27 min 22 sec) 
Heartbeat CPU 2 instructions: 820000000 cycles: 1444298688 heartbeat IPC: 0.418977 cumulative IPC: 0.421062 (Simulation time: 4 hr 27 min 47 sec) 
Heartbeat CPU 0 instructions: 1960000000 cycles: 1446260348 heartbeat IPC: 1.16425 cumulative IPC: 1.15569 (Simulation time: 4 hr 28 min 7 sec) 
Heartbeat CPU 0 instructions: 1970000001 cycles: 1454837858 heartbeat IPC: 1.16584 cumulative IPC: 1.15575 (Simulation time: 4 hr 29 min 32 sec) 
Heartbeat CPU 3 instructions: 1160000000 cycles: 1456577663 heartbeat IPC: 0.674211 cumulative IPC: 0.650382 (Simulation time: 4 hr 29 min 50 sec) 
Heartbeat CPU 0 instructions: 1980000000 cycles: 1463404020 heartbeat IPC: 1.16738 cumulative IPC: 1.15583 (Simulation time: 4 hr 30 min 58 sec) 
Heartbeat CPU 2 instructions: 830000000 cycles: 1467875133 heartbeat IPC: 0.424152 cumulative IPC: 0.421117 (Simulation time: 4 hr 31 min 43 sec) 
Heartbeat CPU 3 instructions: 1170000000 cycles: 1471782399 heartbeat IPC: 0.65769 cumulative IPC: 0.650466 (Simulation time: 4 hr 32 min 22 sec) 
Heartbeat CPU 0 instructions: 1990000002 cycles: 1471976917 heartbeat IPC: 1.16647 cumulative IPC: 1.1559 (Simulation time: 4 hr 32 min 24 sec) 
Heartbeat CPU 1 instructions: 500000000 cycles: 1478901030 heartbeat IPC: 0.228821 cumulative IPC: 0.225499 (Simulation time: 4 hr 33 min 33 sec) 
*** Reached end of trace for Core: 0 Repeating trace: /scratch/user/djimenez/champsim-traces/speccpu2017/xz/603.bwaves_s/603.bwaves_s-891B.champsimtrace.xz
Heartbeat CPU 0 instructions: 2000000000 cycles: 1480534670 heartbeat IPC: 1.16853 cumulative IPC: 1.15598 (Simulation time: 4 hr 33 min 50 sec) 
Heartbeat CPU 3 instructions: 1180000000 cycles: 1486704833 heartbeat IPC: 0.670132 cumulative IPC: 0.650685 (Simulation time: 4 hr 34 min 50 sec) 
Heartbeat CPU 0 instructions: 2010000003 cycles: 1489059500 heartbeat IPC: 1.17304 cumulative IPC: 1.15609 (Simulation time: 4 hr 35 min 13 sec) 
Heartbeat CPU 2 instructions: 840000000 cycles: 1491602831 heartbeat IPC: 0.421448 cumulative IPC: 0.421123 (Simulation time: 4 hr 35 min 38 sec) 
Heartbeat CPU 0 instructions: 2020000000 cycles: 1497795651 heartbeat IPC: 1.14467 cumulative IPC: 1.15601 (Simulation time: 4 hr 36 min 36 sec) 
Heartbeat CPU 3 instructions: 1190000000 cycles: 1502125968 heartbeat IPC: 0.648461 cumulative IPC: 0.65066 (Simulation time: 4 hr 37 min 16 sec) 
Heartbeat CPU 0 instructions: 2030000003 cycles: 1506561035 heartbeat IPC: 1.14085 cumulative IPC: 1.15592 (Simulation time: 4 hr 37 min 55 sec) 
Heartbeat CPU 0 instructions: 2040000000 cycles: 1515291703 heartbeat IPC: 1.14539 cumulative IPC: 1.15585 (Simulation time: 4 hr 39 min 15 sec) 
Heartbeat CPU 2 instructions: 850000002 cycles: 1515756775 heartbeat IPC: 0.414011 cumulative IPC: 0.420997 (Simulation time: 4 hr 39 min 19 sec) 
Heartbeat CPU 3 instructions: 1200000000 cycles: 1517842745 heartbeat IPC: 0.636263 cumulative IPC: 0.650495 (Simulation time: 4 hr 39 min 38 sec) 
Heartbeat CPU 0 instructions: 2050000001 cycles: 1523737152 heartbeat IPC: 1.18407 cumulative IPC: 1.15602 (Simulation time: 4 hr 40 min 29 sec) 
Heartbeat CPU 1 instructions: 510000000 cycles: 1528679643 heartbeat IPC: 0.200889 cumulative IPC: 0.224612 (Simulation time: 4 hr 41 min 14 sec) 
Heartbeat CPU 0 instructions: 2060000000 cycles: 1531299546 heartbeat IPC: 1.32233 cumulative IPC: 1.15693 (Simulation time: 4 hr 41 min 38 sec) 
Heartbeat CPU 3 instructions: 1210000001 cycles: 1533369622 heartbeat IPC: 0.644045 cumulative IPC: 0.650422 (Simulation time: 4 hr 41 min 56 sec) 
Heartbeat CPU 0 instructions: 2070000000 cycles: 1538839945 heartbeat IPC: 1.32619 cumulative IPC: 1.15785 (Simulation time: 4 hr 42 min 46 sec) 
Heartbeat CPU 2 instructions: 860000000 cycles: 1539108157 heartbeat IPC: 0.42824 cumulative IPC: 0.421119 (Simulation time: 4 hr 42 min 48 sec) 
Heartbeat CPU 0 instructions: 2080000000 cycles: 1546373037 heartbeat IPC: 1.32748 cumulative IPC: 1.15876 (Simulation time: 4 hr 43 min 55 sec) 
Heartbeat CPU 3 instructions: 1220000000 cycles: 1548120462 heartbeat IPC: 0.677927 cumulative IPC: 0.650712 (Simulation time: 4 hr 44 min 11 sec) 
Heartbeat CPU 0 instructions: 2090000000 cycles: 1553922370 heartbeat IPC: 1.32462 cumulative IPC: 1.15965 (Simulation time: 4 hr 45 min 3 sec) 
Heartbeat CPU 0 instructions: 2100000000 cycles: 1561449038 heartbeat IPC: 1.32861 cumulative IPC: 1.16055 (Simulation time: 4 hr 46 min 11 sec) 
Heartbeat CPU 2 instructions: 870000002 cycles: 1562617613 heartbeat IPC: 0.425361 cumulative IPC: 0.421189 (Simulation time: 4 hr 46 min 21 sec) 
Heartbeat CPU 3 instructions: 1230000001 cycles: 1563440325 heartbeat IPC: 0.652747 cumulative IPC: 0.650734 (Simulation time: 4 hr 46 min 29 sec) 
Heartbeat CPU 0 instructions: 2110000002 cycles: 1569007513 heartbeat IPC: 1.32302 cumulative IPC: 1.16142 (Simulation time: 4 hr 47 min 19 sec) 
Heartbeat CPU 1 instructions: 520000000 cycles: 1572434134 heartbeat IPC: 0.228548 cumulative IPC: 0.224733 (Simulation time: 4 hr 47 min 50 sec) 
Heartbeat CPU 0 instructions: 2120000000 cycles: 1576546582 heartbeat IPC: 1.32642 cumulative IPC: 1.16229 (Simulation time: 4 hr 48 min 27 sec) 
Heartbeat CPU 3 instructions: 1240000000 cycles: 1578632522 heartbeat IPC: 0.658233 cumulative IPC: 0.650814 (Simulation time: 4 hr 48 min 46 sec) 
Heartbeat CPU 0 instructions: 2130000001 cycles: 1584084421 heartbeat IPC: 1.32664 cumulative IPC: 1.16315 (Simulation time: 4 hr 49 min 35 sec) 
Heartbeat CPU 2 instructions: 880000000 cycles: 1586212851 heartbeat IPC: 0.423814 cumulative IPC: 0.421232 (Simulation time: 4 hr 49 min 55 sec) 
Heartbeat CPU 0 instructions: 2140000000 cycles: 1591615694 heartbeat IPC: 1.3278 cumulative IPC: 1.16401 (Simulation time: 4 hr 50 min 44 sec) 
Heartbeat CPU 3 instructions: 1250000000 cycles: 1593779259 heartbeat IPC: 0.660208 cumulative IPC: 0.650912 (Simulation time: 4 hr 51 min 4 sec) 
Heartbeat CPU 0 instructions: 2150000000 cycles: 1599146660 heartbeat IPC: 1.32785 cumulative IPC: 1.16486 (Simulation time: 4 hr 51 min 52 sec) 
Heartbeat CPU 0 instructions: 2160000000 cycles: 1606688483 heartbeat IPC: 1.32594 cumulative IPC: 1.1657 (Simulation time: 4 hr 53 min 1 sec) 
Heartbeat CPU 3 instructions: 1260000000 cycles: 1609410114 heartbeat IPC: 0.63976 cumulative IPC: 0.650793 (Simulation time: 4 hr 53 min 27 sec) 
Heartbeat CPU 2 instructions: 890000000 cycles: 1609542778 heartbeat IPC: 0.428634 cumulative IPC: 0.421351 (Simulation time: 4 hr 53 min 28 sec) 
Heartbeat CPU 0 instructions: 2170000003 cycles: 1614278851 heartbeat IPC: 1.31746 cumulative IPC: 1.16648 (Simulation time: 4 hr 54 min 13 sec) 
Heartbeat CPU 1 instructions: 530000001 cycles: 1616053108 heartbeat IPC: 0.229258 cumulative IPC: 0.224867 (Simulation time: 4 hr 54 min 30 sec) 
Heartbeat CPU 0 instructions: 2180000000 cycles: 1622003927 heartbeat IPC: 1.29449 cumulative IPC: 1.16715 (Simulation time: 4 hr 55 min 26 sec) 
Heartbeat CPU 3 instructions: 1270000000 cycles: 1625120539 heartbeat IPC: 0.63652 cumulative IPC: 0.650641 (Simulation time: 4 hr 55 min 55 sec) 
Heartbeat CPU 0 instructions: 2190000001 cycles: 1630749541 heartbeat IPC: 1.14343 cumulative IPC: 1.16701 (Simulation time: 4 hr 56 min 45 sec) 
Heartbeat CPU 2 instructions: 900000000 cycles: 1633220275 heartbeat IPC: 0.422342 cumulative IPC: 0.421366 (Simulation time: 4 hr 57 min 6 sec) 
Heartbeat CPU 0 instructions: 2200000000 cycles: 1640676618 heartbeat IPC: 1.00735 cumulative IPC: 1.16595 (Simulation time: 4 hr 58 min 12 sec) 
Heartbeat CPU 3 instructions: 1280000000 cycles: 1640698806 heartbeat IPC: 0.64192 cumulative IPC: 0.65055 (Simulation time: 4 hr 58 min 12 sec) 
Heartbeat CPU 0 instructions: 2210000000 cycles: 1650637427 heartbeat IPC: 1.00393 cumulative IPC: 1.16488 (Simulation time: 4 hr 59 min 39 sec) 
Heartbeat CPU 3 instructions: 1290000001 cycles: 1656319097 heartbeat IPC: 0.640193 cumulative IPC: 0.650443 (Simulation time: 5 hr 0 min 29 sec) 
Heartbeat CPU 2 instructions: 910000002 cycles: 1656692770 heartbeat IPC: 0.426031 cumulative IPC: 0.421439 (Simulation time: 5 hr 0 min 32 sec) 
Heartbeat CPU 0 instructions: 2220000000 cycles: 1660558252 heartbeat IPC: 1.00798 cumulative IPC: 1.16385 (Simulation time: 5 hr 1 min 6 sec) 
Heartbeat CPU 1 instructions: 540000000 cycles: 1660744263 heartbeat IPC: 0.223758 cumulative IPC: 0.224834 (Simulation time: 5 hr 1 min 7 sec) 
Heartbeat CPU 0 instructions: 2230000000 cycles: 1670462268 heartbeat IPC: 1.00969 cumulative IPC: 1.16284 (Simulation time: 5 hr 2 min 28 sec) 
Heartbeat CPU 3 instructions: 1300000000 cycles: 1671990689 heartbeat IPC: 0.638097 cumulative IPC: 0.650316 (Simulation time: 5 hr 2 min 41 sec) 
Heartbeat CPU 2 instructions: 920000000 cycles: 1680025752 heartbeat IPC: 0.428578 cumulative IPC: 0.421548 (Simulation time: 5 hr 3 min 51 sec) 
Heartbeat CPU 0 instructions: 2240000000 cycles: 1680362804 heartbeat IPC: 1.01005 cumulative IPC: 1.16186 (Simulation time: 5 hr 3 min 54 sec) 
Finished CPU 3 instructions: 1000000001 cycles: 1537541442 cumulative IPC: 0.650389 (Simulation time: 5 hr 4 min 44 sec) 
Heartbeat CPU 3 instructions: 1310000000 cycles: 1687202617 heartbeat IPC: 0.657379 cumulative IPC: 0.650386 (Simulation time: 5 hr 4 min 54 sec) 
Heartbeat CPU 0 instructions: 2250000003 cycles: 1690281073 heartbeat IPC: 1.00824 cumulative IPC: 1.16087 (Simulation time: 5 hr 5 min 21 sec) 
Heartbeat CPU 0 instructions: 2260000000 cycles: 1700185185 heartbeat IPC: 1.00968 cumulative IPC: 1.1599 (Simulation time: 5 hr 7 min 0 sec) 
Heartbeat CPU 3 instructions: 1320000000 cycles: 1702187235 heartbeat IPC: 0.667351 cumulative IPC: 0.650549 (Simulation time: 5 hr 7 min 21 sec) 
Heartbeat CPU 2 instructions: 930000000 cycles: 1703692057 heartbeat IPC: 0.422542 cumulative IPC: 0.421563 (Simulation time: 5 hr 7 min 36 sec) 
Heartbeat CPU 1 instructions: 550000000 cycles: 1705280377 heartbeat IPC: 0.224537 cumulative IPC: 0.224826 (Simulation time: 5 hr 7 min 51 sec) 
Heartbeat CPU 0 instructions: 2270000003 cycles: 1710102119 heartbeat IPC: 1.00838 cumulative IPC: 1.15894 (Simulation time: 5 hr 8 min 36 sec) 
Heartbeat CPU 3 instructions: 1330000000 cycles: 1717413518 heartbeat IPC: 0.656759 cumulative IPC: 0.65061 (Simulation time: 5 hr 9 min 48 sec) 
Heartbeat CPU 0 instructions: 2280000000 cycles: 1720031130 heartbeat IPC: 1.00715 cumulative IPC: 1.15798 (Simulation time: 5 hr 10 min 15 sec) 
Heartbeat CPU 2 instructions: 940000000 cycles: 1727135278 heartbeat IPC: 0.426563 cumulative IPC: 0.421637 (Simulation time: 5 hr 11 min 26 sec) 
Heartbeat CPU 0 instructions: 2290000001 cycles: 1729909973 heartbeat IPC: 1.01226 cumulative IPC: 1.15707 (Simulation time: 5 hr 11 min 53 sec) 
Heartbeat CPU 3 instructions: 1340000000 cycles: 1732441624 heartbeat IPC: 0.66542 cumulative IPC: 0.65075 (Simulation time: 5 hr 12 min 17 sec) 
Heartbeat CPU 0 instructions: 2300000000 cycles: 1739789784 heartbeat IPC: 1.01217 cumulative IPC: 1.15617 (Simulation time: 5 hr 13 min 24 sec) 
Heartbeat CPU 3 instructions: 1350000000 cycles: 1747480123 heartbeat IPC: 0.66496 cumulative IPC: 0.650884 (Simulation time: 5 hr 14 min 32 sec) 
Heartbeat CPU 1 instructions: 560000000 cycles: 1749501979 heartbeat IPC: 0.226134 cumulative IPC: 0.224862 (Simulation time: 5 hr 14 min 49 sec) 
Heartbeat CPU 0 instructions: 2310000001 cycles: 1749686832 heartbeat IPC: 1.0104 cumulative IPC: 1.15527 (Simulation time: 5 hr 14 min 51 sec) 
Heartbeat CPU 2 instructions: 950000001 cycles: 1750506952 heartbeat IPC: 0.427868 cumulative IPC: 0.421728 (Simulation time: 5 hr 14 min 58 sec) 
Heartbeat CPU 0 instructions: 2320000000 cycles: 1759566429 heartbeat IPC: 1.01219 cumulative IPC: 1.15439 (Simulation time: 5 hr 16 min 17 sec) 
Heartbeat CPU 3 instructions: 1360000000 cycles: 1762703647 heartbeat IPC: 0.656878 cumulative IPC: 0.65094 (Simulation time: 5 hr 16 min 44 sec) 
Heartbeat CPU 0 instructions: 2330000001 cycles: 1769512320 heartbeat IPC: 1.00544 cumulative IPC: 1.15348 (Simulation time: 5 hr 17 min 49 sec) 
Heartbeat CPU 2 instructions: 960000000 cycles: 1774199224 heartbeat IPC: 0.422079 cumulative IPC: 0.421733 (Simulation time: 5 hr 18 min 34 sec) 
Heartbeat CPU 3 instructions: 1370000001 cycles: 1777719241 heartbeat IPC: 0.665974 cumulative IPC: 0.651079 (Simulation time: 5 hr 19 min 7 sec) 
Heartbeat CPU 0 instructions: 2340000000 cycles: 1779519961 heartbeat IPC: 0.999236 cumulative IPC: 1.15253 (Simulation time: 5 hr 19 min 24 sec) 
Heartbeat CPU 0 instructions: 2350000002 cycles: 1789450807 heartbeat IPC: 1.00696 cumulative IPC: 1.15165 (Simulation time: 5 hr 20 min 58 sec) 
Heartbeat CPU 3 instructions: 1380000000 cycles: 1792649139 heartbeat IPC: 0.669797 cumulative IPC: 0.651249 (Simulation time: 5 hr 21 min 29 sec) 
Heartbeat CPU 1 instructions: 570000000 cycles: 1794344878 heartbeat IPC: 0.223001 cumulative IPC: 0.224811 (Simulation time: 5 hr 21 min 45 sec) 
Heartbeat CPU 2 instructions: 970000000 cycles: 1797739150 heartbeat IPC: 0.42481 cumulative IPC: 0.421777 (Simulation time: 5 hr 22 min 20 sec) 
Heartbeat CPU 0 instructions: 2360000000 cycles: 1798725371 heartbeat IPC: 1.07822 cumulative IPC: 1.15124 (Simulation time: 5 hr 22 min 29 sec) 
Heartbeat CPU 3 instructions: 1390000000 cycles: 1808048700 heartbeat IPC: 0.649369 cumulative IPC: 0.651231 (Simulation time: 5 hr 24 min 7 sec) 
Heartbeat CPU 0 instructions: 2370000000 cycles: 1808160289 heartbeat IPC: 1.05989 cumulative IPC: 1.15072 (Simulation time: 5 hr 24 min 9 sec) 
Heartbeat CPU 0 instructions: 2380000000 cycles: 1817654431 heartbeat IPC: 1.05328 cumulative IPC: 1.15017 (Simulation time: 5 hr 25 min 46 sec) 
Heartbeat CPU 2 instructions: 980000000 cycles: 1821376405 heartbeat IPC: 0.423061 cumulative IPC: 0.421795 (Simulation time: 5 hr 26 min 25 sec) 
Heartbeat CPU 3 instructions: 1400000000 cycles: 1823355916 heartbeat IPC: 0.653287 cumulative IPC: 0.65125 (Simulation time: 5 hr 26 min 50 sec) 
Heartbeat CPU 0 instructions: 2390000001 cycles: 1827143763 heartbeat IPC: 1.05382 cumulative IPC: 1.14962 (Simulation time: 5 hr 27 min 27 sec) 
Heartbeat CPU 0 instructions: 2400000000 cycles: 1836651827 heartbeat IPC: 1.05174 cumulative IPC: 1.14907 (Simulation time: 5 hr 29 min 2 sec) 
Heartbeat CPU 3 instructions: 1410000003 cycles: 1838539515 heartbeat IPC: 0.658606 cumulative IPC: 0.651316 (Simulation time: 5 hr 29 min 20 sec) 
Heartbeat CPU 1 instructions: 580000000 cycles: 1843728068 heartbeat IPC: 0.202498 cumulative IPC: 0.224161 (Simulation time: 5 hr 30 min 17 sec) 
Heartbeat CPU 2 instructions: 990000001 cycles: 1845450003 heartbeat IPC: 0.415393 cumulative IPC: 0.421704 (Simulation time: 5 hr 30 min 33 sec) 
Heartbeat CPU 0 instructions: 2410000003 cycles: 1846140707 heartbeat IPC: 1.05387 cumulative IPC: 1.14854 (Simulation time: 5 hr 30 min 41 sec) 
Heartbeat CPU 3 instructions: 1420000000 cycles: 1853877955 heartbeat IPC: 0.651957 cumulative IPC: 0.651322 (Simulation time: 5 hr 32 min 3 sec) 
[...]
Heartbeat CPU 3 instructions: 3140000000 cycles: 4451754132 heartbeat IPC: 0.640583 cumulative IPC: 0.657816 (Simulation time: 12 hr 4 min 33 sec) 
Heartbeat CPU 2 instructions: 2090000003 cycles: 4452013291 heartbeat IPC: 0.424387 cumulative IPC: 0.42189 (Simulation time: 12 hr 4 min 35 sec) 
Heartbeat CPU 0 instructions: 5400000000 cycles: 4457401506 heartbeat IPC: 1.16527 cumulative IPC: 1.14642 (Simulation time: 12 hr 5 min 23 sec) 
Heartbeat CPU 0 instructions: 5410000003 cycles: 4466073749 heartbeat IPC: 1.1531 cumulative IPC: 1.14643 (Simulation time: 12 hr 6 min 35 sec) 
Heartbeat CPU 3 instructions: 3150000001 cycles: 4467037218 heartbeat IPC: 0.654318 cumulative IPC: 0.657804 (Simulation time: 12 hr 6 min 42 sec) 
Heartbeat CPU 0 instructions: 5420000000 cycles: 4474617422 heartbeat IPC: 1.17046 cumulative IPC: 1.14648 (Simulation time: 12 hr 7 min 44 sec) 
Heartbeat CPU 1 instructions: 1170000000 cycles: 4476880259 heartbeat IPC: 0.226606 cumulative IPC: 0.224103 (Simulation time: 12 hr 8 min 5 sec) 
Heartbeat CPU 3 instructions: 3160000000 cycles: 4481877762 heartbeat IPC: 0.67383 cumulative IPC: 0.657859 (Simulation time: 12 hr 8 min 50 sec) 
Heartbeat CPU 2 instructions: 2100000000 cycles: 4482063991 heartbeat IPC: 0.332771 cumulative IPC: 0.421272 (Simulation time: 12 hr 8 min 52 sec) 
Heartbeat CPU 0 instructions: 5430000001 cycles: 4483223510 heartbeat IPC: 1.16197 cumulative IPC: 1.14651 (Simulation time: 12 hr 9 min 2 sec) 
Heartbeat CPU 0 instructions: 5440000000 cycles: 4491811764 heartbeat IPC: 1.16438 cumulative IPC: 1.14655 (Simulation time: 12 hr 10 min 20 sec) 
Heartbeat CPU 3 instructions: 3170000000 cycles: 4497074987 heartbeat IPC: 0.658015 cumulative IPC: 0.657859 (Simulation time: 12 hr 11 min 7 sec) 
Heartbeat CPU 0 instructions: 5450000000 cycles: 4500421050 heartbeat IPC: 1.16154 cumulative IPC: 1.14658 (Simulation time: 12 hr 11 min 38 sec) 
Heartbeat CPU 2 instructions: 2110000002 cycles: 4505389074 heartbeat IPC: 0.428723 cumulative IPC: 0.421312 (Simulation time: 12 hr 12 min 23 sec) 
Heartbeat CPU 0 instructions: 5460000000 cycles: 4509035580 heartbeat IPC: 1.16083 cumulative IPC: 1.1466 (Simulation time: 12 hr 12 min 56 sec) 
Heartbeat CPU 3 instructions: 3180000000 cycles: 4511945853 heartbeat IPC: 0.672456 cumulative IPC: 0.657909 (Simulation time: 12 hr 13 min 22 sec) 
Heartbeat CPU 0 instructions: 5470000000 cycles: 4517618189 heartbeat IPC: 1.16515 cumulative IPC: 1.14664 (Simulation time: 12 hr 14 min 13 sec) 
Heartbeat CPU 1 instructions: 1180000000 cycles: 4520197966 heartbeat IPC: 0.230852 cumulative IPC: 0.22417 (Simulation time: 12 hr 14 min 36 sec) 
Heartbeat CPU 0 instructions: 5480000000 cycles: 4526204287 heartbeat IPC: 1.16467 cumulative IPC: 1.14667 (Simulation time: 12 hr 15 min 29 sec) 
Heartbeat CPU 3 instructions: 3190000000 cycles: 4527223536 heartbeat IPC: 0.65455 cumulative IPC: 0.657897 (Simulation time: 12 hr 15 min 38 sec) 
Heartbeat CPU 2 instructions: 2120000000 cycles: 4528924417 heartbeat IPC: 0.424893 cumulative IPC: 0.421332 (Simulation time: 12 hr 15 min 53 sec) 
Heartbeat CPU 0 instructions: 5490000000 cycles: 4534787264 heartbeat IPC: 1.1651 cumulative IPC: 1.14671 (Simulation time: 12 hr 16 min 46 sec) 
Heartbeat CPU 3 instructions: 3200000000 cycles: 4542760998 heartbeat IPC: 0.643606 cumulative IPC: 0.657847 (Simulation time: 12 hr 17 min 56 sec) 
Heartbeat CPU 0 instructions: 5500000000 cycles: 4543358651 heartbeat IPC: 1.16667 cumulative IPC: 1.14675 (Simulation time: 12 hr 18 min 0 sec) 
Heartbeat CPU 0 instructions: 5510000000 cycles: 4551890217 heartbeat IPC: 1.17212 cumulative IPC: 1.1468 (Simulation time: 12 hr 19 min 13 sec) 
Heartbeat CPU 2 instructions: 2130000000 cycles: 4555217528 heartbeat IPC: 0.380328 cumulative IPC: 0.421087 (Simulation time: 12 hr 19 min 43 sec) 
Heartbeat CPU 3 instructions: 3210000001 cycles: 4558272225 heartbeat IPC: 0.644694 cumulative IPC: 0.6578 (Simulation time: 12 hr 20 min 10 sec) 
Heartbeat CPU 0 instructions: 5520000000 cycles: 4560454659 heartbeat IPC: 1.16762 cumulative IPC: 1.14684 (Simulation time: 12 hr 20 min 30 sec) 
Heartbeat CPU 1 instructions: 1190000001 cycles: 4564011627 heartbeat IPC: 0.228239 cumulative IPC: 0.224211 (Simulation time: 12 hr 21 min 2 sec) 
Heartbeat CPU 0 instructions: 5530000000 cycles: 4568994628 heartbeat IPC: 1.17096 cumulative IPC: 1.14689 (Simulation time: 12 hr 21 min 47 sec) 
Heartbeat CPU 3 instructions: 3220000000 cycles: 4573020718 heartbeat IPC: 0.678035 cumulative IPC: 0.657868 (Simulation time: 12 hr 22 min 24 sec) 
Heartbeat CPU 0 instructions: 5540000000 cycles: 4577557886 heartbeat IPC: 1.16778 cumulative IPC: 1.14693 (Simulation time: 12 hr 23 min 4 sec) 
Heartbeat CPU 2 instructions: 2140000000 cycles: 4578780786 heartbeat IPC: 0.42439 cumulative IPC: 0.421105 (Simulation time: 12 hr 23 min 15 sec) 
Heartbeat CPU 0 instructions: 5550000000 cycles: 4586126603 heartbeat IPC: 1.16704 cumulative IPC: 1.14697 (Simulation time: 12 hr 24 min 22 sec) 
Heartbeat CPU 3 instructions: 3230000001 cycles: 4588344282 heartbeat IPC: 0.65259 cumulative IPC: 0.65785 (Simulation time: 12 hr 24 min 42 sec) 
Heartbeat CPU 0 instructions: 5560000000 cycles: 4594683930 heartbeat IPC: 1.16859 cumulative IPC: 1.14701 (Simulation time: 12 hr 25 min 39 sec) 
Heartbeat CPU 2 instructions: 2150000002 cycles: 4602544167 heartbeat IPC: 0.420816 cumulative IPC: 0.421103 (Simulation time: 12 hr 26 min 50 sec) 
Heartbeat CPU 0 instructions: 5570000000 cycles: 4603228665 heartbeat IPC: 1.17031 cumulative IPC: 1.14705 (Simulation time: 12 hr 26 min 56 sec) 
Heartbeat CPU 3 instructions: 3240000000 cycles: 4603540950 heartbeat IPC: 0.658039 cumulative IPC: 0.65785 (Simulation time: 12 hr 26 min 59 sec) 
Heartbeat CPU 1 instructions: 1200000000 cycles: 4607341417 heartbeat IPC: 0.230788 cumulative IPC: 0.224275 (Simulation time: 12 hr 27 min 33 sec) 
Finished CPU 1 instructions: 1000000000 cycles: 4458821554 cumulative IPC: 0.224275 (Simulation time: 12 hr 27 min 33 sec) 

CPU 0 Branch Prediction Accuracy: 99.9014% MPKI: 0.0470422

CPU 1 Branch Prediction Accuracy: 96.1636% MPKI: 5.73015

CPU 2 Branch Prediction Accuracy: 99.8616% MPKI: 0.283097

CPU 3 Branch Prediction Accuracy: 96.5879% MPKI: 4.32922

ChampSim completed all CPUs

Total Simulation Statistics (not including warmup)

CPU 0 cumulative IPC: 1.14707 instructions: 5114597675 cycles: 4458821554
L1D TOTAL     ACCESS: 1585402986  HIT: 1473521483  MISS:  111881503
L1D LOAD      ACCESS: 1330070229  HIT: 1220710593  MISS:  109359636
L1D RFO       ACCESS:  255332757  HIT:  252810890  MISS:    2521867
L1D PREFETCH  ACCESS:          0  HIT:          0  MISS:          0
L1D WRITEBACK ACCESS:          0  HIT:          0  MISS:          0
L1I TOTAL     ACCESS: 1237166092  HIT: 1237166047  MISS:         45
L1I LOAD      ACCESS: 1237166092  HIT: 1237166047  MISS:         45
L1I RFO       ACCESS:          0  HIT:          0  MISS:          0
L1I PREFETCH  ACCESS:          0  HIT:          0  MISS:          0
L1I WRITEBACK ACCESS:          0  HIT:          0  MISS:          0
L2C TOTAL     ACCESS:  181328073  HIT:   75394087  MISS:  105933986
L2C LOAD      ACCESS:  109357686  HIT:   43762744  MISS:   65594942
L2C RFO       ACCESS:    2475675  HIT:     535593  MISS:    1940082
L2C PREFETCH  ACCESS:   60116530  HIT:   21718902  MISS:   38397628
L2C WRITEBACK ACCESS:    9378182  HIT:    9376848  MISS:       1334
LLC TOTAL     ACCESS:  528553031  HIT:  422663909  MISS:  105889122
LLC LOAD      ACCESS:   57985612  HIT:   51884416  MISS:    6101196
LLC RFO       ACCESS:    1940082  HIT:         44  MISS:    1940038
LLC PREFETCH  ACCESS:  459993027  HIT:  362146296  MISS:   97846731
LLC WRITEBACK ACCESS:    8634310  HIT:    8633153  MISS:       1157

CPU 1 cumulative IPC: 0.224275 instructions: 1000000000 cycles: 4458821554
L1D TOTAL     ACCESS:  448067412  HIT:  427469700  MISS:   20597712
L1D LOAD      ACCESS:  267007738  HIT:  248917247  MISS:   18090491
L1D RFO       ACCESS:  181059674  HIT:  178552453  MISS:    2507221
L1D PREFETCH  ACCESS:          0  HIT:          0  MISS:          0
L1D WRITEBACK ACCESS:          0  HIT:          0  MISS:          0
L1I TOTAL     ACCESS:  350640994  HIT:  349987297  MISS:     653697
L1I LOAD      ACCESS:  350640994  HIT:  349987297  MISS:     653697
L1I RFO       ACCESS:          0  HIT:          0  MISS:          0
L1I PREFETCH  ACCESS:          0  HIT:          0  MISS:          0
L1I WRITEBACK ACCESS:          0  HIT:          0  MISS:          0
L2C TOTAL     ACCESS:   34583175  HIT:   18943836  MISS:   15639339
L2C LOAD      ACCESS:   18743450  HIT:    5753624  MISS:   12989826
L2C RFO       ACCESS:    2507093  HIT:     482077  MISS:    2025016
L2C PREFETCH  ACCESS:    3565944  HIT:    2968681  MISS:     597263
L2C WRITEBACK ACCESS:    9766688  HIT:    9739454  MISS:      27234
LLC TOTAL     ACCESS:   44655261  HIT:   21850428  MISS:   22804833
LLC LOAD      ACCESS:   12983957  HIT:    4290884  MISS:    8693073
LLC RFO       ACCESS:    2021591  HIT:     760343  MISS:    1261248
LLC PREFETCH  ACCESS:   22221193  HIT:    9527199  MISS:   12693994
LLC WRITEBACK ACCESS:    7428520  HIT:    7272002  MISS:     156518

CPU 2 cumulative IPC: 0.421092 instructions: 1877574926 cycles: 4458821555
L1D TOTAL     ACCESS:  599558765  HIT:  568204762  MISS:   31354003
L1D LOAD      ACCESS:  389150182  HIT:  357821575  MISS:   31328607
L1D RFO       ACCESS:  210408583  HIT:  210383187  MISS:      25396
L1D PREFETCH  ACCESS:          0  HIT:          0  MISS:          0
L1D WRITEBACK ACCESS:          0  HIT:          0  MISS:          0
L1I TOTAL     ACCESS:  727934997  HIT:  727934996  MISS:          1
L1I LOAD      ACCESS:  727934997  HIT:  727934996  MISS:          1
L1I RFO       ACCESS:          0  HIT:          0  MISS:          0
L1I PREFETCH  ACCESS:          0  HIT:          0  MISS:          0
L1I WRITEBACK ACCESS:          0  HIT:          0  MISS:          0
L2C TOTAL     ACCESS:  147222341  HIT:  131324271  MISS:   15898070
L2C LOAD      ACCESS:   31328607  HIT:   25552711  MISS:    5775896
L2C RFO       ACCESS:      25396  HIT:       5182  MISS:      20214
L2C PREFETCH  ACCESS:  115559095  HIT:  105457265  MISS:   10101830
L2C WRITEBACK ACCESS:     309243  HIT:     309113  MISS:        130
LLC TOTAL     ACCESS:  120795349  HIT:  104188136  MISS:   16607213
LLC LOAD      ACCESS:    5650251  HIT:    4767390  MISS:     882861
LLC RFO       ACCESS:      20205  HIT:       1079  MISS:      19126
LLC PREFETCH  ACCESS:  114972427  HIT:   99302269  MISS:   15670158
LLC WRITEBACK ACCESS:     152466  HIT:     117398  MISS:      35068

CPU 3 cumulative IPC: 0.657856 instructions: 2933260624 cycles: 4458821555
L1D TOTAL     ACCESS:  770794794  HIT:  749499867  MISS:   21294927
L1D LOAD      ACCESS:  463009819  HIT:  442612438  MISS:   20397381
L1D RFO       ACCESS:  307784975  HIT:  306887429  MISS:     897546
L1D PREFETCH  ACCESS:          0  HIT:          0  MISS:          0
L1D WRITEBACK ACCESS:          0  HIT:          0  MISS:          0
L1I TOTAL     ACCESS:  652340623  HIT:  652340620  MISS:          3
L1I LOAD      ACCESS:  652340623  HIT:  652340620  MISS:          3
L1I RFO       ACCESS:          0  HIT:          0  MISS:          0
L1I PREFETCH  ACCESS:          0  HIT:          0  MISS:          0
L1I WRITEBACK ACCESS:          0  HIT:          0  MISS:          0
L2C TOTAL     ACCESS:   31696149  HIT:   17853999  MISS:   13842150
L2C LOAD      ACCESS:   20397384  HIT:    7172868  MISS:   13224516
L2C RFO       ACCESS:     897509  HIT:     445445  MISS:     452064
L2C PREFETCH  ACCESS:    8973668  HIT:    8812864  MISS:     160804
L2C WRITEBACK ACCESS:    1427588  HIT:    1422822  MISS:       4766
LLC TOTAL     ACCESS:   25298000  HIT:   23825135  MISS:    1472865
LLC LOAD      ACCESS:   13216927  HIT:   12809377  MISS:     407550
LLC RFO       ACCESS:     452059  HIT:      48531  MISS:     403528
LLC PREFETCH  ACCESS:   11095883  HIT:   10536999  MISS:     558884
LLC WRITEBACK ACCESS:     533131  HIT:     430228  MISS:     102903

Region of Interest Statistics

CPU 0 cumulative IPC: 1.15089 instructions: 1000000001 cycles: 868890241
L1D TOTAL     ACCESS:  347097017  HIT:  325463986  MISS:   21633031
L1D LOAD      ACCESS:  292062671  HIT:  271016497  MISS:   21046174
L1D RFO       ACCESS:   55034346  HIT:   54447489  MISS:     586857
L1D PREFETCH  ACCESS:          0  HIT:          0  MISS:          0
L1D WRITEBACK ACCESS:          0  HIT:          0  MISS:          0
L1D PREFETCH  REQUESTED:          0  ISSUED:          0  USEFUL:          0  USELESS:          0
L1I TOTAL     ACCESS:  247221260  HIT:  247221215  MISS:         45
L1I LOAD      ACCESS:  247221260  HIT:  247221215  MISS:         45
L1I RFO       ACCESS:          0  HIT:          0  MISS:          0
L1I PREFETCH  ACCESS:          0  HIT:          0  MISS:          0
L1I WRITEBACK ACCESS:          0  HIT:          0  MISS:          0
L1I PREFETCH  REQUESTED:          0  ISSUED:          0  USEFUL:          0  USELESS:          0
L2C TOTAL     ACCESS:   35084423  HIT:   14822389  MISS:   20262034
L2C LOAD      ACCESS:   21045767  HIT:    7985162  MISS:   13060605
L2C RFO       ACCESS:     576207  HIT:     123463  MISS:     452744
L2C PREFETCH  ACCESS:   11751450  HIT:    5002911  MISS:    6748539
L2C WRITEBACK ACCESS:    1710999  HIT:    1710853  MISS:        146
L2C PREFETCH  REQUESTED:  916614771  ISSUED:  675003153  USEFUL:   45971604  USELESS:       1842
LLC TOTAL     ACCESS:   93302525  HIT:   73053867  MISS:   20248658
LLC LOAD      ACCESS:   11955290  HIT:   10672317  MISS:    1282973
LLC RFO       ACCESS:     452744  HIT:         13  MISS:     452731
LLC PREFETCH  ACCESS:   79354031  HIT:   60841358  MISS:   18512673
LLC WRITEBACK ACCESS:    1540460  HIT:    1540179  MISS:        281
LLC PREFETCH  REQUESTED:          0  ISSUED:          0  USEFUL:   62948365  USELESS:   79804580
Major fault: 0 Minor fault: 529860

CPU 1 cumulative IPC: 0.224275 instructions: 1000000000 cycles: 4458821554
L1D TOTAL     ACCESS:  448067412  HIT:  427469700  MISS:   20597712
L1D LOAD      ACCESS:  267007738  HIT:  248917247  MISS:   18090491
L1D RFO       ACCESS:  181059674  HIT:  178552453  MISS:    2507221
L1D PREFETCH  ACCESS:          0  HIT:          0  MISS:          0
L1D WRITEBACK ACCESS:          0  HIT:          0  MISS:          0
L1D PREFETCH  REQUESTED:          0  ISSUED:          0  USEFUL:          0  USELESS:          0
L1I TOTAL     ACCESS:  350640994  HIT:  349987297  MISS:     653697
L1I LOAD      ACCESS:  350640994  HIT:  349987297  MISS:     653697
L1I RFO       ACCESS:          0  HIT:          0  MISS:          0
L1I PREFETCH  ACCESS:          0  HIT:          0  MISS:          0
L1I WRITEBACK ACCESS:          0  HIT:          0  MISS:          0
L1I PREFETCH  REQUESTED:          0  ISSUED:          0  USEFUL:          0  USELESS:          0
L2C TOTAL     ACCESS:   34583175  HIT:   18943836  MISS:   15639339
L2C LOAD      ACCESS:   18743450  HIT:    5753624  MISS:   12989826
L2C RFO       ACCESS:    2507093  HIT:     482077  MISS:    2025016
L2C PREFETCH  ACCESS:    3565944  HIT:    2968681  MISS:     597263
L2C WRITEBACK ACCESS:    9766688  HIT:    9739454  MISS:      27234
L2C PREFETCH  REQUESTED:   33318641  ISSUED:   33318335  USEFUL:     182223  USELESS:     538659
LLC TOTAL     ACCESS:   44655261  HIT:   21850428  MISS:   22804833
LLC LOAD      ACCESS:   12983957  HIT:    4290884  MISS:    8693073
LLC RFO       ACCESS:    2021591  HIT:     760343  MISS:    1261248
LLC PREFETCH  ACCESS:   22221193  HIT:    9527199  MISS:   12693994
LLC WRITEBACK ACCESS:    7428520  HIT:    7272002  MISS:     156518
LLC PREFETCH  REQUESTED:          0  ISSUED:          0  USEFUL:   62948365  USELESS:   79804580
Major fault: 0 Minor fault: 55545

CPU 2 cumulative IPC: 0.421442 instructions: 1000000003 cycles: 2372807902
L1D TOTAL     ACCESS:  319434671  HIT:  302776608  MISS:   16658063
L1D LOAD      ACCESS:  207290207  HIT:  190643828  MISS:   16646379
L1D RFO       ACCESS:  112144464  HIT:  112132780  MISS:      11684
L1D PREFETCH  ACCESS:          0  HIT:          0  MISS:          0
L1D WRITEBACK ACCESS:          0  HIT:          0  MISS:          0
L1D PREFETCH  REQUESTED:          0  ISSUED:          0  USEFUL:          0  USELESS:          0
L1I TOTAL     ACCESS:  385861747  HIT:  385861746  MISS:          1
L1I LOAD      ACCESS:  385861747  HIT:  385861746  MISS:          1
L1I RFO       ACCESS:          0  HIT:          0  MISS:          0
L1I PREFETCH  ACCESS:          0  HIT:          0  MISS:          0
L1I WRITEBACK ACCESS:          0  HIT:          0  MISS:          0
L1I PREFETCH  REQUESTED:          0  ISSUED:          0  USEFUL:          0  USELESS:          0
L2C TOTAL     ACCESS:   77517062  HIT:   68929278  MISS:    8587784
L2C LOAD      ACCESS:   16646379  HIT:   13530195  MISS:    3116184
L2C RFO       ACCESS:      11684  HIT:       2213  MISS:       9471
L2C PREFETCH  ACCESS:   60697206  HIT:   55235122  MISS:    5462084
L2C WRITEBACK ACCESS:     161793  HIT:     161748  MISS:         45
L2C PREFETCH  REQUESTED:  259410410  ISSUED:  259410316  USEFUL:   11629480  USELESS:      63597
LLC TOTAL     ACCESS:   65337817  HIT:   56470768  MISS:    8867049
LLC LOAD      ACCESS:    3046147  HIT:    2585393  MISS:     460754
LLC RFO       ACCESS:       9465  HIT:        520  MISS:       8945
LLC PREFETCH  ACCESS:   62203583  HIT:   53823554  MISS:    8380029
LLC WRITEBACK ACCESS:      78622  HIT:      61301  MISS:      17321
LLC PREFETCH  REQUESTED:          0  ISSUED:          0  USEFUL:   62948365  USELESS:   79804580
Major fault: 0 Minor fault: 13708

CPU 3 cumulative IPC: 0.650389 instructions: 1000000001 cycles: 1537541442
L1D TOTAL     ACCESS:  264682331  HIT:  257264747  MISS:    7417584
L1D LOAD      ACCESS:  158318387  HIT:  151196769  MISS:    7121618
L1D RFO       ACCESS:  106363944  HIT:  106067978  MISS:     295966
L1D PREFETCH  ACCESS:          0  HIT:          0  MISS:          0
L1D WRITEBACK ACCESS:          0  HIT:          0  MISS:          0
L1D PREFETCH  REQUESTED:          0  ISSUED:          0  USEFUL:          0  USELESS:          0
L1I TOTAL     ACCESS:  223492045  HIT:  223492042  MISS:          3
L1I LOAD      ACCESS:  223492045  HIT:  223492042  MISS:          3
L1I RFO       ACCESS:          0  HIT:          0  MISS:          0
L1I PREFETCH  ACCESS:          0  HIT:          0  MISS:          0
L1I WRITEBACK ACCESS:          0  HIT:          0  MISS:          0
L1I PREFETCH  REQUESTED:          0  ISSUED:          0  USEFUL:          0  USELESS:          0
L2C TOTAL     ACCESS:   10690254  HIT:    5461187  MISS:    5229067
L2C LOAD      ACCESS:    7121621  HIT:    2102387  MISS:    5019234
L2C RFO       ACCESS:     295950  HIT:     148349  MISS:     147601
L2C PREFETCH  ACCESS:    2799068  HIT:    2738240  MISS:      60828
L2C WRITEBACK ACCESS:     473615  HIT:     472211  MISS:       1404
L2C PREFETCH  REQUESTED:   22626514  ISSUED:   22626510  USEFUL:     130301  USELESS:      43932
LLC TOTAL     ACCESS:    9483254  HIT:    8999354  MISS:     483900
LLC LOAD      ACCESS:    5016200  HIT:    4885650  MISS:     130550
LLC RFO       ACCESS:     147598  HIT:      14505  MISS:     133093
LLC PREFETCH  ACCESS:    4142385  HIT:    3949533  MISS:     192852
LLC WRITEBACK ACCESS:     177071  HIT:     149666  MISS:      27405
LLC PREFETCH  REQUESTED:          0  ISSUED:          0  USEFUL:   62948365  USELESS:   79804580
Major fault: 0 Minor fault: 4854

DRAM Statistics
 CHANNEL 0
 RQ ROW_BUFFER_HIT:   45111375  ROW_BUFFER_MISS:   28106947
 DBUS_CONGESTED:   85111905
 WQ ROW_BUFFER_HIT:     720135  ROW_BUFFER_MISS:    6783799  FULL:          0

 CHANNEL 1
 RQ ROW_BUFFER_HIT:   45070426  ROW_BUFFER_MISS:   28174763
 DBUS_CONGESTED:   85111905
 WQ ROW_BUFFER_HIT:     720972  ROW_BUFFER_MISS:    6775721  FULL:          0

 AVG_CONGESTED_CYCLE: 12
