Initialize SIGNATURE TABLE
ST_SET: 1
ST_WAY: 256
ST_TAG_BIT: 16
ST_TAG_MASK: ffff

Initialize PATTERN TABLE
PT_SET: 512
PT_WAY: 4
SIG_DELTA_BIT: 7
C_SIG_BIT: 4
C_DELTA_BIT: 4

Initialize PREFETCH FILTER
FILTER_SET: 1024

*** ChampSim Multicore Out-of-Order Simulator ***

Warmup Instructions: 200000000
Simulation Instructions: 1000000000
Number of CPUs: 4
LLC sets: 8192
LLC ways: 16
Off-chip DRAM Size: 8192 MB Channels: 2 Width: 64-bit Data Rate: 1600 MT/s

CPU 0 runs /scratch/user/djimenez/champsim-traces/speccpu2017/xz/654.roms_s/654.roms_s-523B.champsimtrace.xz
CPU 1 runs /scratch/user/djimenez/champsim-traces/speccpu2017/xz/649.fotonik3d_s/649.fotonik3d_s-8225B.champsimtrace.xz
CPU 2 runs /scratch/user/djimenez/champsim-traces/speccpu2017/xz/605.mcf_s/605.mcf_s-1554B.champsimtrace.xz
CPU 3 runs /scratch/user/djimenez/champsim-traces/speccpu2017/xz/619.lbm_s/619.lbm_s-4268B.champsimtrace.xz
Heartbeat CPU 1 instructions: 10000001 cycles: 4415997 heartbeat IPC: 2.26449 cumulative IPC: 2.26449 (Simulation time: 0 hr 1 min 59 sec) 
Heartbeat CPU 0 instructions: 10000001 cycles: 4651273 heartbeat IPC: 2.14995 cumulative IPC: 2.14995 (Simulation time: 0 hr 2 min 6 sec) 
Heartbeat CPU 3 instructions: 10000001 cycles: 4964814 heartbeat IPC: 2.01417 cumulative IPC: 2.01417 (Simulation time: 0 hr 2 min 14 sec) 
Heartbeat CPU 2 instructions: 10000001 cycles: 5944621 heartbeat IPC: 1.68219 cumulative IPC: 1.68219 (Simulation time: 0 hr 2 min 40 sec) 
Heartbeat CPU 1 instructions: 20000000 cycles: 8834582 heartbeat IPC: 2.26317 cumulative IPC: 2.26383 (Simulation time: 0 hr 3 min 56 sec) 
Heartbeat CPU 0 instructions: 20000000 cycles: 9087571 heartbeat IPC: 2.25413 cumulative IPC: 2.20081 (Simulation time: 0 hr 4 min 3 sec) 
Heartbeat CPU 3 instructions: 20000000 cycles: 9997745 heartbeat IPC: 1.98691 cumulative IPC: 2.00045 (Simulation time: 0 hr 4 min 28 sec) 
Heartbeat CPU 2 instructions: 20000000 cycles: 12352324 heartbeat IPC: 1.56062 cumulative IPC: 1.61913 (Simulation time: 0 hr 5 min 32 sec) 
Heartbeat CPU 1 instructions: 30000003 cycles: 13270888 heartbeat IPC: 2.25413 cumulative IPC: 2.26059 (Simulation time: 0 hr 5 min 57 sec) 
Heartbeat CPU 0 instructions: 30000002 cycles: 14793572 heartbeat IPC: 1.75254 cumulative IPC: 2.02791 (Simulation time: 0 hr 6 min 39 sec) 
Heartbeat CPU 3 instructions: 30000000 cycles: 15029279 heartbeat IPC: 1.98747 cumulative IPC: 1.9961 (Simulation time: 0 hr 6 min 45 sec) 
Heartbeat CPU 1 instructions: 40000000 cycles: 17696096 heartbeat IPC: 2.25978 cumulative IPC: 2.26039 (Simulation time: 0 hr 7 min 59 sec) 
Heartbeat CPU 2 instructions: 30000003 cycles: 18618994 heartbeat IPC: 1.59574 cumulative IPC: 1.61126 (Simulation time: 0 hr 8 min 24 sec) 
Heartbeat CPU 0 instructions: 40000000 cycles: 19615294 heartbeat IPC: 2.07395 cumulative IPC: 2.03923 (Simulation time: 0 hr 8 min 52 sec) 
Heartbeat CPU 3 instructions: 40000000 cycles: 20084807 heartbeat IPC: 1.97803 cumulative IPC: 1.99156 (Simulation time: 0 hr 9 min 6 sec) 
Heartbeat CPU 1 instructions: 50000002 cycles: 22114017 heartbeat IPC: 2.26351 cumulative IPC: 2.26101 (Simulation time: 0 hr 10 min 2 sec) 
Heartbeat CPU 2 instructions: 40000000 cycles: 24662268 heartbeat IPC: 1.65473 cumulative IPC: 1.62191 (Simulation time: 0 hr 11 min 13 sec) 
Heartbeat CPU 0 instructions: 50000001 cycles: 24930977 heartbeat IPC: 1.88123 cumulative IPC: 2.00554 (Simulation time: 0 hr 11 min 21 sec) 
Heartbeat CPU 3 instructions: 50000001 cycles: 25088697 heartbeat IPC: 1.99845 cumulative IPC: 1.99293 (Simulation time: 0 hr 11 min 25 sec) 
Heartbeat CPU 1 instructions: 60000000 cycles: 26528720 heartbeat IPC: 2.26516 cumulative IPC: 2.2617 (Simulation time: 0 hr 12 min 6 sec) 
Heartbeat CPU 3 instructions: 60000000 cycles: 30107076 heartbeat IPC: 1.99268 cumulative IPC: 1.99289 (Simulation time: 0 hr 13 min 58 sec) 
Heartbeat CPU 0 instructions: 60000000 cycles: 30154482 heartbeat IPC: 1.91442 cumulative IPC: 1.98975 (Simulation time: 0 hr 14 min 0 sec) 
Heartbeat CPU 2 instructions: 50000003 cycles: 30658757 heartbeat IPC: 1.66764 cumulative IPC: 1.63086 (Simulation time: 0 hr 14 min 14 sec) 
Heartbeat CPU 1 instructions: 70000001 cycles: 30942973 heartbeat IPC: 2.26539 cumulative IPC: 2.26223 (Simulation time: 0 hr 14 min 23 sec) 
Heartbeat CPU 3 instructions: 70000003 cycles: 35118618 heartbeat IPC: 1.99539 cumulative IPC: 1.99324 (Simulation time: 0 hr 16 min 33 sec) 
Heartbeat CPU 0 instructions: 70000002 cycles: 35216231 heartbeat IPC: 1.9756 cumulative IPC: 1.98772 (Simulation time: 0 hr 16 min 35 sec) 
Heartbeat CPU 1 instructions: 80000000 cycles: 35356979 heartbeat IPC: 2.26552 cumulative IPC: 2.26264 (Simulation time: 0 hr 16 min 39 sec) 
Heartbeat CPU 2 instructions: 60000000 cycles: 36644725 heartbeat IPC: 1.67057 cumulative IPC: 1.63734 (Simulation time: 0 hr 17 min 27 sec) 
Heartbeat CPU 1 instructions: 90000002 cycles: 39770523 heartbeat IPC: 2.26575 cumulative IPC: 2.26298 (Simulation time: 0 hr 19 min 22 sec) 
Heartbeat CPU 3 instructions: 80000000 cycles: 40096199 heartbeat IPC: 2.00901 cumulative IPC: 1.9952 (Simulation time: 0 hr 19 min 34 sec) 
Heartbeat CPU 0 instructions: 80000000 cycles: 40336485 heartbeat IPC: 1.95303 cumulative IPC: 1.98332 (Simulation time: 0 hr 19 min 42 sec) 
Heartbeat CPU 2 instructions: 70000002 cycles: 42620964 heartbeat IPC: 1.67329 cumulative IPC: 1.64238 (Simulation time: 0 hr 20 min 46 sec) 
Heartbeat CPU 1 instructions: 100000000 cycles: 44183305 heartbeat IPC: 2.26614 cumulative IPC: 2.2633 (Simulation time: 0 hr 21 min 29 sec) 
Heartbeat CPU 0 instructions: 90000003 cycles: 45008394 heartbeat IPC: 2.14045 cumulative IPC: 1.99963 (Simulation time: 0 hr 21 min 56 sec) 
Heartbeat CPU 3 instructions: 90000000 cycles: 45073574 heartbeat IPC: 2.00909 cumulative IPC: 1.99674 (Simulation time: 0 hr 21 min 59 sec) 
Heartbeat CPU 2 instructions: 80000000 cycles: 48505360 heartbeat IPC: 1.69941 cumulative IPC: 1.6493 (Simulation time: 0 hr 23 min 39 sec) 
Heartbeat CPU 1 instructions: 110000000 cycles: 48595882 heartbeat IPC: 2.26625 cumulative IPC: 2.26357 (Simulation time: 0 hr 23 min 42 sec) 
Heartbeat CPU 0 instructions: 100000000 cycles: 49364010 heartbeat IPC: 2.29589 cumulative IPC: 2.02577 (Simulation time: 0 hr 24 min 1 sec) 
Heartbeat CPU 3 instructions: 100000000 cycles: 50087623 heartbeat IPC: 1.9944 cumulative IPC: 1.9965 (Simulation time: 0 hr 24 min 20 sec) 
Heartbeat CPU 1 instructions: 120000000 cycles: 53039148 heartbeat IPC: 2.2506 cumulative IPC: 2.26248 (Simulation time: 0 hr 25 min 36 sec) 
Heartbeat CPU 2 instructions: 90000003 cycles: 54943668 heartbeat IPC: 1.5532 cumulative IPC: 1.63804 (Simulation time: 0 hr 26 min 25 sec) 
Heartbeat CPU 0 instructions: 110000002 cycles: 55040081 heartbeat IPC: 1.76178 cumulative IPC: 1.99854 (Simulation time: 0 hr 26 min 28 sec) 
Heartbeat CPU 3 instructions: 110000002 cycles: 55164422 heartbeat IPC: 1.96975 cumulative IPC: 1.99404 (Simulation time: 0 hr 26 min 31 sec) 
Heartbeat CPU 1 instructions: 130000002 cycles: 57463914 heartbeat IPC: 2.26001 cumulative IPC: 2.26229 (Simulation time: 0 hr 27 min 31 sec) 
Heartbeat CPU 0 instructions: 120000000 cycles: 59896425 heartbeat IPC: 2.05916 cumulative IPC: 2.00346 (Simulation time: 0 hr 28 min 34 sec) 
Heartbeat CPU 3 instructions: 120000000 cycles: 60242384 heartbeat IPC: 1.96929 cumulative IPC: 1.99195 (Simulation time: 0 hr 28 min 43 sec) 
Heartbeat CPU 2 instructions: 100000000 cycles: 61193410 heartbeat IPC: 1.60007 cumulative IPC: 1.63416 (Simulation time: 0 hr 29 min 8 sec) 
Heartbeat CPU 1 instructions: 140000000 cycles: 61883271 heartbeat IPC: 2.26277 cumulative IPC: 2.26232 (Simulation time: 0 hr 29 min 26 sec) 
Heartbeat CPU 0 instructions: 130000001 cycles: 65195391 heartbeat IPC: 1.88716 cumulative IPC: 1.99401 (Simulation time: 0 hr 30 min 52 sec) 
Heartbeat CPU 3 instructions: 130000003 cycles: 65229118 heartbeat IPC: 2.00532 cumulative IPC: 1.99297 (Simulation time: 0 hr 30 min 53 sec) 
Heartbeat CPU 1 instructions: 150000000 cycles: 66297053 heartbeat IPC: 2.26563 cumulative IPC: 2.26254 (Simulation time: 0 hr 31 min 22 sec) 
Heartbeat CPU 2 instructions: 110000000 cycles: 67207196 heartbeat IPC: 1.66285 cumulative IPC: 1.63673 (Simulation time: 0 hr 31 min 46 sec) 
Heartbeat CPU 3 instructions: 140000000 cycles: 70227447 heartbeat IPC: 2.00067 cumulative IPC: 1.99352 (Simulation time: 0 hr 33 min 5 sec) 
Heartbeat CPU 0 instructions: 140000000 cycles: 70411435 heartbeat IPC: 1.91716 cumulative IPC: 1.98831 (Simulation time: 0 hr 33 min 10 sec) 
Heartbeat CPU 1 instructions: 160000000 cycles: 70710030 heartbeat IPC: 2.26604 cumulative IPC: 2.26276 (Simulation time: 0 hr 33 min 18 sec) 
Heartbeat CPU 2 instructions: 120000000 cycles: 73085025 heartbeat IPC: 1.70131 cumulative IPC: 1.64192 (Simulation time: 0 hr 34 min 22 sec) 
Heartbeat CPU 1 instructions: 170000002 cycles: 75123470 heartbeat IPC: 2.26581 cumulative IPC: 2.26294 (Simulation time: 0 hr 35 min 20 sec) 
Heartbeat CPU 3 instructions: 150000000 cycles: 75243405 heartbeat IPC: 1.99364 cumulative IPC: 1.99353 (Simulation time: 0 hr 35 min 23 sec) 
Heartbeat CPU 0 instructions: 150000003 cycles: 75510820 heartbeat IPC: 1.96102 cumulative IPC: 1.98647 (Simulation time: 0 hr 35 min 31 sec) 
Heartbeat CPU 2 instructions: 130000000 cycles: 79079224 heartbeat IPC: 1.66828 cumulative IPC: 1.64392 (Simulation time: 0 hr 37 min 9 sec) 
Heartbeat CPU 1 instructions: 180000000 cycles: 79539235 heartbeat IPC: 2.26461 cumulative IPC: 2.26303 (Simulation time: 0 hr 37 min 22 sec) 
Heartbeat CPU 3 instructions: 160000000 cycles: 80273659 heartbeat IPC: 1.98797 cumulative IPC: 1.99318 (Simulation time: 0 hr 37 min 42 sec) 
Heartbeat CPU 0 instructions: 160000000 cycles: 80615908 heartbeat IPC: 1.95883 cumulative IPC: 1.98472 (Simulation time: 0 hr 37 min 51 sec) 
Heartbeat CPU 1 instructions: 190000000 cycles: 83954329 heartbeat IPC: 2.26496 cumulative IPC: 2.26314 (Simulation time: 0 hr 39 min 22 sec) 
Heartbeat CPU 2 instructions: 140000000 cycles: 84942962 heartbeat IPC: 1.7054 cumulative IPC: 1.64816 (Simulation time: 0 hr 39 min 49 sec) 
Heartbeat CPU 3 instructions: 170000000 cycles: 85275096 heartbeat IPC: 1.99943 cumulative IPC: 1.99355 (Simulation time: 0 hr 39 min 58 sec) 
Heartbeat CPU 0 instructions: 170000003 cycles: 85312301 heartbeat IPC: 2.12929 cumulative IPC: 1.99268 (Simulation time: 0 hr 39 min 59 sec) 
Heartbeat CPU 1 instructions: 200000000 cycles: 88365962 heartbeat IPC: 2.26673 cumulative IPC: 2.26331 (Simulation time: 0 hr 41 min 23 sec) 
Heartbeat CPU 0 instructions: 180000000 cycles: 89603693 heartbeat IPC: 2.33025 cumulative IPC: 2.00885 (Simulation time: 0 hr 41 min 58 sec) 
Heartbeat CPU 3 instructions: 180000000 cycles: 90321480 heartbeat IPC: 1.98162 cumulative IPC: 1.99288 (Simulation time: 0 hr 42 min 17 sec) 
Heartbeat CPU 2 instructions: 150000001 cycles: 91097123 heartbeat IPC: 1.62492 cumulative IPC: 1.64659 (Simulation time: 0 hr 42 min 38 sec) 
Heartbeat CPU 1 instructions: 210000002 cycles: 92815658 heartbeat IPC: 2.24734 cumulative IPC: 0.10774 (Simulation time: 0 hr 43 min 25 sec) 
Heartbeat CPU 0 instructions: 190000001 cycles: 95288904 heartbeat IPC: 1.75895 cumulative IPC: 1.99394 (Simulation time: 0 hr 44 min 33 sec) 
Heartbeat CPU 3 instructions: 190000001 cycles: 95448918 heartbeat IPC: 1.95029 cumulative IPC: 1.99059 (Simulation time: 0 hr 44 min 37 sec) 
Heartbeat CPU 1 instructions: 220000000 cycles: 97240714 heartbeat IPC: 2.25986 cumulative IPC: 0.205675 (Simulation time: 0 hr 45 min 25 sec) 
Heartbeat CPU 2 instructions: 160000000 cycles: 97270172 heartbeat IPC: 1.61994 cumulative IPC: 1.6449 (Simulation time: 0 hr 45 min 26 sec) 
Heartbeat CPU 0 instructions: 200000000 cycles: 100164014 heartbeat IPC: 2.05124 cumulative IPC: 1.99673 (Simulation time: 0 hr 46 min 45 sec) 
Heartbeat CPU 3 instructions: 200000000 cycles: 100519783 heartbeat IPC: 1.97205 cumulative IPC: 1.98966 (Simulation time: 0 hr 46 min 55 sec) 
Heartbeat CPU 1 instructions: 230000001 cycles: 101662743 heartbeat IPC: 2.26141 cumulative IPC: 0.295093 (Simulation time: 0 hr 47 min 27 sec) 
Heartbeat CPU 2 instructions: 170000002 cycles: 103360603 heartbeat IPC: 1.64192 cumulative IPC: 1.64473 (Simulation time: 0 hr 48 min 15 sec) 
Heartbeat CPU 0 instructions: 210000000 cycles: 105448333 heartbeat IPC: 1.89239 cumulative IPC: 0.0948332 (Simulation time: 0 hr 49 min 13 sec) 
Heartbeat CPU 3 instructions: 210000001 cycles: 105575018 heartbeat IPC: 1.97815 cumulative IPC: 0.0947194 (Simulation time: 0 hr 49 min 16 sec) 
Heartbeat CPU 1 instructions: 240000000 cycles: 106077744 heartbeat IPC: 2.265 cumulative IPC: 0.377082 (Simulation time: 0 hr 49 min 30 sec) 
Heartbeat CPU 2 instructions: 180000000 cycles: 109295899 heartbeat IPC: 1.68484 cumulative IPC: 1.64691 (Simulation time: 0 hr 50 min 59 sec) 
Heartbeat CPU 1 instructions: 250000000 cycles: 110493983 heartbeat IPC: 2.26437 cumulative IPC: 0.452513 (Simulation time: 0 hr 51 min 31 sec) 
Heartbeat CPU 3 instructions: 220000000 cycles: 110625090 heartbeat IPC: 1.98017 cumulative IPC: 0.180791 (Simulation time: 0 hr 51 min 35 sec) 
Heartbeat CPU 0 instructions: 220000000 cycles: 110645837 heartbeat IPC: 1.924 cumulative IPC: 0.180757 (Simulation time: 0 hr 51 min 36 sec) 
Heartbeat CPU 1 instructions: 260000000 cycles: 114910414 heartbeat IPC: 2.26427 cumulative IPC: 0.522146 (Simulation time: 0 hr 53 min 32 sec) 
Heartbeat CPU 2 instructions: 190000001 cycles: 115208956 heartbeat IPC: 1.69117 cumulative IPC: 1.64918 (Simulation time: 0 hr 53 min 41 sec) 
Heartbeat CPU 3 instructions: 230000003 cycles: 115659551 heartbeat IPC: 1.98631 cumulative IPC: 0.259382 (Simulation time: 0 hr 53 min 54 sec) 
Heartbeat CPU 0 instructions: 230000003 cycles: 115775665 heartbeat IPC: 1.94938 cumulative IPC: 0.259122 (Simulation time: 0 hr 53 min 57 sec) 
Heartbeat CPU 1 instructions: 270000001 cycles: 119325601 heartbeat IPC: 2.26491 cumulative IPC: 0.58663 (Simulation time: 0 hr 55 min 35 sec) 
Heartbeat CPU 3 instructions: 240000000 cycles: 120700201 heartbeat IPC: 1.98387 cumulative IPC: 0.3314 (Simulation time: 0 hr 56 min 13 sec) 
Heartbeat CPU 0 instructions: 240000000 cycles: 120860031 heartbeat IPC: 1.96681 cumulative IPC: 0.330961 (Simulation time: 0 hr 56 min 17 sec) 
Heartbeat CPU 2 instructions: 200000000 cycles: 121082306 heartbeat IPC: 1.70261 cumulative IPC: 1.65177 (Simulation time: 0 hr 56 min 23 sec) 

Warmup complete CPU 0 instructions: 240410161 cycles: 121082313 (Simulation time: 0 hr 56 min 23 sec) 
Warmup complete CPU 1 instructions: 273979033 cycles: 121082313 (Simulation time: 0 hr 56 min 23 sec) 
Warmup complete CPU 2 instructions: 200000001 cycles: 121082313 (Simulation time: 0 hr 56 min 23 sec) 
Warmup complete CPU 3 instructions: 240744455 cycles: 121082312 (Simulation time: 0 hr 56 min 23 sec) 

Heartbeat CPU 1 instructions: 280000000 cycles: 128637467 heartbeat IPC: 1.0739 cumulative IPC: 0.796935 (Simulation time: 0 hr 57 min 36 sec) 
Heartbeat CPU 0 instructions: 250000000 cycles: 131921233 heartbeat IPC: 0.904061 cumulative IPC: 0.88476 (Simulation time: 0 hr 58 min 8 sec) 
Heartbeat CPU 1 instructions: 290000001 cycles: 140454808 heartbeat IPC: 0.846214 cumulative IPC: 0.826996 (Simulation time: 0 hr 59 min 36 sec) 
Heartbeat CPU 3 instructions: 250000000 cycles: 141863513 heartbeat IPC: 0.472516 cumulative IPC: 0.445381 (Simulation time: 0 hr 59 min 50 sec) 
Heartbeat CPU 0 instructions: 260000000 cycles: 142532032 heartbeat IPC: 0.942436 cumulative IPC: 0.913291 (Simulation time: 0 hr 59 min 56 sec) 
Heartbeat CPU 1 instructions: 300000000 cycles: 152518419 heartbeat IPC: 0.828939 cumulative IPC: 0.827741 (Simulation time: 1 hr 1 min 26 sec) 
Heartbeat CPU 0 instructions: 270000000 cycles: 159806504 heartbeat IPC: 0.578889 cumulative IPC: 0.764118 (Simulation time: 1 hr 2 min 33 sec) 
Heartbeat CPU 3 instructions: 260000000 cycles: 165268746 heartbeat IPC: 0.427255 cumulative IPC: 0.43578 (Simulation time: 1 hr 3 min 23 sec) 
Heartbeat CPU 1 instructions: 310000000 cycles: 165291619 heartbeat IPC: 0.782889 cumulative IPC: 0.814782 (Simulation time: 1 hr 3 min 23 sec) 
Heartbeat CPU 1 instructions: 320000000 cycles: 176837494 heartbeat IPC: 0.86611 cumulative IPC: 0.825411 (Simulation time: 1 hr 5 min 0 sec) 
Heartbeat CPU 0 instructions: 280000000 cycles: 177000319 heartbeat IPC: 0.581604 cumulative IPC: 0.707998 (Simulation time: 1 hr 5 min 2 sec) 
Heartbeat CPU 1 instructions: 330000002 cycles: 188697464 heartbeat IPC: 0.843173 cumulative IPC: 0.828527 (Simulation time: 1 hr 6 min 49 sec) 
Heartbeat CPU 3 instructions: 270000001 cycles: 188778376 heartbeat IPC: 0.425358 cumulative IPC: 0.43216 (Simulation time: 1 hr 6 min 49 sec) 
Heartbeat CPU 0 instructions: 290000002 cycles: 189607333 heartbeat IPC: 0.793209 cumulative IPC: 0.723675 (Simulation time: 1 hr 6 min 57 sec) 
Heartbeat CPU 1 instructions: 340000000 cycles: 200277631 heartbeat IPC: 0.863545 cumulative IPC: 0.833647 (Simulation time: 1 hr 8 min 30 sec) 
Heartbeat CPU 2 instructions: 210000000 cycles: 203623898 heartbeat IPC: 0.121151 cumulative IPC: 0.121151 (Simulation time: 1 hr 9 min 3 sec) 
Heartbeat CPU 0 instructions: 300000000 cycles: 203808522 heartbeat IPC: 0.704166 cumulative IPC: 0.720326 (Simulation time: 1 hr 9 min 5 sec) 
Heartbeat CPU 3 instructions: 280000000 cycles: 211549361 heartbeat IPC: 0.439155 cumulative IPC: 0.433921 (Simulation time: 1 hr 10 min 22 sec) 
Heartbeat CPU 1 instructions: 350000001 cycles: 211831683 heartbeat IPC: 0.865497 cumulative IPC: 0.837702 (Simulation time: 1 hr 10 min 25 sec) 
Heartbeat CPU 0 instructions: 310000001 cycles: 217565832 heartbeat IPC: 0.726886 cumulative IPC: 0.721261 (Simulation time: 1 hr 11 min 15 sec) 
Heartbeat CPU 1 instructions: 360000000 cycles: 223458487 heartbeat IPC: 0.860081 cumulative IPC: 0.840244 (Simulation time: 1 hr 12 min 11 sec) 
Heartbeat CPU 0 instructions: 320000000 cycles: 229114675 heartbeat IPC: 0.865888 cumulative IPC: 0.736722 (Simulation time: 1 hr 13 min 7 sec) 
Heartbeat CPU 3 instructions: 290000001 cycles: 235017002 heartbeat IPC: 0.426119 cumulative IPC: 0.432314 (Simulation time: 1 hr 14 min 15 sec) 
Heartbeat CPU 1 instructions: 370000000 cycles: 235755276 heartbeat IPC: 0.81322 cumulative IPC: 0.837346 (Simulation time: 1 hr 14 min 22 sec) 
Heartbeat CPU 0 instructions: 330000002 cycles: 240590468 heartbeat IPC: 0.8714 cumulative IPC: 0.749655 (Simulation time: 1 hr 15 min 16 sec) 
Heartbeat CPU 1 instructions: 380000000 cycles: 247187038 heartbeat IPC: 0.874756 cumulative IPC: 0.840737 (Simulation time: 1 hr 16 min 29 sec) 
Heartbeat CPU 0 instructions: 340000000 cycles: 250765618 heartbeat IPC: 0.982786 cumulative IPC: 0.767946 (Simulation time: 1 hr 17 min 14 sec) 
Heartbeat CPU 3 instructions: 300000000 cycles: 257937454 heartbeat IPC: 0.436292 cumulative IPC: 0.43298 (Simulation time: 1 hr 18 min 19 sec) 
Heartbeat CPU 1 instructions: 390000003 cycles: 258981303 heartbeat IPC: 0.84787 cumulative IPC: 0.841348 (Simulation time: 1 hr 18 min 29 sec) 
Heartbeat CPU 0 instructions: 350000001 cycles: 268183228 heartbeat IPC: 0.574132 cumulative IPC: 0.744998 (Simulation time: 1 hr 19 min 52 sec) 
Heartbeat CPU 1 instructions: 400000000 cycles: 271694200 heartbeat IPC: 0.786603 cumulative IPC: 0.836727 (Simulation time: 1 hr 20 min 26 sec) 
Heartbeat CPU 3 instructions: 310000002 cycles: 281546393 heartbeat IPC: 0.423568 cumulative IPC: 0.431595 (Simulation time: 1 hr 22 min 3 sec) 
Heartbeat CPU 1 instructions: 410000000 cycles: 283289130 heartbeat IPC: 0.862446 cumulative IPC: 0.838565 (Simulation time: 1 hr 22 min 20 sec) 
Heartbeat CPU 0 instructions: 360000000 cycles: 285389020 heartbeat IPC: 0.5812 cumulative IPC: 0.727845 (Simulation time: 1 hr 22 min 43 sec) 
Heartbeat CPU 1 instructions: 420000000 cycles: 295272871 heartbeat IPC: 0.834464 cumulative IPC: 0.838283 (Simulation time: 1 hr 24 min 27 sec) 
Heartbeat CPU 0 instructions: 370000000 cycles: 297947244 heartbeat IPC: 0.796291 cumulative IPC: 0.732705 (Simulation time: 1 hr 24 min 54 sec) 
Heartbeat CPU 2 instructions: 220000000 cycles: 305141609 heartbeat IPC: 0.098505 cumulative IPC: 0.108661 (Simulation time: 1 hr 26 min 1 sec) 
Heartbeat CPU 3 instructions: 320000000 cycles: 305241558 heartbeat IPC: 0.422027 cumulative IPC: 0.430364 (Simulation time: 1 hr 26 min 2 sec) 
Heartbeat CPU 1 instructions: 430000003 cycles: 306896899 heartbeat IPC: 0.860287 cumulative IPC: 0.839659 (Simulation time: 1 hr 26 min 17 sec) 
Heartbeat CPU 0 instructions: 380000000 cycles: 312156981 heartbeat IPC: 0.703743 cumulative IPC: 0.730551 (Simulation time: 1 hr 27 min 9 sec) 
Heartbeat CPU 1 instructions: 440000000 cycles: 318458597 heartbeat IPC: 0.864925 cumulative IPC: 0.841139 (Simulation time: 1 hr 28 min 12 sec) 
Heartbeat CPU 0 instructions: 390000001 cycles: 325852697 heartbeat IPC: 0.730155 cumulative IPC: 0.730525 (Simulation time: 1 hr 29 min 19 sec) 
Heartbeat CPU 3 instructions: 330000003 cycles: 328521338 heartbeat IPC: 0.429557 cumulative IPC: 0.430274 (Simulation time: 1 hr 29 min 44 sec) 
Heartbeat CPU 1 instructions: 450000000 cycles: 330017316 heartbeat IPC: 0.865148 cumulative IPC: 0.842468 (Simulation time: 1 hr 30 min 0 sec) 
Heartbeat CPU 0 instructions: 400000000 cycles: 337311599 heartbeat IPC: 0.872684 cumulative IPC: 0.738058 (Simulation time: 1 hr 31 min 12 sec) 
Heartbeat CPU 1 instructions: 460000000 cycles: 342018400 heartbeat IPC: 0.833258 cumulative IPC: 0.841967 (Simulation time: 1 hr 31 min 57 sec) 
Heartbeat CPU 0 instructions: 410000002 cycles: 348987605 heartbeat IPC: 0.856457 cumulative IPC: 0.744124 (Simulation time: 1 hr 33 min 6 sec) 
Heartbeat CPU 3 instructions: 340000000 cycles: 351164963 heartbeat IPC: 0.441625 cumulative IPC: 0.431391 (Simulation time: 1 hr 33 min 27 sec) 
Heartbeat CPU 1 instructions: 470000000 cycles: 353615593 heartbeat IPC: 0.862278 cumulative IPC: 0.84298 (Simulation time: 1 hr 33 min 52 sec) 
Heartbeat CPU 0 instructions: 420000000 cycles: 358880329 heartbeat IPC: 1.01084 cumulative IPC: 0.75522 (Simulation time: 1 hr 34 min 45 sec) 
Heartbeat CPU 1 instructions: 480000000 cycles: 365378058 heartbeat IPC: 0.850162 cumulative IPC: 0.843326 (Simulation time: 1 hr 35 min 44 sec) 
Heartbeat CPU 3 instructions: 350000001 cycles: 373577489 heartbeat IPC: 0.446179 cumulative IPC: 0.432703 (Simulation time: 1 hr 36 min 59 sec) 
Heartbeat CPU 0 instructions: 430000001 cycles: 376380401 heartbeat IPC: 0.571426 cumulative IPC: 0.742621 (Simulation time: 1 hr 37 min 25 sec) 
Heartbeat CPU 1 instructions: 490000001 cycles: 377945846 heartbeat IPC: 0.795685 cumulative IPC: 0.840995 (Simulation time: 1 hr 37 min 39 sec) 
Heartbeat CPU 1 instructions: 500000000 cycles: 389635776 heartbeat IPC: 0.855437 cumulative IPC: 0.841624 (Simulation time: 1 hr 39 min 25 sec) 
Heartbeat CPU 0 instructions: 440000000 cycles: 393495445 heartbeat IPC: 0.584281 cumulative IPC: 0.732673 (Simulation time: 1 hr 39 min 59 sec) 
Heartbeat CPU 3 instructions: 360000000 cycles: 397138988 heartbeat IPC: 0.424421 cumulative IPC: 0.431997 (Simulation time: 1 hr 40 min 32 sec) 
Heartbeat CPU 1 instructions: 510000000 cycles: 401726871 heartbeat IPC: 0.827055 cumulative IPC: 0.840996 (Simulation time: 1 hr 41 min 26 sec) 
Heartbeat CPU 2 instructions: 230000000 cycles: 405451842 heartbeat IPC: 0.0996907 cumulative IPC: 0.105497 (Simulation time: 1 hr 42 min 10 sec) 
Heartbeat CPU 0 instructions: 450000000 cycles: 406166612 heartbeat IPC: 0.789193 cumulative IPC: 0.735186 (Simulation time: 1 hr 42 min 18 sec) 
Heartbeat CPU 1 instructions: 520000000 cycles: 413274886 heartbeat IPC: 0.86595 cumulative IPC: 0.841982 (Simulation time: 1 hr 43 min 38 sec) 
Heartbeat CPU 3 instructions: 370000001 cycles: 419991979 heartbeat IPC: 0.43758 cumulative IPC: 0.432423 (Simulation time: 1 hr 44 min 51 sec) 
Heartbeat CPU 0 instructions: 460000000 cycles: 420439680 heartbeat IPC: 0.70062 cumulative IPC: 0.733537 (Simulation time: 1 hr 44 min 56 sec) 
Heartbeat CPU 1 instructions: 530000002 cycles: 424872731 heartbeat IPC: 0.862229 cumulative IPC: 0.842755 (Simulation time: 1 hr 45 min 47 sec) 
Heartbeat CPU 0 instructions: 470000003 cycles: 434132055 heartbeat IPC: 0.730334 cumulative IPC: 0.733397 (Simulation time: 1 hr 47 min 26 sec) 
Heartbeat CPU 1 instructions: 540000000 cycles: 436419823 heartbeat IPC: 0.866019 cumulative IPC: 0.843607 (Simulation time: 1 hr 47 min 49 sec) 
Heartbeat CPU 3 instructions: 380000000 cycles: 442724763 heartbeat IPC: 0.439893 cumulative IPC: 0.432951 (Simulation time: 1 hr 48 min 58 sec) 
Heartbeat CPU 0 instructions: 480000000 cycles: 445523345 heartbeat IPC: 0.877863 cumulative IPC: 0.73847 (Simulation time: 1 hr 49 min 36 sec) 
Heartbeat CPU 1 instructions: 550000000 cycles: 448237156 heartbeat IPC: 0.846215 cumulative IPC: 0.843701 (Simulation time: 1 hr 50 min 4 sec) 
Heartbeat CPU 0 instructions: 490000003 cycles: 457383720 heartbeat IPC: 0.843144 cumulative IPC: 0.742161 (Simulation time: 1 hr 51 min 40 sec) 
Heartbeat CPU 1 instructions: 560000000 cycles: 459978564 heartbeat IPC: 0.851687 cumulative IPC: 0.843978 (Simulation time: 1 hr 52 min 7 sec) 
Heartbeat CPU 3 instructions: 390000000 cycles: 465354890 heartbeat IPC: 0.441889 cumulative IPC: 0.433539 (Simulation time: 1 hr 53 min 6 sec) 
Heartbeat CPU 0 instructions: 500000000 cycles: 466922710 heartbeat IPC: 1.04833 cumulative IPC: 0.750606 (Simulation time: 1 hr 53 min 22 sec) 
Heartbeat CPU 1 instructions: 570000003 cycles: 471491305 heartbeat IPC: 0.868603 cumulative IPC: 0.844787 (Simulation time: 1 hr 54 min 11 sec) 
Heartbeat CPU 1 instructions: 580000000 cycles: 483780325 heartbeat IPC: 0.813734 cumulative IPC: 0.843735 (Simulation time: 1 hr 56 min 16 sec) 
Heartbeat CPU 0 instructions: 510000001 cycles: 484469690 heartbeat IPC: 0.569899 cumulative IPC: 0.74188 (Simulation time: 1 hr 56 min 23 sec) 
Heartbeat CPU 3 instructions: 400000000 cycles: 488054759 heartbeat IPC: 0.440531 cumulative IPC: 0.433971 (Simulation time: 1 hr 57 min 0 sec) 
Heartbeat CPU 1 instructions: 590000001 cycles: 495947956 heartbeat IPC: 0.821853 cumulative IPC: 0.843025 (Simulation time: 1 hr 58 min 19 sec) 
Heartbeat CPU 0 instructions: 520000000 cycles: 501763596 heartbeat IPC: 0.578238 cumulative IPC: 0.734446 (Simulation time: 1 hr 59 min 15 sec) 
Heartbeat CPU 2 instructions: 240000000 cycles: 506167016 heartbeat IPC: 0.0992899 cumulative IPC: 0.103873 (Simulation time: 2 hr 0 min 2 sec) 
Heartbeat CPU 1 instructions: 600000000 cycles: 507820163 heartbeat IPC: 0.842303 cumulative IPC: 0.843002 (Simulation time: 2 hr 0 min 18 sec) 
Heartbeat CPU 3 instructions: 410000001 cycles: 511341855 heartbeat IPC: 0.429422 cumulative IPC: 0.4337 (Simulation time: 2 hr 0 min 57 sec) 
Heartbeat CPU 0 instructions: 530000000 cycles: 514551224 heartbeat IPC: 0.782006 cumulative IPC: 0.735992 (Simulation time: 2 hr 1 min 30 sec) 
Heartbeat CPU 1 instructions: 610000003 cycles: 519439126 heartbeat IPC: 0.860662 cumulative IPC: 0.843518 (Simulation time: 2 hr 2 min 21 sec) 
Heartbeat CPU 0 instructions: 540000000 cycles: 528743070 heartbeat IPC: 0.70463 cumulative IPC: 0.7349 (Simulation time: 2 hr 3 min 50 sec) 
Heartbeat CPU 1 instructions: 620000000 cycles: 531005388 heartbeat IPC: 0.864583 cumulative IPC: 0.844112 (Simulation time: 2 hr 4 min 13 sec) 
Heartbeat CPU 3 instructions: 420000000 cycles: 534182266 heartbeat IPC: 0.43782 cumulative IPC: 0.433928 (Simulation time: 2 hr 4 min 46 sec) 
Heartbeat CPU 0 instructions: 550000003 cycles: 542229671 heartbeat IPC: 0.741477 cumulative IPC: 0.735111 (Simulation time: 2 hr 5 min 59 sec) 
Heartbeat CPU 1 instructions: 630000001 cycles: 542633021 heartbeat IPC: 0.86002 cumulative IPC: 0.844551 (Simulation time: 2 hr 6 min 2 sec) 
Heartbeat CPU 0 instructions: 560000000 cycles: 553785106 heartbeat IPC: 0.865393 cumulative IPC: 0.73859 (Simulation time: 2 hr 7 min 51 sec) 
Heartbeat CPU 1 instructions: 640000000 cycles: 554345584 heartbeat IPC: 0.853784 cumulative IPC: 0.8448 (Simulation time: 2 hr 7 min 57 sec) 
Heartbeat CPU 3 instructions: 430000003 cycles: 557728311 heartbeat IPC: 0.4247 cumulative IPC: 0.43343 (Simulation time: 2 hr 8 min 27 sec) 
Heartbeat CPU 0 instructions: 570000000 cycles: 565698230 heartbeat IPC: 0.83941 cumulative IPC: 0.741291 (Simulation time: 2 hr 9 min 40 sec) 
Heartbeat CPU 1 instructions: 650000003 cycles: 566352931 heartbeat IPC: 0.832824 cumulative IPC: 0.844477 (Simulation time: 2 hr 9 min 46 sec) 
Heartbeat CPU 0 instructions: 580000000 cycles: 575048044 heartbeat IPC: 1.06954 cumulative IPC: 0.748052 (Simulation time: 2 hr 11 min 8 sec) 
Heartbeat CPU 1 instructions: 660000000 cycles: 577845434 heartbeat IPC: 0.870132 cumulative IPC: 0.845123 (Simulation time: 2 hr 11 min 31 sec) 
Heartbeat CPU 3 instructions: 440000000 cycles: 580558639 heartbeat IPC: 0.438014 cumulative IPC: 0.433658 (Simulation time: 2 hr 11 min 54 sec) 
Heartbeat CPU 1 instructions: 670000000 cycles: 589860994 heartbeat IPC: 0.832254 cumulative IPC: 0.844793 (Simulation time: 2 hr 13 min 14 sec) 
Heartbeat CPU 0 instructions: 590000003 cycles: 592502709 heartbeat IPC: 0.572913 cumulative IPC: 0.741567 (Simulation time: 2 hr 13 min 37 sec) 
Heartbeat CPU 1 instructions: 680000000 cycles: 602231040 heartbeat IPC: 0.808404 cumulative IPC: 0.843858 (Simulation time: 2 hr 15 min 0 sec) 
Heartbeat CPU 3 instructions: 450000002 cycles: 603499775 heartbeat IPC: 0.435898 cumulative IPC: 0.433764 (Simulation time: 2 hr 15 min 11 sec) 
Heartbeat CPU 2 instructions: 250000000 cycles: 607597535 heartbeat IPC: 0.0985897 cumulative IPC: 0.102772 (Simulation time: 2 hr 15 min 45 sec) 
Heartbeat CPU 0 instructions: 600000000 cycles: 609809246 heartbeat IPC: 0.577816 cumulative IPC: 0.735768 (Simulation time: 2 hr 16 min 3 sec) 
Heartbeat CPU 1 instructions: 690000001 cycles: 614014259 heartbeat IPC: 0.848665 cumulative IPC: 0.843972 (Simulation time: 2 hr 16 min 40 sec) 
Heartbeat CPU 0 instructions: 610000003 cycles: 622871022 heartbeat IPC: 0.765593 cumulative IPC: 0.736545 (Simulation time: 2 hr 18 min 2 sec) 
Heartbeat CPU 3 instructions: 460000000 cycles: 625789026 heartbeat IPC: 0.448647 cumulative IPC: 0.434422 (Simulation time: 2 hr 18 min 31 sec) 
Heartbeat CPU 1 instructions: 700000000 cycles: 625790676 heartbeat IPC: 0.849155 cumulative IPC: 0.844093 (Simulation time: 2 hr 18 min 31 sec) 
Heartbeat CPU 0 instructions: 620000000 cycles: 637086787 heartbeat IPC: 0.703444 cumulative IPC: 0.735633 (Simulation time: 2 hr 20 min 10 sec) 
Heartbeat CPU 1 instructions: 710000000 cycles: 637361989 heartbeat IPC: 0.864206 cumulative IPC: 0.844544 (Simulation time: 2 hr 20 min 12 sec) 
Heartbeat CPU 3 instructions: 470000000 cycles: 647622309 heartbeat IPC: 0.458016 cumulative IPC: 0.4354 (Simulation time: 2 hr 21 min 49 sec) 
Heartbeat CPU 1 instructions: 720000000 cycles: 648832606 heartbeat IPC: 0.871793 cumulative IPC: 0.845136 (Simulation time: 2 hr 21 min 59 sec) 
Heartbeat CPU 0 instructions: 630000001 cycles: 650448169 heartbeat IPC: 0.748426 cumulative IPC: 0.735956 (Simulation time: 2 hr 22 min 13 sec) 
Heartbeat CPU 1 instructions: 730000000 cycles: 660481233 heartbeat IPC: 0.85847 cumulative IPC: 0.845424 (Simulation time: 2 hr 23 min 47 sec) 
Heartbeat CPU 0 instructions: 640000000 cycles: 662339470 heartbeat IPC: 0.840951 cumulative IPC: 0.738262 (Simulation time: 2 hr 24 min 5 sec) 
Heartbeat CPU 3 instructions: 480000000 cycles: 668899301 heartbeat IPC: 0.469991 cumulative IPC: 0.436744 (Simulation time: 2 hr 25 min 6 sec) 
Heartbeat CPU 1 instructions: 740000000 cycles: 672486601 heartbeat IPC: 0.832961 cumulative IPC: 0.845153 (Simulation time: 2 hr 25 min 39 sec) 
Heartbeat CPU 0 instructions: 650000001 cycles: 674128019 heartbeat IPC: 0.848281 cumulative IPC: 0.740608 (Simulation time: 2 hr 25 min 54 sec) 
Heartbeat CPU 0 instructions: 660000000 cycles: 683401491 heartbeat IPC: 1.07834 cumulative IPC: 0.746177 (Simulation time: 2 hr 27 min 23 sec) 
Heartbeat CPU 1 instructions: 750000002 cycles: 683832906 heartbeat IPC: 0.881344 cumulative IPC: 0.845883 (Simulation time: 2 hr 27 min 28 sec) 
Heartbeat CPU 3 instructions: 490000000 cycles: 688625319 heartbeat IPC: 0.506945 cumulative IPC: 0.439184 (Simulation time: 2 hr 28 min 9 sec) 
Heartbeat CPU 1 instructions: 760000000 cycles: 695557980 heartbeat IPC: 0.852873 cumulative IPC: 0.846025 (Simulation time: 2 hr 29 min 9 sec) 
Heartbeat CPU 0 instructions: 670000000 cycles: 700715769 heartbeat IPC: 0.577558 cumulative IPC: 0.741141 (Simulation time: 2 hr 29 min 55 sec) 
Heartbeat CPU 1 instructions: 770000000 cycles: 708171283 heartbeat IPC: 0.792814 cumulative IPC: 0.844882 (Simulation time: 2 hr 31 min 5 sec) 
Heartbeat CPU 3 instructions: 500000000 cycles: 708185857 heartbeat IPC: 0.511233 cumulative IPC: 0.441584 (Simulation time: 2 hr 31 min 5 sec) 
Heartbeat CPU 2 instructions: 260000000 cycles: 712669397 heartbeat IPC: 0.095173 cumulative IPC: 0.101422 (Simulation time: 2 hr 31 min 46 sec) 
Heartbeat CPU 0 instructions: 680000000 cycles: 717550874 heartbeat IPC: 0.593997 cumulative IPC: 0.736987 (Simulation time: 2 hr 32 min 31 sec) 
Heartbeat CPU 1 instructions: 780000000 cycles: 719562318 heartbeat IPC: 0.877883 cumulative IPC: 0.84551 (Simulation time: 2 hr 32 min 49 sec) 
Heartbeat CPU 3 instructions: 510000000 cycles: 727450232 heartbeat IPC: 0.519093 cumulative IPC: 0.444046 (Simulation time: 2 hr 34 min 5 sec) 
Heartbeat CPU 0 instructions: 690000003 cycles: 730541649 heartbeat IPC: 0.769777 cumulative IPC: 0.737686 (Simulation time: 2 hr 34 min 38 sec) 
Heartbeat CPU 1 instructions: 790000000 cycles: 731242094 heartbeat IPC: 0.856181 cumulative IPC: 0.845715 (Simulation time: 2 hr 34 min 45 sec) 
Heartbeat CPU 1 instructions: 800000000 cycles: 742653067 heartbeat IPC: 0.876349 cumulative IPC: 0.846277 (Simulation time: 2 hr 36 min 35 sec) 
Heartbeat CPU 0 instructions: 700000000 cycles: 744569254 heartbeat IPC: 0.71288 cumulative IPC: 0.737128 (Simulation time: 2 hr 36 min 55 sec) 
Heartbeat CPU 3 instructions: 520000000 cycles: 745130565 heartbeat IPC: 0.5656 cumulative IPC: 0.44749 (Simulation time: 2 hr 37 min 1 sec) 
Heartbeat CPU 1 instructions: 810000001 cycles: 753989755 heartbeat IPC: 0.882092 cumulative IPC: 0.846918 (Simulation time: 2 hr 38 min 30 sec) 
Heartbeat CPU 0 instructions: 710000002 cycles: 757609853 heartbeat IPC: 0.766836 cumulative IPC: 0.737737 (Simulation time: 2 hr 39 min 1 sec) 
Heartbeat CPU 3 instructions: 530000000 cycles: 762167352 heartbeat IPC: 0.586965 cumulative IPC: 0.451197 (Simulation time: 2 hr 39 min 44 sec) 
Heartbeat CPU 1 instructions: 820000000 cycles: 765491118 heartbeat IPC: 0.869462 cumulative IPC: 0.847321 (Simulation time: 2 hr 40 min 17 sec) 
Heartbeat CPU 0 instructions: 720000000 cycles: 769354275 heartbeat IPC: 0.851468 cumulative IPC: 0.739797 (Simulation time: 2 hr 40 min 56 sec) 
Heartbeat CPU 1 instructions: 830000003 cycles: 777297493 heartbeat IPC: 0.847 cumulative IPC: 0.847315 (Simulation time: 2 hr 42 min 12 sec) 
Heartbeat CPU 3 instructions: 540000000 cycles: 778555352 heartbeat IPC: 0.610203 cumulative IPC: 0.45516 (Simulation time: 2 hr 42 min 24 sec) 
Heartbeat CPU 0 instructions: 730000003 cycles: 781164094 heartbeat IPC: 0.846753 cumulative IPC: 0.741711 (Simulation time: 2 hr 42 min 50 sec) 
Heartbeat CPU 1 instructions: 840000000 cycles: 788472438 heartbeat IPC: 0.894859 cumulative IPC: 0.848111 (Simulation time: 2 hr 44 min 2 sec) 
Heartbeat CPU 0 instructions: 740000000 cycles: 790452755 heartbeat IPC: 1.07658 cumulative IPC: 0.746358 (Simulation time: 2 hr 44 min 22 sec) 
Heartbeat CPU 3 instructions: 550000000 cycles: 793770673 heartbeat IPC: 0.657232 cumulative IPC: 0.459731 (Simulation time: 2 hr 44 min 54 sec) 
Heartbeat CPU 1 instructions: 850000001 cycles: 800136220 heartbeat IPC: 0.857355 cumulative IPC: 0.84827 (Simulation time: 2 hr 45 min 53 sec) 
Heartbeat CPU 2 instructions: 270000002 cycles: 800938018 heartbeat IPC: 0.113291 cumulative IPC: 0.102963 (Simulation time: 2 hr 46 min 0 sec) 
Heartbeat CPU 0 instructions: 750000000 cycles: 807313334 heartbeat IPC: 0.593099 cumulative IPC: 0.742592 (Simulation time: 2 hr 46 min 59 sec) 
Heartbeat CPU 3 instructions: 560000000 cycles: 809426105 heartbeat IPC: 0.638756 cumulative IPC: 0.463802 (Simulation time: 2 hr 47 min 19 sec) 
Heartbeat CPU 1 instructions: 860000000 cycles: 812343012 heartbeat IPC: 0.819216 cumulative IPC: 0.847757 (Simulation time: 2 hr 47 min 47 sec) 
Heartbeat CPU 1 instructions: 870000000 cycles: 823600580 heartbeat IPC: 0.888291 cumulative IPC: 0.848406 (Simulation time: 2 hr 49 min 30 sec) 
Heartbeat CPU 0 instructions: 760000000 cycles: 823946651 heartbeat IPC: 0.601203 cumulative IPC: 0.739246 (Simulation time: 2 hr 49 min 33 sec) 
Heartbeat CPU 3 instructions: 570000001 cycles: 824218918 heartbeat IPC: 0.676004 cumulative IPC: 0.468267 (Simulation time: 2 hr 49 min 35 sec) 
Heartbeat CPU 1 instructions: 880000000 cycles: 835252635 heartbeat IPC: 0.858218 cumulative IPC: 0.848566 (Simulation time: 2 hr 51 min 21 sec) 
Heartbeat CPU 0 instructions: 770000002 cycles: 836829111 heartbeat IPC: 0.776249 cumulative IPC: 0.739912 (Simulation time: 2 hr 51 min 38 sec) 
Heartbeat CPU 3 instructions: 580000000 cycles: 839241645 heartbeat IPC: 0.665658 cumulative IPC: 0.472396 (Simulation time: 2 hr 52 min 2 sec) 
Heartbeat CPU 1 instructions: 890000003 cycles: 846438926 heartbeat IPC: 0.893952 cumulative IPC: 0.849266 (Simulation time: 2 hr 53 min 10 sec) 
Heartbeat CPU 0 instructions: 780000000 cycles: 850711222 heartbeat IPC: 0.720351 cumulative IPC: 0.73954 (Simulation time: 2 hr 53 min 51 sec) 
Heartbeat CPU 3 instructions: 590000003 cycles: 853521391 heartbeat IPC: 0.700293 cumulative IPC: 0.476839 (Simulation time: 2 hr 54 min 21 sec) 
Heartbeat CPU 1 instructions: 900000000 cycles: 857598471 heartbeat IPC: 0.896094 cumulative IPC: 0.849976 (Simulation time: 2 hr 55 min 4 sec) 
Heartbeat CPU 0 instructions: 790000002 cycles: 863487517 heartbeat IPC: 0.7827 cumulative IPC: 0.740283 (Simulation time: 2 hr 56 min 0 sec) 
Heartbeat CPU 3 instructions: 600000000 cycles: 867397719 heartbeat IPC: 0.720652 cumulative IPC: 0.481372 (Simulation time: 2 hr 56 min 37 sec) 
Heartbeat CPU 1 instructions: 910000001 cycles: 868852293 heartbeat IPC: 0.888587 cumulative IPC: 0.850557 (Simulation time: 2 hr 56 min 52 sec) 
Heartbeat CPU 0 instructions: 800000000 cycles: 875257693 heartbeat IPC: 0.849605 cumulative IPC: 0.741989 (Simulation time: 2 hr 57 min 59 sec) 
Heartbeat CPU 1 instructions: 920000000 cycles: 880369595 heartbeat IPC: 0.868259 cumulative IPC: 0.850825 (Simulation time: 2 hr 58 min 51 sec) 
Heartbeat CPU 3 instructions: 610000001 cycles: 880703392 heartbeat IPC: 0.751559 cumulative IPC: 0.486105 (Simulation time: 2 hr 58 min 54 sec) 
Heartbeat CPU 0 instructions: 810000000 cycles: 886876771 heartbeat IPC: 0.860653 cumulative IPC: 0.743789 (Simulation time: 2 hr 59 min 58 sec) 
Heartbeat CPU 2 instructions: 280000000 cycles: 891613464 heartbeat IPC: 0.110283 cumulative IPC: 0.103824 (Simulation time: 3 hr 0 min 51 sec) 
Heartbeat CPU 1 instructions: 930000000 cycles: 891703729 heartbeat IPC: 0.882291 cumulative IPC: 0.851288 (Simulation time: 3 hr 0 min 52 sec) 
Heartbeat CPU 3 instructions: 620000000 cycles: 893797254 heartbeat IPC: 0.763717 cumulative IPC: 0.490809 (Simulation time: 3 hr 1 min 16 sec) 
Heartbeat CPU 0 instructions: 820000000 cycles: 896010740 heartbeat IPC: 1.09481 cumulative IPC: 0.747927 (Simulation time: 3 hr 1 min 42 sec) 
Heartbeat CPU 1 instructions: 940000000 cycles: 903384853 heartbeat IPC: 0.856082 cumulative IPC: 0.85136 (Simulation time: 3 hr 2 min 59 sec) 
Heartbeat CPU 3 instructions: 630000002 cycles: 906859783 heartbeat IPC: 0.765549 cumulative IPC: 0.495376 (Simulation time: 3 hr 3 min 33 sec) 
Heartbeat CPU 0 instructions: 830000000 cycles: 912544257 heartbeat IPC: 0.604832 cumulative IPC: 0.744938 (Simulation time: 3 hr 4 min 28 sec) 
Heartbeat CPU 1 instructions: 950000002 cycles: 915244651 heartbeat IPC: 0.843185 cumulative IPC: 0.851238 (Simulation time: 3 hr 4 min 54 sec) 
Heartbeat CPU 3 instructions: 640000000 cycles: 920054860 heartbeat IPC: 0.757858 cumulative IPC: 0.499711 (Simulation time: 3 hr 5 min 41 sec) 
Heartbeat CPU 1 instructions: 960000000 cycles: 926732613 heartbeat IPC: 0.870476 cumulative IPC: 0.851512 (Simulation time: 3 hr 6 min 42 sec) 
Heartbeat CPU 0 instructions: 840000000 cycles: 929150322 heartbeat IPC: 0.60219 cumulative IPC: 0.742004 (Simulation time: 3 hr 7 min 5 sec) 
Heartbeat CPU 3 instructions: 650000002 cycles: 933211702 heartbeat IPC: 0.760061 cumulative IPC: 0.503929 (Simulation time: 3 hr 7 min 43 sec) 
Heartbeat CPU 1 instructions: 970000000 cycles: 938192996 heartbeat IPC: 0.872571 cumulative IPC: 0.851807 (Simulation time: 3 hr 8 min 32 sec) 
Heartbeat CPU 0 instructions: 850000001 cycles: 942108370 heartbeat IPC: 0.771721 cumulative IPC: 0.742473 (Simulation time: 3 hr 9 min 13 sec) 
Heartbeat CPU 3 instructions: 660000000 cycles: 945925117 heartbeat IPC: 0.786571 cumulative IPC: 0.508285 (Simulation time: 3 hr 9 min 54 sec) 
Heartbeat CPU 1 instructions: 980000000 cycles: 949264219 heartbeat IPC: 0.903243 cumulative IPC: 0.852495 (Simulation time: 3 hr 10 min 26 sec) 
Heartbeat CPU 0 instructions: 860000000 cycles: 955763650 heartbeat IPC: 0.732317 cumulative IPC: 0.742307 (Simulation time: 3 hr 11 min 29 sec) 
Heartbeat CPU 3 instructions: 670000002 cycles: 958765263 heartbeat IPC: 0.778808 cumulative IPC: 0.512432 (Simulation time: 3 hr 12 min 2 sec) 
Heartbeat CPU 1 instructions: 990000000 cycles: 960452533 heartbeat IPC: 0.89379 cumulative IPC: 0.853045 (Simulation time: 3 hr 12 min 20 sec) 
Heartbeat CPU 0 instructions: 870000003 cycles: 968208963 heartbeat IPC: 0.803516 cumulative IPC: 0.743206 (Simulation time: 3 hr 13 min 39 sec) 
Heartbeat CPU 2 instructions: 290000000 cycles: 969461322 heartbeat IPC: 0.128456 cumulative IPC: 0.106085 (Simulation time: 3 hr 13 min 51 sec) 
Heartbeat CPU 3 instructions: 680000000 cycles: 971170187 heartbeat IPC: 0.806131 cumulative IPC: 0.516718 (Simulation time: 3 hr 14 min 7 sec) 
Heartbeat CPU 1 instructions: 1000000000 cycles: 971508987 heartbeat IPC: 0.904449 cumulative IPC: 0.853714 (Simulation time: 3 hr 14 min 10 sec) 
Heartbeat CPU 0 instructions: 880000000 cycles: 979979196 heartbeat IPC: 0.849601 cumulative IPC: 0.744664 (Simulation time: 3 hr 15 min 39 sec) 
Heartbeat CPU 1 instructions: 1010000001 cycles: 982769583 heartbeat IPC: 0.888053 cumulative IPC: 0.854163 (Simulation time: 3 hr 16 min 9 sec) 
Heartbeat CPU 3 instructions: 690000000 cycles: 983735589 heartbeat IPC: 0.795836 cumulative IPC: 0.520783 (Simulation time: 3 hr 16 min 19 sec) 
Heartbeat CPU 0 instructions: 890000002 cycles: 991623278 heartbeat IPC: 0.858806 cumulative IPC: 0.746191 (Simulation time: 3 hr 17 min 38 sec) 
Heartbeat CPU 1 instructions: 1020000000 cycles: 994202379 heartbeat IPC: 0.874677 cumulative IPC: 0.854431 (Simulation time: 3 hr 18 min 7 sec) 
Heartbeat CPU 3 instructions: 700000000 cycles: 996326850 heartbeat IPC: 0.794202 cumulative IPC: 0.524717 (Simulation time: 3 hr 18 min 32 sec) 
Heartbeat CPU 0 instructions: 900000000 cycles: 1000749227 heartbeat IPC: 1.09578 cumulative IPC: 0.749818 (Simulation time: 3 hr 19 min 24 sec) 
Heartbeat CPU 1 instructions: 1030000003 cycles: 1006171966 heartbeat IPC: 0.835451 cumulative IPC: 0.854174 (Simulation time: 3 hr 20 min 24 sec) 
Heartbeat CPU 3 instructions: 710000001 cycles: 1008547904 heartbeat IPC: 0.81826 cumulative IPC: 0.528759 (Simulation time: 3 hr 20 min 49 sec) 
Heartbeat CPU 0 instructions: 910000001 cycles: 1017081943 heartbeat IPC: 0.612268 cumulative IPC: 0.74731 (Simulation time: 3 hr 22 min 16 sec) 
Heartbeat CPU 1 instructions: 1040000000 cycles: 1018004848 heartbeat IPC: 0.845102 cumulative IPC: 0.854055 (Simulation time: 3 hr 22 min 26 sec) 
Heartbeat CPU 3 instructions: 720000000 cycles: 1021015252 heartbeat IPC: 0.802095 cumulative IPC: 0.532546 (Simulation time: 3 hr 22 min 57 sec) 
Heartbeat CPU 1 instructions: 1050000001 cycles: 1029650187 heartbeat IPC: 0.858713 cumulative IPC: 0.854114 (Simulation time: 3 hr 24 min 25 sec) 
Heartbeat CPU 3 instructions: 730000000 cycles: 1033497171 heartbeat IPC: 0.801159 cumulative IPC: 0.53622 (Simulation time: 3 hr 25 min 3 sec) 
Heartbeat CPU 0 instructions: 920000000 cycles: 1033534195 heartbeat IPC: 0.607819 cumulative IPC: 0.744795 (Simulation time: 3 hr 25 min 3 sec) 
Heartbeat CPU 2 instructions: 300000000 cycles: 1038672185 heartbeat IPC: 0.144486 cumulative IPC: 0.108981 (Simulation time: 3 hr 25 min 55 sec) 
Heartbeat CPU 1 instructions: 1060000000 cycles: 1041031963 heartbeat IPC: 0.878597 cumulative IPC: 0.854417 (Simulation time: 3 hr 26 min 18 sec) 
Heartbeat CPU 3 instructions: 740000000 cycles: 1046013762 heartbeat IPC: 0.79894 cumulative IPC: 0.539776 (Simulation time: 3 hr 27 min 14 sec) 
Heartbeat CPU 0 instructions: 930000000 cycles: 1046701185 heartbeat IPC: 0.759475 cumulative IPC: 0.745004 (Simulation time: 3 hr 27 min 22 sec) 
Heartbeat CPU 1 instructions: 1070000002 cycles: 1052095750 heartbeat IPC: 0.90385 cumulative IPC: 0.855005 (Simulation time: 3 hr 28 min 21 sec) 
Heartbeat CPU 3 instructions: 750000001 cycles: 1058541718 heartbeat IPC: 0.798215 cumulative IPC: 0.543229 (Simulation time: 3 hr 29 min 25 sec) 
Heartbeat CPU 0 instructions: 940000000 cycles: 1060491740 heartbeat IPC: 0.725134 cumulative IPC: 0.744712 (Simulation time: 3 hr 29 min 46 sec) 
Heartbeat CPU 1 instructions: 1080000000 cycles: 1063186317 heartbeat IPC: 0.901667 cumulative IPC: 0.855554 (Simulation time: 3 hr 30 min 17 sec) 
Heartbeat CPU 3 instructions: 760000000 cycles: 1070622115 heartbeat IPC: 0.827787 cumulative IPC: 0.54685 (Simulation time: 3 hr 31 min 40 sec) 
Heartbeat CPU 0 instructions: 950000003 cycles: 1072899937 heartbeat IPC: 0.805919 cumulative IPC: 0.74551 (Simulation time: 3 hr 32 min 3 sec) 
Heartbeat CPU 1 instructions: 1090000000 cycles: 1074244158 heartbeat IPC: 0.904336 cumulative IPC: 0.85612 (Simulation time: 3 hr 32 min 17 sec) 
Heartbeat CPU 3 instructions: 770000001 cycles: 1083051162 heartbeat IPC: 0.804567 cumulative IPC: 0.550179 (Simulation time: 3 hr 33 min 52 sec) 
Heartbeat CPU 0 instructions: 960000000 cycles: 1084877574 heartbeat IPC: 0.834889 cumulative IPC: 0.746621 (Simulation time: 3 hr 34 min 13 sec) 
Heartbeat CPU 1 instructions: 1100000000 cycles: 1085403623 heartbeat IPC: 0.8961 cumulative IPC: 0.856583 (Simulation time: 3 hr 34 min 19 sec) 
Heartbeat CPU 3 instructions: 780000000 cycles: 1095171093 heartbeat IPC: 0.825087 cumulative IPC: 0.5536 (Simulation time: 3 hr 36 min 5 sec) 
Heartbeat CPU 0 instructions: 970000002 cycles: 1096535305 heartbeat IPC: 0.8578 cumulative IPC: 0.74795 (Simulation time: 3 hr 36 min 20 sec) 
Heartbeat CPU 1 instructions: 1110000003 cycles: 1096929422 heartbeat IPC: 0.867619 cumulative IPC: 0.856713 (Simulation time: 3 hr 36 min 24 sec) 
Heartbeat CPU 0 instructions: 980000000 cycles: 1105653036 heartbeat IPC: 1.09676 cumulative IPC: 0.75118 (Simulation time: 3 hr 38 min 4 sec) 
Heartbeat CPU 3 instructions: 790000002 cycles: 1107100815 heartbeat IPC: 0.838243 cumulative IPC: 0.557044 (Simulation time: 3 hr 38 min 21 sec) 
Heartbeat CPU 1 instructions: 1120000000 cycles: 1108404467 heartbeat IPC: 0.871456 cumulative IPC: 0.856884 (Simulation time: 3 hr 38 min 35 sec) 
Heartbeat CPU 2 instructions: 310000003 cycles: 1111486049 heartbeat IPC: 0.137337 cumulative IPC: 0.111066 (Simulation time: 3 hr 39 min 8 sec) 
Heartbeat CPU 3 instructions: 800000000 cycles: 1119295956 heartbeat IPC: 0.819999 cumulative IPC: 0.560256 (Simulation time: 3 hr 40 min 27 sec) 
Heartbeat CPU 1 instructions: 1130000001 cycles: 1119901771 heartbeat IPC: 0.869769 cumulative IPC: 0.857033 (Simulation time: 3 hr 40 min 33 sec) 
Heartbeat CPU 0 instructions: 990000001 cycles: 1121799627 heartbeat IPC: 0.619326 cumulative IPC: 0.749053 (Simulation time: 3 hr 40 min 52 sec) 
Heartbeat CPU 3 instructions: 810000001 cycles: 1131757717 heartbeat IPC: 0.802455 cumulative IPC: 0.563243 (Simulation time: 3 hr 42 min 35 sec) 
Heartbeat CPU 1 instructions: 1140000000 cycles: 1131842482 heartbeat IPC: 0.837471 cumulative IPC: 0.856802 (Simulation time: 3 hr 42 min 36 sec) 
Heartbeat CPU 0 instructions: 1000000000 cycles: 1138117850 heartbeat IPC: 0.612812 cumulative IPC: 0.746867 (Simulation time: 3 hr 43 min 39 sec) 
Heartbeat CPU 1 instructions: 1150000000 cycles: 1142964192 heartbeat IPC: 0.899142 cumulative IPC: 0.857262 (Simulation time: 3 hr 44 min 27 sec) 
Heartbeat CPU 3 instructions: 820000000 cycles: 1144410151 heartbeat IPC: 0.790362 cumulative IPC: 0.566051 (Simulation time: 3 hr 44 min 42 sec) 
Heartbeat CPU 0 instructions: 1010000003 cycles: 1151353866 heartbeat IPC: 0.755515 cumulative IPC: 0.746978 (Simulation time: 3 hr 45 min 58 sec) 
Heartbeat CPU 1 instructions: 1160000000 cycles: 1154261722 heartbeat IPC: 0.885149 cumulative IPC: 0.857567 (Simulation time: 3 hr 46 min 31 sec) 
Heartbeat CPU 3 instructions: 830000002 cycles: 1156597628 heartbeat IPC: 0.820515 cumulative IPC: 0.569046 (Simulation time: 3 hr 46 min 56 sec) 
Heartbeat CPU 0 instructions: 1020000000 cycles: 1164926798 heartbeat IPC: 0.73676 cumulative IPC: 0.746845 (Simulation time: 3 hr 48 min 17 sec) 
Heartbeat CPU 1 instructions: 1170000002 cycles: 1165330015 heartbeat IPC: 0.903482 cumulative IPC: 0.858054 (Simulation time: 3 hr 48 min 22 sec) 
Heartbeat CPU 3 instructions: 840000000 cycles: 1169057439 heartbeat IPC: 0.80258 cumulative IPC: 0.571822 (Simulation time: 3 hr 49 min 1 sec) 
Heartbeat CPU 1 instructions: 1180000000 cycles: 1176296280 heartbeat IPC: 0.911887 cumulative IPC: 0.858613 (Simulation time: 3 hr 50 min 17 sec) 
Heartbeat CPU 0 instructions: 1030000003 cycles: 1177167002 heartbeat IPC: 0.81698 cumulative IPC: 0.747658 (Simulation time: 3 hr 50 min 25 sec) 
Heartbeat CPU 3 instructions: 850000000 cycles: 1181244186 heartbeat IPC: 0.820563 cumulative IPC: 0.574682 (Simulation time: 3 hr 51 min 4 sec) 
Heartbeat CPU 1 instructions: 1190000000 cycles: 1187437155 heartbeat IPC: 0.897596 cumulative IPC: 0.859021 (Simulation time: 3 hr 52 min 9 sec) 
Heartbeat CPU 0 instructions: 1040000000 cycles: 1189273515 heartbeat IPC: 0.826001 cumulative IPC: 0.748546 (Simulation time: 3 hr 52 min 29 sec) 
Heartbeat CPU 3 instructions: 860000000 cycles: 1193449852 heartbeat IPC: 0.819292 cumulative IPC: 0.577466 (Simulation time: 3 hr 53 min 12 sec) 
Heartbeat CPU 1 instructions: 1200000000 cycles: 1198917843 heartbeat IPC: 0.871028 cumulative IPC: 0.859149 (Simulation time: 3 hr 54 min 7 sec) 
Heartbeat CPU 0 instructions: 1050000000 cycles: 1201092882 heartbeat IPC: 0.846069 cumulative IPC: 0.749613 (Simulation time: 3 hr 54 min 30 sec) 
Heartbeat CPU 2 instructions: 320000000 cycles: 1204810294 heartbeat IPC: 0.107153 cumulative IPC: 0.110729 (Simulation time: 3 hr 55 min 8 sec) 
Heartbeat CPU 3 instructions: 870000003 cycles: 1205492674 heartbeat IPC: 0.83037 cumulative IPC: 0.580274 (Simulation time: 3 hr 55 min 15 sec) 
Heartbeat CPU 1 instructions: 1210000002 cycles: 1209767410 heartbeat IPC: 0.921696 cumulative IPC: 0.859772 (Simulation time: 3 hr 56 min 0 sec) 
Heartbeat CPU 0 instructions: 1060000000 cycles: 1210303692 heartbeat IPC: 1.08568 cumulative IPC: 0.752455 (Simulation time: 3 hr 56 min 6 sec) 
Heartbeat CPU 3 instructions: 880000000 cycles: 1217593387 heartbeat IPC: 0.826397 cumulative IPC: 0.582991 (Simulation time: 3 hr 57 min 16 sec) 
Heartbeat CPU 1 instructions: 1220000000 cycles: 1220891404 heartbeat IPC: 0.898957 cumulative IPC: 0.860168 (Simulation time: 3 hr 57 min 48 sec) 
Heartbeat CPU 0 instructions: 1070000002 cycles: 1226124831 heartbeat IPC: 0.632066 cumulative IPC: 0.750731 (Simulation time: 3 hr 58 min 39 sec) 
Heartbeat CPU 3 instructions: 890000003 cycles: 1229874475 heartbeat IPC: 0.81426 cumulative IPC: 0.585552 (Simulation time: 3 hr 59 min 16 sec) 
Heartbeat CPU 1 instructions: 1230000001 cycles: 1232920974 heartbeat IPC: 0.831285 cumulative IPC: 0.859856 (Simulation time: 3 hr 59 min 47 sec) 
Heartbeat CPU 3 instructions: 900000000 cycles: 1242286837 heartbeat IPC: 0.805648 cumulative IPC: 0.587989 (Simulation time: 4 hr 1 min 16 sec) 
Heartbeat CPU 0 instructions: 1080000000 cycles: 1242347354 heartbeat IPC: 0.616427 cumulative IPC: 0.748788 (Simulation time: 4 hr 1 min 17 sec) 
Heartbeat CPU 1 instructions: 1240000000 cycles: 1244025145 heartbeat IPC: 0.900562 cumulative IPC: 0.860258 (Simulation time: 4 hr 1 min 32 sec) 
Heartbeat CPU 3 instructions: 910000002 cycles: 1254867282 heartbeat IPC: 0.794885 cumulative IPC: 0.590284 (Simulation time: 4 hr 3 min 21 sec) 
Heartbeat CPU 1 instructions: 1250000003 cycles: 1255536244 heartbeat IPC: 0.868727 cumulative IPC: 0.860344 (Simulation time: 4 hr 3 min 28 sec) 
Heartbeat CPU 0 instructions: 1090000000 cycles: 1255618726 heartbeat IPC: 0.753502 cumulative IPC: 0.748843 (Simulation time: 4 hr 3 min 29 sec) 
Heartbeat CPU 1 instructions: 1260000000 cycles: 1266646068 heartbeat IPC: 0.900104 cumulative IPC: 0.86073 (Simulation time: 4 hr 5 min 19 sec) 
Heartbeat CPU 3 instructions: 920000000 cycles: 1267280356 heartbeat IPC: 0.805602 cumulative IPC: 0.592616 (Simulation time: 4 hr 5 min 25 sec) 
Heartbeat CPU 0 instructions: 1100000000 cycles: 1269103682 heartbeat IPC: 0.741567 cumulative IPC: 0.748758 (Simulation time: 4 hr 5 min 44 sec) 
Heartbeat CPU 1 instructions: 1270000001 cycles: 1277564921 heartbeat IPC: 0.915847 cumulative IPC: 0.86125 (Simulation time: 4 hr 7 min 15 sec) 
Heartbeat CPU 3 instructions: 930000001 cycles: 1279333651 heartbeat IPC: 0.829649 cumulative IPC: 0.595083 (Simulation time: 4 hr 7 min 34 sec) 
Heartbeat CPU 0 instructions: 1110000000 cycles: 1281330957 heartbeat IPC: 0.817844 cumulative IPC: 0.749486 (Simulation time: 4 hr 7 min 54 sec) 
Finished CPU 1 instructions: 1000000002 cycles: 1160894519 cumulative IPC: 0.861405 (Simulation time: 4 hr 8 min 0 sec) 
Heartbeat CPU 1 instructions: 1280000000 cycles: 1288813157 heartbeat IPC: 0.889028 cumulative IPC: 0.861518 (Simulation time: 4 hr 9 min 11 sec) 
Heartbeat CPU 3 instructions: 940000000 cycles: 1291683871 heartbeat IPC: 0.809702 cumulative IPC: 0.597347 (Simulation time: 4 hr 9 min 43 sec) 
Heartbeat CPU 0 instructions: 1120000000 cycles: 1293690565 heartbeat IPC: 0.809087 cumulative IPC: 0.750114 (Simulation time: 4 hr 10 min 6 sec) 
Heartbeat CPU 2 instructions: 330000001 cycles: 1297480874 heartbeat IPC: 0.107909 cumulative IPC: 0.110507 (Simulation time: 4 hr 10 min 47 sec) 
Heartbeat CPU 1 instructions: 1290000003 cycles: 1300272189 heartbeat IPC: 0.872674 cumulative IPC: 0.861626 (Simulation time: 4 hr 11 min 15 sec) 
Heartbeat CPU 0 instructions: 1130000003 cycles: 1305731104 heartbeat IPC: 0.830528 cumulative IPC: 0.750931 (Simulation time: 4 hr 12 min 2 sec) 
Heartbeat CPU 1 instructions: 1300000000 cycles: 1312364348 heartbeat IPC: 0.826982 cumulative IPC: 0.861275 (Simulation time: 4 hr 13 min 1 sec) 
Heartbeat CPU 0 instructions: 1140000000 cycles: 1315154880 heartbeat IPC: 1.06115 cumulative IPC: 0.75338 (Simulation time: 4 hr 13 min 26 sec) 
Heartbeat CPU 3 instructions: 950000003 cycles: 1322161343 heartbeat IPC: 0.328111 cumulative IPC: 0.590515 (Simulation time: 4 hr 14 min 23 sec) 
Heartbeat CPU 1 instructions: 1310000001 cycles: 1324388712 heartbeat IPC: 0.831645 cumulative IPC: 0.860979 (Simulation time: 4 hr 14 min 40 sec) 
Heartbeat CPU 0 instructions: 1150000000 cycles: 1331918580 heartbeat IPC: 0.596527 cumulative IPC: 0.751208 (Simulation time: 4 hr 15 min 41 sec) 
Heartbeat CPU 1 instructions: 1320000000 cycles: 1337473351 heartbeat IPC: 0.764255 cumulative IPC: 0.859938 (Simulation time: 4 hr 16 min 27 sec) 
Heartbeat CPU 3 instructions: 960000000 cycles: 1347259688 heartbeat IPC: 0.398433 cumulative IPC: 0.586584 (Simulation time: 4 hr 18 min 6 sec) 
Heartbeat CPU 0 instructions: 1160000000 cycles: 1348831719 heartbeat IPC: 0.591256 cumulative IPC: 0.749004 (Simulation time: 4 hr 18 min 22 sec) 
Heartbeat CPU 1 instructions: 1330000000 cycles: 1348972681 heartbeat IPC: 0.869616 cumulative IPC: 0.860029 (Simulation time: 4 hr 18 min 23 sec) 
Heartbeat CPU 3 instructions: 970000000 cycles: 1360148559 heartbeat IPC: 0.775863 cumulative IPC: 0.588553 (Simulation time: 4 hr 20 min 16 sec) 
Heartbeat CPU 1 instructions: 1340000000 cycles: 1360523369 heartbeat IPC: 0.865749 cumulative IPC: 0.860082 (Simulation time: 4 hr 20 min 20 sec) 
Heartbeat CPU 0 instructions: 1170000001 cycles: 1362660508 heartbeat IPC: 0.723129 cumulative IPC: 0.748716 (Simulation time: 4 hr 20 min 44 sec) 
Heartbeat CPU 1 instructions: 1350000001 cycles: 1371580345 heartbeat IPC: 0.904406 cumulative IPC: 0.860474 (Simulation time: 4 hr 22 min 17 sec) 
Heartbeat CPU 3 instructions: 980000000 cycles: 1372294873 heartbeat IPC: 0.823295 cumulative IPC: 0.590831 (Simulation time: 4 hr 22 min 24 sec) 
Heartbeat CPU 0 instructions: 1180000000 cycles: 1376199472 heartbeat IPC: 0.738609 cumulative IPC: 0.748607 (Simulation time: 4 hr 23 min 1 sec) 
Heartbeat CPU 1 instructions: 1360000000 cycles: 1382655616 heartbeat IPC: 0.902912 cumulative IPC: 0.860847 (Simulation time: 4 hr 24 min 10 sec) 
Heartbeat CPU 3 instructions: 990000001 cycles: 1384672110 heartbeat IPC: 0.807935 cumulative IPC: 0.592958 (Simulation time: 4 hr 24 min 32 sec) 
Heartbeat CPU 0 instructions: 1190000001 cycles: 1388128642 heartbeat IPC: 0.838281 cumulative IPC: 0.749452 (Simulation time: 4 hr 25 min 8 sec) 
Heartbeat CPU 2 instructions: 340000000 cycles: 1392566095 heartbeat IPC: 0.105169 cumulative IPC: 0.110108 (Simulation time: 4 hr 25 min 50 sec) 
Heartbeat CPU 1 instructions: 1370000001 cycles: 1393635023 heartbeat IPC: 0.910796 cumulative IPC: 0.861277 (Simulation time: 4 hr 26 min 0 sec) 
Heartbeat CPU 3 instructions: 1000000000 cycles: 1396945492 heartbeat IPC: 0.814771 cumulative IPC: 0.595092 (Simulation time: 4 hr 26 min 35 sec) 
Heartbeat CPU 0 instructions: 1200000000 cycles: 1400646791 heartbeat IPC: 0.79884 cumulative IPC: 0.749935 (Simulation time: 4 hr 27 min 15 sec) 
Heartbeat CPU 1 instructions: 1380000000 cycles: 1405010151 heartbeat IPC: 0.879111 cumulative IPC: 0.861435 (Simulation time: 4 hr 28 min 0 sec) 
Heartbeat CPU 3 instructions: 1010000000 cycles: 1409124834 heartbeat IPC: 0.821062 cumulative IPC: 0.597228 (Simulation time: 4 hr 28 min 41 sec) 
Heartbeat CPU 0 instructions: 1210000002 cycles: 1412443512 heartbeat IPC: 0.847693 cumulative IPC: 0.750828 (Simulation time: 4 hr 29 min 15 sec) 
Heartbeat CPU 1 instructions: 1390000002 cycles: 1416644373 heartbeat IPC: 0.859533 cumulative IPC: 0.861418 (Simulation time: 4 hr 29 min 59 sec) 
Heartbeat CPU 3 instructions: 1020000000 cycles: 1421030822 heartbeat IPC: 0.839913 cumulative IPC: 0.599451 (Simulation time: 4 hr 30 min 45 sec) 
Heartbeat CPU 0 instructions: 1220000000 cycles: 1421655013 heartbeat IPC: 1.0856 cumulative IPC: 0.753199 (Simulation time: 4 hr 30 min 51 sec) 
Heartbeat CPU 1 instructions: 1400000000 cycles: 1427595744 heartbeat IPC: 0.913127 cumulative IPC: 0.861852 (Simulation time: 4 hr 31 min 49 sec) 
Heartbeat CPU 3 instructions: 1030000000 cycles: 1433274817 heartbeat IPC: 0.816727 cumulative IPC: 0.601478 (Simulation time: 4 hr 32 min 44 sec) 
Heartbeat CPU 0 instructions: 1230000003 cycles: 1437042294 heartbeat IPC: 0.649888 cumulative IPC: 0.751991 (Simulation time: 4 hr 33 min 21 sec) 
Heartbeat CPU 1 instructions: 1410000000 cycles: 1439156917 heartbeat IPC: 0.864964 cumulative IPC: 0.861879 (Simulation time: 4 hr 33 min 41 sec) 
Heartbeat CPU 3 instructions: 1040000000 cycles: 1445695387 heartbeat IPC: 0.805116 cumulative IPC: 0.603388 (Simulation time: 4 hr 34 min 45 sec) 
Heartbeat CPU 1 instructions: 1420000000 cycles: 1450845976 heartbeat IPC: 0.855501 cumulative IPC: 0.861823 (Simulation time: 4 hr 35 min 34 sec) 
Heartbeat CPU 0 instructions: 1240000000 cycles: 1453397334 heartbeat IPC: 0.611432 cumulative IPC: 0.750265 (Simulation time: 4 hr 35 min 58 sec) 
Finished CPU 0 instructions: 1000000000 cycles: 1333019270 cumulative IPC: 0.750177 (Simulation time: 4 hr 36 min 4 sec) 
Heartbeat CPU 3 instructions: 1050000002 cycles: 1458271923 heartbeat IPC: 0.795132 cumulative IPC: 0.605191 (Simulation time: 4 hr 36 min 43 sec) 
Heartbeat CPU 1 instructions: 1430000002 cycles: 1462238970 heartbeat IPC: 0.877733 cumulative IPC: 0.861958 (Simulation time: 4 hr 37 min 21 sec) 
Heartbeat CPU 0 instructions: 1250000003 cycles: 1467279090 heartbeat IPC: 0.72037 cumulative IPC: 0.749957 (Simulation time: 4 hr 38 min 15 sec) 
Heartbeat CPU 3 instructions: 1060000000 cycles: 1470626416 heartbeat IPC: 0.809422 cumulative IPC: 0.607061 (Simulation time: 4 hr 38 min 50 sec) 
Heartbeat CPU 1 instructions: 1440000000 cycles: 1473331718 heartbeat IPC: 0.90149 cumulative IPC: 0.862282 (Simulation time: 4 hr 39 min 19 sec) 
Heartbeat CPU 0 instructions: 1260000000 cycles: 1480913991 heartbeat IPC: 0.733412 cumulative IPC: 0.749791 (Simulation time: 4 hr 40 min 31 sec) 
Heartbeat CPU 3 instructions: 1070000002 cycles: 1483074859 heartbeat IPC: 0.803313 cumulative IPC: 0.608855 (Simulation time: 4 hr 40 min 54 sec) 
Heartbeat CPU 2 instructions: 350000000 cycles: 1484124649 heartbeat IPC: 0.10922 cumulative IPC: 0.110048 (Simulation time: 4 hr 41 min 6 sec) 
Heartbeat CPU 1 instructions: 1450000003 cycles: 1484425408 heartbeat IPC: 0.901414 cumulative IPC: 0.862601 (Simulation time: 4 hr 41 min 9 sec) 
Heartbeat CPU 0 instructions: 1270000003 cycles: 1492608308 heartbeat IPC: 0.855116 cumulative IPC: 0.750689 (Simulation time: 4 hr 42 min 36 sec) 
Heartbeat CPU 3 instructions: 1080000000 cycles: 1495005312 heartbeat IPC: 0.838191 cumulative IPC: 0.610846 (Simulation time: 4 hr 42 min 58 sec) 
Heartbeat CPU 1 instructions: 1460000000 cycles: 1495374063 heartbeat IPC: 0.913354 cumulative IPC: 0.863005 (Simulation time: 4 hr 43 min 2 sec) 
Heartbeat CPU 0 instructions: 1280000000 cycles: 1505398571 heartbeat IPC: 0.781844 cumulative IPC: 0.750977 (Simulation time: 4 hr 44 min 43 sec) 
Heartbeat CPU 1 instructions: 1470000000 cycles: 1506639807 heartbeat IPC: 0.887647 cumulative IPC: 0.863206 (Simulation time: 4 hr 44 min 57 sec) 
Heartbeat CPU 3 instructions: 1090000001 cycles: 1507450380 heartbeat IPC: 0.803531 cumulative IPC: 0.612576 (Simulation time: 4 hr 45 min 6 sec) 
Heartbeat CPU 0 instructions: 1290000001 cycles: 1517319686 heartbeat IPC: 0.838848 cumulative IPC: 0.751727 (Simulation time: 4 hr 46 min 46 sec) 
Heartbeat CPU 1 instructions: 1480000000 cycles: 1518497178 heartbeat IPC: 0.843357 cumulative IPC: 0.863037 (Simulation time: 4 hr 46 min 58 sec) 
Heartbeat CPU 3 instructions: 1100000000 cycles: 1519747016 heartbeat IPC: 0.81323 cumulative IPC: 0.61434 (Simulation time: 4 hr 47 min 11 sec) 
Heartbeat CPU 0 instructions: 1300000000 cycles: 1526347654 heartbeat IPC: 1.10767 cumulative IPC: 0.754014 (Simulation time: 4 hr 48 min 25 sec) 
Heartbeat CPU 1 instructions: 1490000000 cycles: 1529769335 heartbeat IPC: 0.887142 cumulative IPC: 0.86323 (Simulation time: 4 hr 49 min 3 sec) 
Heartbeat CPU 3 instructions: 1110000000 cycles: 1531509407 heartbeat IPC: 0.850167 cumulative IPC: 0.616307 (Simulation time: 4 hr 49 min 21 sec) 
Heartbeat CPU 1 instructions: 1500000000 cycles: 1541030434 heartbeat IPC: 0.888013 cumulative IPC: 0.863427 (Simulation time: 4 hr 50 min 56 sec) 
Heartbeat CPU 0 instructions: 1310000002 cycles: 1541362489 heartbeat IPC: 0.666008 cumulative IPC: 0.753084 (Simulation time: 4 hr 50 min 59 sec) 
Heartbeat CPU 3 instructions: 1120000000 cycles: 1544321892 heartbeat IPC: 0.780489 cumulative IPC: 0.617785 (Simulation time: 4 hr 51 min 29 sec) 
Heartbeat CPU 1 instructions: 1510000003 cycles: 1553141665 heartbeat IPC: 0.82568 cumulative IPC: 0.863107 (Simulation time: 4 hr 52 min 59 sec) 
Heartbeat CPU 3 instructions: 1130000001 cycles: 1557462798 heartbeat IPC: 0.760983 cumulative IPC: 0.619095 (Simulation time: 4 hr 53 min 41 sec) 
Heartbeat CPU 0 instructions: 1320000000 cycles: 1557613563 heartbeat IPC: 0.615344 cumulative IPC: 0.751525 (Simulation time: 4 hr 53 min 43 sec) 
Heartbeat CPU 1 instructions: 1520000000 cycles: 1564326762 heartbeat IPC: 0.894047 cumulative IPC: 0.863347 (Simulation time: 4 hr 54 min 48 sec) 
Heartbeat CPU 2 instructions: 360000000 cycles: 1567039395 heartbeat IPC: 0.120606 cumulative IPC: 0.110653 (Simulation time: 4 hr 55 min 13 sec) 
Heartbeat CPU 0 instructions: 1330000000 cycles: 1571782174 heartbeat IPC: 0.705786 cumulative IPC: 0.751079 (Simulation time: 4 hr 56 min 3 sec) 
Heartbeat CPU 3 instructions: 1140000000 cycles: 1572615939 heartbeat IPC: 0.659929 cumulative IPC: 0.619521 (Simulation time: 4 hr 56 min 12 sec) 
Heartbeat CPU 1 instructions: 1530000001 cycles: 1575933601 heartbeat IPC: 0.861561 cumulative IPC: 0.863333 (Simulation time: 4 hr 56 min 47 sec) 
Heartbeat CPU 0 instructions: 1340000000 cycles: 1585585221 heartbeat IPC: 0.724478 cumulative IPC: 0.750828 (Simulation time: 4 hr 58 min 20 sec) 
Heartbeat CPU 1 instructions: 1540000000 cycles: 1587344196 heartbeat IPC: 0.876378 cumulative IPC: 0.863434 (Simulation time: 4 hr 58 min 38 sec) 
Heartbeat CPU 3 instructions: 1150000000 cycles: 1588740080 heartbeat IPC: 0.620188 cumulative IPC: 0.619528 (Simulation time: 4 hr 58 min 53 sec) 
Heartbeat CPU 0 instructions: 1350000003 cycles: 1597481866 heartbeat IPC: 0.840573 cumulative IPC: 0.751551 (Simulation time: 5 hr 0 min 23 sec) 
Heartbeat CPU 1 instructions: 1550000002 cycles: 1598656638 heartbeat IPC: 0.883983 cumulative IPC: 0.863592 (Simulation time: 5 hr 0 min 34 sec) 
Heartbeat CPU 3 instructions: 1160000000 cycles: 1606810347 heartbeat IPC: 0.553395 cumulative IPC: 0.618724 (Simulation time: 5 hr 1 min 52 sec) 
Heartbeat CPU 1 instructions: 1560000000 cycles: 1610178515 heartbeat IPC: 0.867914 cumulative IPC: 0.863625 (Simulation time: 5 hr 2 min 27 sec) 
Heartbeat CPU 0 instructions: 1360000000 cycles: 1610693418 heartbeat IPC: 0.756913 cumulative IPC: 0.751599 (Simulation time: 5 hr 2 min 32 sec) 
Heartbeat CPU 1 instructions: 1570000000 cycles: 1622356123 heartbeat IPC: 0.821179 cumulative IPC: 0.863281 (Simulation time: 5 hr 4 min 25 sec) 
Heartbeat CPU 0 instructions: 1370000002 cycles: 1623024993 heartbeat IPC: 0.810927 cumulative IPC: 0.752086 (Simulation time: 5 hr 4 min 31 sec) 
Heartbeat CPU 3 instructions: 1170000000 cycles: 1628365009 heartbeat IPC: 0.463937 cumulative IPC: 0.61651 (Simulation time: 5 hr 5 min 24 sec) 
Heartbeat CPU 0 instructions: 1380000000 cycles: 1632388737 heartbeat IPC: 1.06795 cumulative IPC: 0.754043 (Simulation time: 5 hr 6 min 4 sec) 
Heartbeat CPU 1 instructions: 1580000000 cycles: 1633686356 heartbeat IPC: 0.882594 cumulative IPC: 0.863426 (Simulation time: 5 hr 6 min 17 sec) 
Heartbeat CPU 1 instructions: 1590000001 cycles: 1645396777 heartbeat IPC: 0.85394 cumulative IPC: 0.863353 (Simulation time: 5 hr 8 min 2 sec) 
Heartbeat CPU 0 instructions: 1390000001 cycles: 1647973726 heartbeat IPC: 0.641643 cumulative IPC: 0.752896 (Simulation time: 5 hr 8 min 24 sec) 
Heartbeat CPU 3 instructions: 1180000000 cycles: 1654832894 heartbeat IPC: 0.377816 cumulative IPC: 0.612391 (Simulation time: 5 hr 9 min 25 sec) 
Heartbeat CPU 1 instructions: 1600000000 cycles: 1658249220 heartbeat IPC: 0.778062 cumulative IPC: 0.86264 (Simulation time: 5 hr 9 min 55 sec) 
Heartbeat CPU 0 instructions: 1400000000 cycles: 1664799759 heartbeat IPC: 0.594317 cumulative IPC: 0.751167 (Simulation time: 5 hr 10 min 52 sec) 
Heartbeat CPU 2 instructions: 370000000 cycles: 1667752753 heartbeat IPC: 0.0992917 cumulative IPC: 0.109914 (Simulation time: 5 hr 11 min 17 sec) 
Heartbeat CPU 1 instructions: 1610000000 cycles: 1669871816 heartbeat IPC: 0.860393 cumulative IPC: 0.862623 (Simulation time: 5 hr 11 min 35 sec) 
Heartbeat CPU 0 instructions: 1410000002 cycles: 1679711230 heartbeat IPC: 0.670625 cumulative IPC: 0.750397 (Simulation time: 5 hr 13 min 3 sec) 
Heartbeat CPU 1 instructions: 1620000000 cycles: 1682012931 heartbeat IPC: 0.823648 cumulative IPC: 0.86232 (Simulation time: 5 hr 13 min 25 sec) 
Heartbeat CPU 3 instructions: 1190000003 cycles: 1683405977 heartbeat IPC: 0.34998 cumulative IPC: 0.607592 (Simulation time: 5 hr 13 min 40 sec) 
Heartbeat CPU 1 instructions: 1630000002 cycles: 1693749787 heartbeat IPC: 0.852017 cumulative IPC: 0.862243 (Simulation time: 5 hr 15 min 10 sec) 
Heartbeat CPU 0 instructions: 1420000000 cycles: 1693776348 heartbeat IPC: 0.710979 cumulative IPC: 0.750044 (Simulation time: 5 hr 15 min 11 sec) 
Heartbeat CPU 1 instructions: 1640000000 cycles: 1705443530 heartbeat IPC: 0.855158 cumulative IPC: 0.86219 (Simulation time: 5 hr 17 min 16 sec) 
Heartbeat CPU 0 instructions: 1430000000 cycles: 1705935865 heartbeat IPC: 0.822401 cumulative IPC: 0.750599 (Simulation time: 5 hr 17 min 20 sec) 
Heartbeat CPU 3 instructions: 1200000000 cycles: 1714471581 heartbeat IPC: 0.321899 cumulative IPC: 0.602022 (Simulation time: 5 hr 18 min 43 sec) 
Heartbeat CPU 1 instructions: 1650000000 cycles: 1717256838 heartbeat IPC: 0.846503 cumulative IPC: 0.862074 (Simulation time: 5 hr 19 min 13 sec) 
Heartbeat CPU 0 instructions: 1440000000 cycles: 1719582693 heartbeat IPC: 0.732771 cumulative IPC: 0.750447 (Simulation time: 5 hr 19 min 36 sec) 
Heartbeat CPU 1 instructions: 1660000000 cycles: 1729407720 heartbeat IPC: 0.822986 cumulative IPC: 0.861779 (Simulation time: 5 hr 21 min 14 sec) 
Heartbeat CPU 0 instructions: 1450000001 cycles: 1732098016 heartbeat IPC: 0.799021 cumulative IPC: 0.750824 (Simulation time: 5 hr 21 min 38 sec) 
Heartbeat CPU 1 instructions: 1670000003 cycles: 1741129595 heartbeat IPC: 0.853106 cumulative IPC: 0.861716 (Simulation time: 5 hr 23 min 6 sec) 
Heartbeat CPU 0 instructions: 1460000000 cycles: 1741488830 heartbeat IPC: 1.06487 cumulative IPC: 0.752644 (Simulation time: 5 hr 23 min 9 sec) 
Heartbeat CPU 3 instructions: 1210000000 cycles: 1742515715 heartbeat IPC: 0.356581 cumulative IPC: 0.597777 (Simulation time: 5 hr 23 min 19 sec) 
Heartbeat CPU 1 instructions: 1680000000 cycles: 1752843209 heartbeat IPC: 0.853707 cumulative IPC: 0.861659 (Simulation time: 5 hr 24 min 51 sec) 
Heartbeat CPU 0 instructions: 1470000001 cycles: 1756877188 heartbeat IPC: 0.649842 cumulative IPC: 0.751677 (Simulation time: 5 hr 25 min 26 sec) 
Heartbeat CPU 1 instructions: 1690000001 cycles: 1765528392 heartbeat IPC: 0.788321 cumulative IPC: 0.861093 (Simulation time: 5 hr 26 min 44 sec) 
Heartbeat CPU 3 instructions: 1220000000 cycles: 1769226054 heartbeat IPC: 0.374387 cumulative IPC: 0.594157 (Simulation time: 5 hr 27 min 18 sec) 
Heartbeat CPU 0 instructions: 1480000000 cycles: 1773799136 heartbeat IPC: 0.590948 cumulative IPC: 0.750032 (Simulation time: 5 hr 27 min 57 sec) 
Heartbeat CPU 2 instructions: 380000000 cycles: 1776912496 heartbeat IPC: 0.0916089 cumulative IPC: 0.108707 (Simulation time: 5 hr 28 min 23 sec) 
Heartbeat CPU 1 instructions: 1700000000 cycles: 1777385378 heartbeat IPC: 0.843385 cumulative IPC: 0.860966 (Simulation time: 5 hr 28 min 27 sec) 
Heartbeat CPU 0 instructions: 1490000001 cycles: 1789076874 heartbeat IPC: 0.654547 cumulative IPC: 0.749157 (Simulation time: 5 hr 30 min 13 sec) 
Heartbeat CPU 1 instructions: 1710000003 cycles: 1789433960 heartbeat IPC: 0.829973 cumulative IPC: 0.860742 (Simulation time: 5 hr 30 min 17 sec) 
Heartbeat CPU 3 instructions: 1230000003 cycles: 1794686571 heartbeat IPC: 0.392765 cumulative IPC: 0.591093 (Simulation time: 5 hr 31 min 9 sec) 
Heartbeat CPU 1 instructions: 1720000000 cycles: 1801085007 heartbeat IPC: 0.858292 cumulative IPC: 0.860725 (Simulation time: 5 hr 32 min 7 sec) 
Heartbeat CPU 0 instructions: 1500000000 cycles: 1802831004 heartbeat IPC: 0.727054 cumulative IPC: 0.748976 (Simulation time: 5 hr 32 min 22 sec) 
Heartbeat CPU 1 instructions: 1730000000 cycles: 1812687040 heartbeat IPC: 0.861918 cumulative IPC: 0.860734 (Simulation time: 5 hr 33 min 59 sec) 
Heartbeat CPU 0 instructions: 1510000003 cycles: 1814853221 heartbeat IPC: 0.831794 cumulative IPC: 0.749564 (Simulation time: 5 hr 34 min 21 sec) 
Heartbeat CPU 3 instructions: 1240000000 cycles: 1818181174 heartbeat IPC: 0.42563 cumulative IPC: 0.588802 (Simulation time: 5 hr 34 min 51 sec) 
Finished CPU 3 instructions: 1000000000 cycles: 1698993859 cumulative IPC: 0.588584 (Simulation time: 5 hr 35 min 7 sec) 
Heartbeat CPU 1 instructions: 1740000000 cycles: 1824268931 heartbeat IPC: 0.863417 cumulative IPC: 0.860752 (Simulation time: 5 hr 35 min 46 sec) 
Heartbeat CPU 0 instructions: 1520000000 cycles: 1828604011 heartbeat IPC: 0.727231 cumulative IPC: 0.749384 (Simulation time: 5 hr 36 min 30 sec) 
Heartbeat CPU 1 instructions: 1750000003 cycles: 1836265490 heartbeat IPC: 0.833573 cumulative IPC: 0.860562 (Simulation time: 5 hr 37 min 44 sec) 
Heartbeat CPU 0 instructions: 1530000001 cycles: 1841087306 heartbeat IPC: 0.801071 cumulative IPC: 0.749759 (Simulation time: 5 hr 38 min 30 sec) 
Heartbeat CPU 3 instructions: 1250000002 cycles: 1841647715 heartbeat IPC: 0.426139 cumulative IPC: 0.586584 (Simulation time: 5 hr 38 min 35 sec) 
Heartbeat CPU 1 instructions: 1760000000 cycles: 1847965698 heartbeat IPC: 0.854685 cumulative IPC: 0.860522 (Simulation time: 5 hr 39 min 39 sec) 
Heartbeat CPU 0 instructions: 1540000000 cycles: 1850397541 heartbeat IPC: 1.07409 cumulative IPC: 0.751505 (Simulation time: 5 hr 40 min 3 sec) 
Heartbeat CPU 1 instructions: 1770000002 cycles: 1859529619 heartbeat IPC: 0.864759 cumulative IPC: 0.86055 (Simulation time: 5 hr 41 min 24 sec) 
Heartbeat CPU 3 instructions: 1260000000 cycles: 1863818034 heartbeat IPC: 0.451053 cumulative IPC: 0.584859 (Simulation time: 5 hr 42 min 1 sec) 
Heartbeat CPU 0 instructions: 1550000001 cycles: 1865585539 heartbeat IPC: 0.658415 cumulative IPC: 0.750695 (Simulation time: 5 hr 42 min 16 sec) 
Heartbeat CPU 1 instructions: 1780000000 cycles: 1871957158 heartbeat IPC: 0.804664 cumulative IPC: 0.860153 (Simulation time: 5 hr 43 min 11 sec) 
Heartbeat CPU 0 instructions: 1560000000 cycles: 1882178329 heartbeat IPC: 0.602671 cumulative IPC: 0.7493 (Simulation time: 5 hr 44 min 39 sec) 
Heartbeat CPU 1 instructions: 1790000000 cycles: 1883961389 heartbeat IPC: 0.83304 cumulative IPC: 0.859969 (Simulation time: 5 hr 44 min 54 sec) 
Heartbeat CPU 2 instructions: 390000002 cycles: 1885025259 heartbeat IPC: 0.092496 cumulative IPC: 0.107713 (Simulation time: 5 hr 45 min 3 sec) 
Heartbeat CPU 3 instructions: 1270000003 cycles: 1886796367 heartbeat IPC: 0.435193 cumulative IPC: 0.582912 (Simulation time: 5 hr 45 min 18 sec) 
Heartbeat CPU 1 instructions: 1800000000 cycles: 1895906082 heartbeat IPC: 0.837192 cumulative IPC: 0.859815 (Simulation time: 5 hr 46 min 37 sec) 
Heartbeat CPU 0 instructions: 1570000003 cycles: 1897427364 heartbeat IPC: 0.655779 cumulative IPC: 0.748497 (Simulation time: 5 hr 46 min 52 sec) 
Heartbeat CPU 1 instructions: 1810000002 cycles: 1907369750 heartbeat IPC: 0.872321 cumulative IPC: 0.859896 (Simulation time: 5 hr 48 min 24 sec) 
Heartbeat CPU 3 instructions: 1280000000 cycles: 1909687370 heartbeat IPC: 0.436853 cumulative IPC: 0.581042 (Simulation time: 5 hr 48 min 43 sec) 
Heartbeat CPU 0 instructions: 1580000000 cycles: 1910966596 heartbeat IPC: 0.738594 cumulative IPC: 0.748423 (Simulation time: 5 hr 48 min 54 sec) 
Heartbeat CPU 1 instructions: 1820000000 cycles: 1918907471 heartbeat IPC: 0.866722 cumulative IPC: 0.85994 (Simulation time: 5 hr 50 min 10 sec) 
Heartbeat CPU 0 instructions: 1590000003 cycles: 1922846354 heartbeat IPC: 0.841768 cumulative IPC: 0.749038 (Simulation time: 5 hr 50 min 48 sec) 
Heartbeat CPU 1 instructions: 1830000000 cycles: 1930415693 heartbeat IPC: 0.868944 cumulative IPC: 0.859997 (Simulation time: 5 hr 51 min 52 sec) 
Heartbeat CPU 3 instructions: 1290000000 cycles: 1931769394 heartbeat IPC: 0.452857 cumulative IPC: 0.579479 (Simulation time: 5 hr 52 min 4 sec) 
Heartbeat CPU 0 instructions: 1600000000 cycles: 1936639571 heartbeat IPC: 0.724994 cumulative IPC: 0.748855 (Simulation time: 5 hr 52 min 51 sec) 
Heartbeat CPU 1 instructions: 1840000000 cycles: 1942124503 heartbeat IPC: 0.854058 cumulative IPC: 0.859959 (Simulation time: 5 hr 53 min 43 sec) 
Heartbeat CPU 0 instructions: 1610000003 cycles: 1949131888 heartbeat IPC: 0.800492 cumulative IPC: 0.749208 (Simulation time: 5 hr 54 min 45 sec) 
Heartbeat CPU 3 instructions: 1300000000 cycles: 1954013506 heartbeat IPC: 0.449557 cumulative IPC: 0.577902 (Simulation time: 5 hr 55 min 32 sec) 
Heartbeat CPU 1 instructions: 1850000002 cycles: 1954104051 heartbeat IPC: 0.834756 cumulative IPC: 0.859794 (Simulation time: 5 hr 55 min 32 sec) 
Heartbeat CPU 0 instructions: 1620000000 cycles: 1958540627 heartbeat IPC: 1.06284 cumulative IPC: 0.750814 (Simulation time: 5 hr 56 min 14 sec) 
Heartbeat CPU 1 instructions: 1860000000 cycles: 1965625698 heartbeat IPC: 0.867931 cumulative IPC: 0.859845 (Simulation time: 5 hr 57 min 17 sec) 
Heartbeat CPU 0 instructions: 1630000002 cycles: 1973447495 heartbeat IPC: 0.670832 cumulative IPC: 0.750171 (Simulation time: 5 hr 58 min 23 sec) 
Heartbeat CPU 3 instructions: 1310000002 cycles: 1976358359 heartbeat IPC: 0.44753 cumulative IPC: 0.576332 (Simulation time: 5 hr 58 min 49 sec) 
Heartbeat CPU 1 instructions: 1870000003 cycles: 1977743414 heartbeat IPC: 0.825238 cumulative IPC: 0.859619 (Simulation time: 5 hr 59 min 1 sec) 
Heartbeat CPU 0 instructions: 1640000000 cycles: 1990003299 heartbeat IPC: 0.604018 cumulative IPC: 0.748876 (Simulation time: 6 hr 0 min 46 sec) 
Heartbeat CPU 1 instructions: 1880000000 cycles: 1990137843 heartbeat IPC: 0.806814 cumulative IPC: 0.859269 (Simulation time: 6 hr 0 min 47 sec) 
Heartbeat CPU 2 instructions: 400000000 cycles: 1990817007 heartbeat IPC: 0.0945253 cumulative IPC: 0.106967 (Simulation time: 6 hr 0 min 53 sec) 
Heartbeat CPU 3 instructions: 1320000000 cycles: 2000305139 heartbeat IPC: 0.417593 cumulative IPC: 0.57431 (Simulation time: 6 hr 2 min 12 sec) 
Heartbeat CPU 1 instructions: 1890000003 cycles: 2002013355 heartbeat IPC: 0.842069 cumulative IPC: 0.85916 (Simulation time: 6 hr 2 min 26 sec) 
Heartbeat CPU 0 instructions: 1650000001 cycles: 2005545101 heartbeat IPC: 0.643426 cumulative IPC: 0.748006 (Simulation time: 6 hr 2 min 59 sec) 
Heartbeat CPU 1 instructions: 1900000000 cycles: 2013747056 heartbeat IPC: 0.852246 cumulative IPC: 0.859117 (Simulation time: 6 hr 4 min 17 sec) 
Heartbeat CPU 0 instructions: 1660000000 cycles: 2018694559 heartbeat IPC: 0.760488 cumulative IPC: 0.748093 (Simulation time: 6 hr 4 min 58 sec) 
Heartbeat CPU 3 instructions: 1330000001 cycles: 2024332053 heartbeat IPC: 0.4162 cumulative IPC: 0.572313 (Simulation time: 6 hr 5 min 48 sec) 
Heartbeat CPU 1 instructions: 1910000001 cycles: 2025354436 heartbeat IPC: 0.861521 cumulative IPC: 0.859132 (Simulation time: 6 hr 5 min 58 sec) 
Heartbeat CPU 0 instructions: 1670000002 cycles: 2031178421 heartbeat IPC: 0.801034 cumulative IPC: 0.748439 (Simulation time: 6 hr 6 min 54 sec) 
Heartbeat CPU 1 instructions: 1920000000 cycles: 2036822969 heartbeat IPC: 0.871951 cumulative IPC: 0.859209 (Simulation time: 6 hr 7 min 43 sec) 
Heartbeat CPU 0 instructions: 1680000000 cycles: 2044969534 heartbeat IPC: 0.725105 cumulative IPC: 0.748271 (Simulation time: 6 hr 8 min 56 sec) 
Heartbeat CPU 3 instructions: 1340000000 cycles: 2047680815 heartbeat IPC: 0.428288 cumulative IPC: 0.570568 (Simulation time: 6 hr 9 min 22 sec) 
Heartbeat CPU 1 instructions: 1930000003 cycles: 2048538771 heartbeat IPC: 0.853548 cumulative IPC: 0.859174 (Simulation time: 6 hr 9 min 30 sec) 
Heartbeat CPU 0 instructions: 1690000000 cycles: 2057272866 heartbeat IPC: 0.812788 cumulative IPC: 0.748681 (Simulation time: 6 hr 10 min 49 sec) 
Heartbeat CPU 1 instructions: 1940000000 cycles: 2060556169 heartbeat IPC: 0.832127 cumulative IPC: 0.859007 (Simulation time: 6 hr 11 min 19 sec) 
[...]
Heartbeat CPU 0 instructions: 7840000000 cycles: 10213438540 heartbeat IPC: 0.804215 cumulative IPC: 0.753004 (Simulation time: 25 hr 55 min 43 sec) 
Heartbeat CPU 1 instructions: 8900000000 cycles: 10219423643 heartbeat IPC: 0.87564 cumulative IPC: 0.854202 (Simulation time: 25 hr 56 min 35 sec) 
Heartbeat CPU 3 instructions: 5400000000 cycles: 10220653055 heartbeat IPC: 0.454564 cumulative IPC: 0.510839 (Simulation time: 25 hr 56 min 46 sec) 
Heartbeat CPU 0 instructions: 7850000000 cycles: 10225884733 heartbeat IPC: 0.803459 cumulative IPC: 0.753067 (Simulation time: 25 hr 57 min 31 sec) 
Heartbeat CPU 1 instructions: 8910000001 cycles: 10230819521 heartbeat IPC: 0.87751 cumulative IPC: 0.854228 (Simulation time: 25 hr 58 min 15 sec) 
Heartbeat CPU 0 instructions: 7860000000 cycles: 10238220371 heartbeat IPC: 0.810659 cumulative IPC: 0.753137 (Simulation time: 25 hr 59 min 19 sec) 
Heartbeat CPU 1 instructions: 8920000000 cycles: 10242330447 heartbeat IPC: 0.86874 cumulative IPC: 0.854245 (Simulation time: 25 hr 59 min 54 sec) 
Heartbeat CPU 3 instructions: 5410000000 cycles: 10242627583 heartbeat IPC: 0.455072 cumulative IPC: 0.510718 (Simulation time: 25 hr 59 min 57 sec) 
Heartbeat CPU 0 instructions: 7870000000 cycles: 10250626746 heartbeat IPC: 0.806037 cumulative IPC: 0.753202 (Simulation time: 26 hr 1 min 6 sec) 
Heartbeat CPU 1 instructions: 8930000000 cycles: 10253812244 heartbeat IPC: 0.870944 cumulative IPC: 0.854263 (Simulation time: 26 hr 1 min 34 sec) 
Heartbeat CPU 0 instructions: 7880000000 cycles: 10263001277 heartbeat IPC: 0.808111 cumulative IPC: 0.753269 (Simulation time: 26 hr 2 min 54 sec) 
Heartbeat CPU 3 instructions: 5420000000 cycles: 10264822595 heartbeat IPC: 0.450552 cumulative IPC: 0.510586 (Simulation time: 26 hr 3 min 10 sec) 
Heartbeat CPU 1 instructions: 8940000000 cycles: 10265221408 heartbeat IPC: 0.876488 cumulative IPC: 0.854288 (Simulation time: 26 hr 3 min 14 sec) 
Heartbeat CPU 0 instructions: 7890000001 cycles: 10275216100 heartbeat IPC: 0.818678 cumulative IPC: 0.753347 (Simulation time: 26 hr 4 min 41 sec) 
Heartbeat CPU 1 instructions: 8950000002 cycles: 10276627723 heartbeat IPC: 0.876707 cumulative IPC: 0.854314 (Simulation time: 26 hr 4 min 53 sec) 
Heartbeat CPU 2 instructions: 1190000003 cycles: 10281802841 heartbeat IPC: 0.0959931 cumulative IPC: 0.097434 (Simulation time: 26 hr 5 min 38 sec) 
Heartbeat CPU 3 instructions: 5430000000 cycles: 10287131680 heartbeat IPC: 0.448248 cumulative IPC: 0.51045 (Simulation time: 26 hr 6 min 25 sec) 
Heartbeat CPU 0 instructions: 7900000000 cycles: 10287557982 heartbeat IPC: 0.810249 cumulative IPC: 0.753416 (Simulation time: 26 hr 6 min 28 sec) 
Heartbeat CPU 1 instructions: 8960000000 cycles: 10288027550 heartbeat IPC: 0.877206 cumulative IPC: 0.854339 (Simulation time: 26 hr 6 min 32 sec) 
Heartbeat CPU 1 instructions: 8970000000 cycles: 10299435161 heartbeat IPC: 0.876608 cumulative IPC: 0.854364 (Simulation time: 26 hr 8 min 12 sec) 
Heartbeat CPU 0 instructions: 7910000001 cycles: 10299832956 heartbeat IPC: 0.814666 cumulative IPC: 0.75349 (Simulation time: 26 hr 8 min 15 sec) 
Heartbeat CPU 3 instructions: 5440000000 cycles: 10309583855 heartbeat IPC: 0.445391 cumulative IPC: 0.510306 (Simulation time: 26 hr 9 min 40 sec) 
Heartbeat CPU 1 instructions: 8980000000 cycles: 10310920161 heartbeat IPC: 0.870701 cumulative IPC: 0.854383 (Simulation time: 26 hr 9 min 51 sec) 
Heartbeat CPU 0 instructions: 7920000000 cycles: 10312090604 heartbeat IPC: 0.815817 cumulative IPC: 0.753565 (Simulation time: 26 hr 10 min 2 sec) 
Heartbeat CPU 1 instructions: 8990000000 cycles: 10322304435 heartbeat IPC: 0.878405 cumulative IPC: 0.85441 (Simulation time: 26 hr 11 min 31 sec) 
Heartbeat CPU 0 instructions: 7930000002 cycles: 10324567026 heartbeat IPC: 0.801512 cumulative IPC: 0.753624 (Simulation time: 26 hr 11 min 50 sec) 
Heartbeat CPU 3 instructions: 5450000001 cycles: 10332071876 heartbeat IPC: 0.444681 cumulative IPC: 0.510162 (Simulation time: 26 hr 12 min 55 sec) 
Heartbeat CPU 1 instructions: 9000000000 cycles: 10333773564 heartbeat IPC: 0.871906 cumulative IPC: 0.854429 (Simulation time: 26 hr 13 min 10 sec) 
Heartbeat CPU 0 instructions: 7940000000 cycles: 10336908663 heartbeat IPC: 0.810265 cumulative IPC: 0.753692 (Simulation time: 26 hr 13 min 38 sec) 
Heartbeat CPU 1 instructions: 9010000001 cycles: 10345235243 heartbeat IPC: 0.872473 cumulative IPC: 0.854449 (Simulation time: 26 hr 14 min 50 sec) 
Heartbeat CPU 0 instructions: 7950000000 cycles: 10349284603 heartbeat IPC: 0.808019 cumulative IPC: 0.753758 (Simulation time: 26 hr 15 min 25 sec) 
Heartbeat CPU 3 instructions: 5460000000 cycles: 10354371919 heartbeat IPC: 0.44843 cumulative IPC: 0.510027 (Simulation time: 26 hr 16 min 9 sec) 
Heartbeat CPU 1 instructions: 9020000000 cycles: 10356695440 heartbeat IPC: 0.872585 cumulative IPC: 0.85447 (Simulation time: 26 hr 16 min 30 sec) 
Heartbeat CPU 0 instructions: 7960000000 cycles: 10361787016 heartbeat IPC: 0.799846 cumulative IPC: 0.753814 (Simulation time: 26 hr 17 min 14 sec) 
Heartbeat CPU 1 instructions: 9030000003 cycles: 10368163633 heartbeat IPC: 0.871977 cumulative IPC: 0.854489 (Simulation time: 26 hr 18 min 9 sec) 
Heartbeat CPU 0 instructions: 7970000000 cycles: 10374165472 heartbeat IPC: 0.807855 cumulative IPC: 0.75388 (Simulation time: 26 hr 19 min 2 sec) 
Heartbeat CPU 3 instructions: 5470000001 cycles: 10375898602 heartbeat IPC: 0.46454 cumulative IPC: 0.509932 (Simulation time: 26 hr 19 min 17 sec) 
Heartbeat CPU 1 instructions: 9040000000 cycles: 10379585318 heartbeat IPC: 0.875527 cumulative IPC: 0.854513 (Simulation time: 26 hr 19 min 49 sec) 
Heartbeat CPU 2 instructions: 1200000000 cycles: 10385580142 heartbeat IPC: 0.0963602 cumulative IPC: 0.0974232 (Simulation time: 26 hr 20 min 41 sec) 
Finished CPU 2 instructions: 1000000000 cycles: 10264497887 cumulative IPC: 0.0974232 (Simulation time: 26 hr 20 min 41 sec) 

CPU 0 Branch Prediction Accuracy: 99.8407% MPKI: 0.104288

CPU 1 Branch Prediction Accuracy: 99.975% MPKI: 0.00434493

CPU 2 Branch Prediction Accuracy: 98.8012% MPKI: 2.21428

CPU 3 Branch Prediction Accuracy: 97.7902% MPKI: 0.343914

ChampSim completed all CPUs

Total Simulation Statistics (not including warmup)

CPU 0 cumulative IPC: 0.753936 instructions: 7738770394 cycles: 10264497887
L1D TOTAL     ACCESS: 1865532275  HIT: 1659240813  MISS:  206291462
L1D LOAD      ACCESS: 1641462087  HIT: 1477033772  MISS:  164428315
L1D RFO       ACCESS:  224070188  HIT:  182207041  MISS:   41863147
L1D PREFETCH  ACCESS:          0  HIT:          0  MISS:          0
L1D WRITEBACK ACCESS:          0  HIT:          0  MISS:          0
L1I TOTAL     ACCESS: 1992438391  HIT: 1992438274  MISS:        117
L1I LOAD      ACCESS: 1992438391  HIT: 1992438274  MISS:        117
L1I RFO       ACCESS:          0  HIT:          0  MISS:          0
L1I PREFETCH  ACCESS:          0  HIT:          0  MISS:          0
L1I WRITEBACK ACCESS:          0  HIT:          0  MISS:          0
L2C TOTAL     ACCESS:  484157242  HIT:  307357618  MISS:  176799624
L2C LOAD      ACCESS:  164428302  HIT:   99881942  MISS:   64546360
L2C RFO       ACCESS:   41863147  HIT:      29230  MISS:   41833917
L2C PREFETCH  ACCESS:  220808681  HIT:  150427421  MISS:   70381260
L2C WRITEBACK ACCESS:   57057112  HIT:   57019025  MISS:      38087
LLC TOTAL     ACCESS:  840422397  HIT:  665304332  MISS:  175118065
LLC LOAD      ACCESS:   44262040  HIT:   36744111  MISS:    7517929
LLC RFO       ACCESS:   41833911  HIT:    3792803  MISS:   38041108
LLC PREFETCH  ACCESS:  697666676  HIT:  568109080  MISS:  129557596
LLC WRITEBACK ACCESS:   56659770  HIT:   56658338  MISS:       1432

CPU 1 cumulative IPC: 0.854526 instructions: 8771279471 cycles: 10264497887
L1D TOTAL     ACCESS: 1861271099  HIT: 1745193930  MISS:  116077169
L1D LOAD      ACCESS: 1245740866  HIT: 1129779307  MISS:  115961559
L1D RFO       ACCESS:  615530233  HIT:  615414623  MISS:     115610
L1D PREFETCH  ACCESS:          0  HIT:          0  MISS:          0
L1D WRITEBACK ACCESS:          0  HIT:          0  MISS:          0
L1I TOTAL     ACCESS: 1801447858  HIT: 1801447858  MISS:          0
L1I LOAD      ACCESS: 1801447858  HIT: 1801447858  MISS:          0
L1I RFO       ACCESS:          0  HIT:          0  MISS:          0
L1I PREFETCH  ACCESS:          0  HIT:          0  MISS:          0
L1I WRITEBACK ACCESS:          0  HIT:          0  MISS:          0
L2C TOTAL     ACCESS:  271997802  HIT:  158146286  MISS:  113851516
L2C LOAD      ACCESS:  115961559  HIT:   64573874  MISS:   51387685
L2C RFO       ACCESS:     115610  HIT:       5317  MISS:     110293
L2C PREFETCH  ACCESS:   78845750  HIT:   16492827  MISS:   62352923
L2C WRITEBACK ACCESS:   77074883  HIT:   77074268  MISS:        615
LLC TOTAL     ACCESS:  695179171  HIT:  618115699  MISS:   77063472
LLC LOAD      ACCESS:   33448302  HIT:   30895712  MISS:    2552590
LLC RFO       ACCESS:     110290  HIT:     110274  MISS:         16
LLC PREFETCH  ACCESS:  584587828  HIT:  510077393  MISS:   74510435
LLC WRITEBACK ACCESS:   77032751  HIT:   77032320  MISS:        431

CPU 2 cumulative IPC: 0.0974232 instructions: 1000000000 cycles: 10264497887
L1D TOTAL     ACCESS:  399715487  HIT:  241582190  MISS:  158133297
L1D LOAD      ACCESS:  341646633  HIT:  184634069  MISS:  157012564
L1D RFO       ACCESS:   58068854  HIT:   56948121  MISS:    1120733
L1D PREFETCH  ACCESS:          0  HIT:          0  MISS:          0
L1D WRITEBACK ACCESS:          0  HIT:          0  MISS:          0
L1I TOTAL     ACCESS:  361714702  HIT:  361714686  MISS:         16
L1I LOAD      ACCESS:  361714702  HIT:  361714686  MISS:         16
L1I RFO       ACCESS:          0  HIT:          0  MISS:          0
L1I PREFETCH  ACCESS:          0  HIT:          0  MISS:          0
L1I WRITEBACK ACCESS:          0  HIT:          0  MISS:          0
L2C TOTAL     ACCESS:  180476720  HIT:   21674664  MISS:  158802056
L2C LOAD      ACCESS:  157012558  HIT:   10522874  MISS:  146489684
L2C RFO       ACCESS:    1120733  HIT:      35578  MISS:    1085155
L2C PREFETCH  ACCESS:   20589694  HIT:    9369467  MISS:   11220227
L2C WRITEBACK ACCESS:    1753735  HIT:    1746745  MISS:       6990
LLC TOTAL     ACCESS:  348897513  HIT:  177549328  MISS:  171348185
LLC LOAD      ACCESS:  141317326  HIT:   50312203  MISS:   91005123
LLC RFO       ACCESS:    1066761  HIT:      23116  MISS:    1043645
LLC PREFETCH  ACCESS:  204771541  HIT:  125475867  MISS:   79295674
LLC WRITEBACK ACCESS:    1741885  HIT:    1738142  MISS:       3743

CPU 3 cumulative IPC: 0.509866 instructions: 5233515005 cycles: 10264497888
L1D TOTAL     ACCESS: 1432190702  HIT: 1095654569  MISS:  336536133
L1D LOAD      ACCESS:  532732499  HIT:  481679236  MISS:   51053263
L1D RFO       ACCESS:  899458203  HIT:  613975333  MISS:  285482870
L1D PREFETCH  ACCESS:          0  HIT:          0  MISS:          0
L1D WRITEBACK ACCESS:          0  HIT:          0  MISS:          0
L1I TOTAL     ACCESS: 1267130026  HIT: 1267130023  MISS:          3
L1I LOAD      ACCESS: 1267130026  HIT: 1267130023  MISS:          3
L1I RFO       ACCESS:          0  HIT:          0  MISS:          0
L1I PREFETCH  ACCESS:          0  HIT:          0  MISS:          0
L1I WRITEBACK ACCESS:          0  HIT:          0  MISS:          0
L2C TOTAL     ACCESS:  632038833  HIT:  379885440  MISS:  252153393
L2C LOAD      ACCESS:   51053266  HIT:    9066711  MISS:   41986555
L2C RFO       ACCESS:  285480898  HIT:   84397879  MISS:  201083019
L2C PREFETCH  ACCESS:   10021791  HIT:    1001167  MISS:    9020624
L2C WRITEBACK ACCESS:  285482878  HIT:  285419683  MISS:      63195
LLC TOTAL     ACCESS:  563223692  HIT:  359347084  MISS:  203876608
LLC LOAD      ACCESS:   35743164  HIT:   31931051  MISS:    3812113
LLC RFO       ACCESS:  200983601  HIT:   48101190  MISS:  152882411
LLC PREFETCH  ACCESS:  125353510  HIT:   78187853  MISS:   47165657
LLC WRITEBACK ACCESS:  201143417  HIT:  201126990  MISS:      16427

Region of Interest Statistics

CPU 0 cumulative IPC: 0.750177 instructions: 1000000000 cycles: 1333019270
L1D TOTAL     ACCESS:  239675171  HIT:  213463597  MISS:   26211574
L1D LOAD      ACCESS:  217806417  HIT:  197318618  MISS:   20487799
L1D RFO       ACCESS:   21868754  HIT:   16144979  MISS:    5723775
L1D PREFETCH  ACCESS:          0  HIT:          0  MISS:          0
L1D WRITEBACK ACCESS:          0  HIT:          0  MISS:          0
L1D PREFETCH  REQUESTED:          0  ISSUED:          0  USEFUL:          0  USELESS:          0
L1I TOTAL     ACCESS:  255229938  HIT:  255229938  MISS:          0
L1I LOAD      ACCESS:  255229938  HIT:  255229938  MISS:          0
L1I RFO       ACCESS:          0  HIT:          0  MISS:          0
L1I PREFETCH  ACCESS:          0  HIT:          0  MISS:          0
L1I WRITEBACK ACCESS:          0  HIT:          0  MISS:          0
L1I PREFETCH  REQUESTED:          0  ISSUED:          0  USEFUL:          0  USELESS:          0
L2C TOTAL     ACCESS:   61945195  HIT:   39434722  MISS:   22510473
L2C LOAD      ACCESS:   20487793  HIT:   12815082  MISS:    7672711
L2C RFO       ACCESS:    5723775  HIT:         33  MISS:    5723742
L2C PREFETCH  ACCESS:   28242313  HIT:   19128617  MISS:    9113696
L2C WRITEBACK ACCESS:    7491314  HIT:    7490990  MISS:        324
L2C PREFETCH  REQUESTED: 1170745227  ISSUED: 1165411039  USEFUL:   71765159  USELESS:    1136102
LLC TOTAL     ACCESS:  107373452  HIT:   82866577  MISS:   24506875
LLC LOAD      ACCESS:    5448819  HIT:    4443302  MISS:    1005517
LLC RFO       ACCESS:    5723742  HIT:        241  MISS:    5723501
LLC PREFETCH  ACCESS:   88763173  HIT:   70985509  MISS:   17777664
LLC WRITEBACK ACCESS:    7437718  HIT:    7437525  MISS:        193
LLC PREFETCH  REQUESTED:          0  ISSUED:          0  USEFUL:  130727695  USELESS:  210908988
Major fault: 0 Minor fault: 209522

CPU 1 cumulative IPC: 0.861405 instructions: 1000000002 cycles: 1160894519
L1D TOTAL     ACCESS:  212219294  HIT:  198985513  MISS:   13233781
L1D LOAD      ACCESS:  142043661  HIT:  128823060  MISS:   13220601
L1D RFO       ACCESS:   70175633  HIT:   70162453  MISS:      13180
L1D PREFETCH  ACCESS:          0  HIT:          0  MISS:          0
L1D WRITEBACK ACCESS:          0  HIT:          0  MISS:          0
L1D PREFETCH  REQUESTED:          0  ISSUED:          0  USEFUL:          0  USELESS:          0
L1I TOTAL     ACCESS:  205413752  HIT:  205413752  MISS:          0
L1I LOAD      ACCESS:  205413752  HIT:  205413752  MISS:          0
L1I RFO       ACCESS:          0  HIT:          0  MISS:          0
L1I PREFETCH  ACCESS:          0  HIT:          0  MISS:          0
L1I WRITEBACK ACCESS:          0  HIT:          0  MISS:          0
L1I PREFETCH  REQUESTED:          0  ISSUED:          0  USEFUL:          0  USELESS:          0
L2C TOTAL     ACCESS:   30931776  HIT:   17935563  MISS:   12996213
L2C LOAD      ACCESS:   13220601  HIT:    7400871  MISS:    5819730
L2C RFO       ACCESS:      13180  HIT:        549  MISS:      12631
L2C PREFETCH  ACCESS:    8910798  HIT:    1746946  MISS:    7163852
L2C WRITEBACK ACCESS:    8787197  HIT:    8787197  MISS:          0
L2C PREFETCH  REQUESTED:  878422931  ISSUED:  878422861  USEFUL:   64688588  USELESS:      44117
LLC TOTAL     ACCESS:   79756504  HIT:   70970702  MISS:    8785802
LLC LOAD      ACCESS:    3811027  HIT:    3519060  MISS:     291967
LLC RFO       ACCESS:      12631  HIT:      12631  MISS:          0
LLC PREFETCH  ACCESS:   67150621  HIT:   58656797  MISS:    8493824
LLC WRITEBACK ACCESS:    8782225  HIT:    8782214  MISS:         11
LLC PREFETCH  REQUESTED:          0  ISSUED:          0  USEFUL:  130727695  USELESS:  210908988
Major fault: 0 Minor fault: 274488

CPU 2 cumulative IPC: 0.0974232 instructions: 1000000000 cycles: 10264497887
L1D TOTAL     ACCESS:  399715487  HIT:  241582190  MISS:  158133297
L1D LOAD      ACCESS:  341646633  HIT:  184634069  MISS:  157012564
L1D RFO       ACCESS:   58068854  HIT:   56948121  MISS:    1120733
L1D PREFETCH  ACCESS:          0  HIT:          0  MISS:          0
L1D WRITEBACK ACCESS:          0  HIT:          0  MISS:          0
L1D PREFETCH  REQUESTED:          0  ISSUED:          0  USEFUL:          0  USELESS:          0
L1I TOTAL     ACCESS:  361714702  HIT:  361714686  MISS:         16
L1I LOAD      ACCESS:  361714702  HIT:  361714686  MISS:         16
L1I RFO       ACCESS:          0  HIT:          0  MISS:          0
L1I PREFETCH  ACCESS:          0  HIT:          0  MISS:          0
L1I WRITEBACK ACCESS:          0  HIT:          0  MISS:          0
L1I PREFETCH  REQUESTED:          0  ISSUED:          0  USEFUL:          0  USELESS:          0
L2C TOTAL     ACCESS:  180476720  HIT:   21674664  MISS:  158802056
L2C LOAD      ACCESS:  157012558  HIT:   10522874  MISS:  146489684
L2C RFO       ACCESS:    1120733  HIT:      35578  MISS:    1085155
L2C PREFETCH  ACCESS:   20589694  HIT:    9369467  MISS:   11220227
L2C WRITEBACK ACCESS:    1753735  HIT:    1746745  MISS:       6990
L2C PREFETCH  REQUESTED:  485809622  ISSUED:  485803557  USEFUL:   14036234  USELESS:     817704
LLC TOTAL     ACCESS:  348897513  HIT:  177549328  MISS:  171348185
LLC LOAD      ACCESS:  141317326  HIT:   50312203  MISS:   91005123
LLC RFO       ACCESS:    1066761  HIT:      23116  MISS:    1043645
LLC PREFETCH  ACCESS:  204771541  HIT:  125475867  MISS:   79295674
LLC WRITEBACK ACCESS:    1741885  HIT:    1738142  MISS:       3743
LLC PREFETCH  REQUESTED:          0  ISSUED:          0  USEFUL:  130727695  USELESS:  210908988
Major fault: 0 Minor fault: 46954

CPU 3 cumulative IPC: 0.588584 instructions: 1000000000 cycles: 1698993859
L1D TOTAL     ACCESS:  266873628  HIT:  212916556  MISS:   53957072
L1D LOAD      ACCESS:  103246551  HIT:   95064195  MISS:    8182356
L1D RFO       ACCESS:  163627077  HIT:  117852361  MISS:   45774716
L1D PREFETCH  ACCESS:          0  HIT:          0  MISS:          0
L1D WRITEBACK ACCESS:          0  HIT:          0  MISS:          0
L1D PREFETCH  REQUESTED:          0  ISSUED:          0  USEFUL:          0  USELESS:          0
L1I TOTAL     ACCESS:  240699778  HIT:  240699775  MISS:          3
L1I LOAD      ACCESS:  240699778  HIT:  240699775  MISS:          3
L1I RFO       ACCESS:          0  HIT:          0  MISS:          0
L1I PREFETCH  ACCESS:          0  HIT:          0  MISS:          0
L1I WRITEBACK ACCESS:          0  HIT:          0  MISS:          0
L1I PREFETCH  REQUESTED:          0  ISSUED:          0  USEFUL:          0  USELESS:          0
L2C TOTAL     ACCESS:  101407105  HIT:   61657680  MISS:   39749425
L2C LOAD      ACCESS:    8182359  HIT:    1516542  MISS:    6665817
L2C RFO       ACCESS:   45774485  HIT:   14208954  MISS:   31565531
L2C PREFETCH  ACCESS:    1675540  HIT:     164290  MISS:    1511250
L2C WRITEBACK ACCESS:   45774721  HIT:   45767894  MISS:       6827
L2C PREFETCH  REQUESTED:  334045105  ISSUED:  334045105  USEFUL:    9550268  USELESS:       5103
LLC TOTAL     ACCESS:   89802650  HIT:   57109912  MISS:   32692738
LLC LOAD      ACCESS:    5677805  HIT:    5149063  MISS:     528742
LLC RFO       ACCESS:   31547811  HIT:    7031150  MISS:   24516661
LLC PREFETCH  ACCESS:   21005028  HIT:   13359679  MISS:    7645349
LLC WRITEBACK ACCESS:   31572006  HIT:   31570020  MISS:       1986
LLC PREFETCH  REQUESTED:          0  ISSUED:          0  USEFUL:  130727695  USELESS:  210908988
Major fault: 0 Minor fault: 631850

DRAM Statistics
 CHANNEL 0
 RQ ROW_BUFFER_HIT:   81144335  ROW_BUFFER_MISS:  232626045
 DBUS_CONGESTED:  751506466
 WQ ROW_BUFFER_HIT:   10573535  ROW_BUFFER_MISS:  131599605  FULL:          0

 CHANNEL 1
 RQ ROW_BUFFER_HIT:   81076606  ROW_BUFFER_MISS:  232536829
 DBUS_CONGESTED:  751506466
 WQ ROW_BUFFER_HIT:   10603137  ROW_BUFFER_MISS:  131573125  FULL:          0

 AVG_CONGESTED_CYCLE: 14
