Initialize SIGNATURE TABLE
ST_SET: 1
ST_WAY: 256
ST_TAG_BIT: 16
ST_TAG_MASK: ffff

Initialize PATTERN TABLE
PT_SET: 512
PT_WAY: 4
SIG_DELTA_BIT: 7
C_SIG_BIT: 4
C_DELTA_BIT: 4

Initialize PREFETCH FILTER
FILTER_SET: 1024

*** ChampSim Multicore Out-of-Order Simulator ***

Warmup Instructions: 200000000
Simulation Instructions: 1000000000
Number of CPUs: 4
LLC sets: 8192
LLC ways: 16
Off-chip DRAM Size: 8192 MB Channels: 2 Width: 64-bit Data Rate: 1600 MT/s

CPU 0 runs /scratch/user/djimenez/champsim-traces/speccpu2017/xz/602.gcc_s/602.gcc_s-2375B.champsimtrace.xz
CPU 1 runs /scratch/user/djimenez/champsim-traces/speccpu2017/xz/654.roms_s/654.roms_s-1390B.champsimtrace.xz
CPU 2 runs /scratch/user/djimenez/champsim-traces/speccpu2017/xz/607.cactuBSSN_s/607.cactuBSSN_s-4004B.champsimtrace.xz
CPU 3 runs /scratch/user/djimenez/champsim-traces/speccpu2017/xz/619.lbm_s/619.lbm_s-4268B.champsimtrace.xz
Heartbeat CPU 3 instructions: 10000001 cycles: 4897788 heartbeat IPC: 2.04174 cumulative IPC: 2.04174 (Simulation time: 0 hr 1 min 56 sec) 
Heartbeat CPU 2 instructions: 10000000 cycles: 5801883 heartbeat IPC: 1.72358 cumulative IPC: 1.72358 (Simulation time: 0 hr 2 min 18 sec) 
Heartbeat CPU 1 instructions: 10000001 cycles: 6747182 heartbeat IPC: 1.4821 cumulative IPC: 1.4821 (Simulation time: 0 hr 2 min 40 sec) 
Heartbeat CPU 0 instructions: 10000002 cycles: 6798272 heartbeat IPC: 1.47096 cumulative IPC: 1.47096 (Simulation time: 0 hr 2 min 41 sec) 
Heartbeat CPU 3 instructions: 20000000 cycles: 9788511 heartbeat IPC: 2.04469 cumulative IPC: 2.04321 (Simulation time: 0 hr 3 min 53 sec) 
Heartbeat CPU 2 instructions: 20000000 cycles: 11605043 heartbeat IPC: 1.7232 cumulative IPC: 1.72339 (Simulation time: 0 hr 4 min 37 sec) 
Heartbeat CPU 1 instructions: 20000000 cycles: 11877516 heartbeat IPC: 1.94919 cumulative IPC: 1.68385 (Simulation time: 0 hr 4 min 43 sec) 
Heartbeat CPU 0 instructions: 20000000 cycles: 13354915 heartbeat IPC: 1.52517 cumulative IPC: 1.49758 (Simulation time: 0 hr 5 min 19 sec) 
Heartbeat CPU 3 instructions: 30000000 cycles: 14667369 heartbeat IPC: 2.04966 cumulative IPC: 2.04536 (Simulation time: 0 hr 5 min 50 sec) 
Heartbeat CPU 1 instructions: 30000003 cycles: 16399579 heartbeat IPC: 2.21138 cumulative IPC: 1.82932 (Simulation time: 0 hr 6 min 32 sec) 
Heartbeat CPU 2 instructions: 30000001 cycles: 17408102 heartbeat IPC: 1.72323 cumulative IPC: 1.72334 (Simulation time: 0 hr 6 min 56 sec) 
Heartbeat CPU 3 instructions: 40000000 cycles: 19571521 heartbeat IPC: 2.03909 cumulative IPC: 2.04379 (Simulation time: 0 hr 7 min 47 sec) 
Heartbeat CPU 0 instructions: 30000001 cycles: 20214248 heartbeat IPC: 1.45787 cumulative IPC: 1.4841 (Simulation time: 0 hr 8 min 2 sec) 
Heartbeat CPU 1 instructions: 40000000 cycles: 22622643 heartbeat IPC: 1.60693 cumulative IPC: 1.76814 (Simulation time: 0 hr 8 min 57 sec) 
Heartbeat CPU 2 instructions: 40000000 cycles: 23210073 heartbeat IPC: 1.72355 cumulative IPC: 1.72339 (Simulation time: 0 hr 9 min 11 sec) 
Heartbeat CPU 3 instructions: 50000001 cycles: 24482439 heartbeat IPC: 2.03628 cumulative IPC: 2.04228 (Simulation time: 0 hr 9 min 41 sec) 
Heartbeat CPU 0 instructions: 40000000 cycles: 26389370 heartbeat IPC: 1.6194 cumulative IPC: 1.51576 (Simulation time: 0 hr 10 min 24 sec) 
Heartbeat CPU 2 instructions: 50000001 cycles: 29013435 heartbeat IPC: 1.72314 cumulative IPC: 1.72334 (Simulation time: 0 hr 11 min 26 sec) 
Heartbeat CPU 3 instructions: 60000000 cycles: 29412935 heartbeat IPC: 2.02819 cumulative IPC: 2.03992 (Simulation time: 0 hr 11 min 36 sec) 
Heartbeat CPU 1 instructions: 50000003 cycles: 29644402 heartbeat IPC: 1.42414 cumulative IPC: 1.68666 (Simulation time: 0 hr 11 min 42 sec) 
Heartbeat CPU 0 instructions: 50000001 cycles: 32264678 heartbeat IPC: 1.70204 cumulative IPC: 1.54968 (Simulation time: 0 hr 12 min 48 sec) 
Heartbeat CPU 1 instructions: 60000000 cycles: 33076162 heartbeat IPC: 2.91396 cumulative IPC: 1.814 (Simulation time: 0 hr 13 min 10 sec) 
Heartbeat CPU 3 instructions: 70000003 cycles: 34332744 heartbeat IPC: 2.0326 cumulative IPC: 2.03887 (Simulation time: 0 hr 13 min 45 sec) 
Heartbeat CPU 2 instructions: 60000000 cycles: 34816300 heartbeat IPC: 1.72329 cumulative IPC: 1.72333 (Simulation time: 0 hr 14 min 0 sec) 
Heartbeat CPU 1 instructions: 70000002 cycles: 36478276 heartbeat IPC: 2.93935 cumulative IPC: 1.91895 (Simulation time: 0 hr 14 min 48 sec) 
Heartbeat CPU 0 instructions: 60000000 cycles: 37943436 heartbeat IPC: 1.76095 cumulative IPC: 1.5813 (Simulation time: 0 hr 15 min 27 sec) 
Heartbeat CPU 3 instructions: 80000000 cycles: 39227548 heartbeat IPC: 2.04298 cumulative IPC: 2.03938 (Simulation time: 0 hr 16 min 2 sec) 
Heartbeat CPU 1 instructions: 80000000 cycles: 39879583 heartbeat IPC: 2.94005 cumulative IPC: 2.00604 (Simulation time: 0 hr 16 min 19 sec) 
Heartbeat CPU 2 instructions: 70000002 cycles: 40618811 heartbeat IPC: 1.72339 cumulative IPC: 1.72334 (Simulation time: 0 hr 16 min 45 sec) 
Heartbeat CPU 3 instructions: 90000000 cycles: 44139941 heartbeat IPC: 2.03567 cumulative IPC: 2.03897 (Simulation time: 0 hr 18 min 22 sec) 
Heartbeat CPU 0 instructions: 70000001 cycles: 44568658 heartbeat IPC: 1.50938 cumulative IPC: 1.57061 (Simulation time: 0 hr 18 min 35 sec) 
Heartbeat CPU 1 instructions: 90000003 cycles: 45371692 heartbeat IPC: 1.82079 cumulative IPC: 1.98362 (Simulation time: 0 hr 18 min 58 sec) 
Heartbeat CPU 2 instructions: 80000000 cycles: 46421153 heartbeat IPC: 1.72344 cumulative IPC: 1.72335 (Simulation time: 0 hr 19 min 25 sec) 
Heartbeat CPU 3 instructions: 100000000 cycles: 49033952 heartbeat IPC: 2.04331 cumulative IPC: 2.0394 (Simulation time: 0 hr 20 min 31 sec) 
Heartbeat CPU 1 instructions: 100000000 cycles: 50192339 heartbeat IPC: 2.07441 cumulative IPC: 1.99234 (Simulation time: 0 hr 21 min 7 sec) 
Heartbeat CPU 0 instructions: 80000000 cycles: 50356051 heartbeat IPC: 1.72789 cumulative IPC: 1.58869 (Simulation time: 0 hr 21 min 12 sec) 
Heartbeat CPU 2 instructions: 90000000 cycles: 52224778 heartbeat IPC: 1.72306 cumulative IPC: 1.72332 (Simulation time: 0 hr 22 min 9 sec) 
Heartbeat CPU 3 instructions: 110000002 cycles: 53946869 heartbeat IPC: 2.03545 cumulative IPC: 2.03904 (Simulation time: 0 hr 23 min 2 sec) 
Heartbeat CPU 1 instructions: 110000001 cycles: 54201409 heartbeat IPC: 2.49434 cumulative IPC: 2.02947 (Simulation time: 0 hr 23 min 8 sec) 
Heartbeat CPU 0 instructions: 90000003 cycles: 55950215 heartbeat IPC: 1.78758 cumulative IPC: 1.60857 (Simulation time: 0 hr 24 min 1 sec) 
Heartbeat CPU 1 instructions: 120000000 cycles: 57519515 heartbeat IPC: 3.01377 cumulative IPC: 2.08625 (Simulation time: 0 hr 25 min 17 sec) 
Heartbeat CPU 2 instructions: 100000000 cycles: 58027409 heartbeat IPC: 1.72336 cumulative IPC: 1.72332 (Simulation time: 0 hr 25 min 42 sec) 
Heartbeat CPU 3 instructions: 120000000 cycles: 58876355 heartbeat IPC: 2.02861 cumulative IPC: 2.03817 (Simulation time: 0 hr 26 min 25 sec) 
Heartbeat CPU 1 instructions: 130000003 cycles: 61159569 heartbeat IPC: 2.74721 cumulative IPC: 2.12559 (Simulation time: 0 hr 28 min 2 sec) 
Heartbeat CPU 0 instructions: 100000000 cycles: 62369886 heartbeat IPC: 1.55771 cumulative IPC: 1.60334 (Simulation time: 0 hr 28 min 39 sec) 
Heartbeat CPU 3 instructions: 130000003 cycles: 63772330 heartbeat IPC: 2.04249 cumulative IPC: 2.0385 (Simulation time: 0 hr 29 min 16 sec) 
Heartbeat CPU 2 instructions: 110000002 cycles: 63829787 heartbeat IPC: 1.72343 cumulative IPC: 1.72333 (Simulation time: 0 hr 29 min 19 sec) 
Heartbeat CPU 1 instructions: 140000000 cycles: 67020053 heartbeat IPC: 1.70634 cumulative IPC: 2.08893 (Simulation time: 0 hr 30 min 39 sec) 
Heartbeat CPU 3 instructions: 140000000 cycles: 68677272 heartbeat IPC: 2.03876 cumulative IPC: 2.03852 (Simulation time: 0 hr 31 min 18 sec) 
Heartbeat CPU 0 instructions: 110000003 cycles: 68862848 heartbeat IPC: 1.54013 cumulative IPC: 1.59738 (Simulation time: 0 hr 31 min 23 sec) 
Heartbeat CPU 2 instructions: 120000000 cycles: 69632034 heartbeat IPC: 1.72347 cumulative IPC: 1.72334 (Simulation time: 0 hr 31 min 46 sec) 
Heartbeat CPU 1 instructions: 150000000 cycles: 72317794 heartbeat IPC: 1.8876 cumulative IPC: 2.07418 (Simulation time: 0 hr 32 min 58 sec) 
Heartbeat CPU 3 instructions: 150000000 cycles: 73603274 heartbeat IPC: 2.03004 cumulative IPC: 2.03795 (Simulation time: 0 hr 33 min 30 sec) 
Heartbeat CPU 2 instructions: 130000003 cycles: 75435356 heartbeat IPC: 1.72315 cumulative IPC: 1.72333 (Simulation time: 0 hr 34 min 11 sec) 
Heartbeat CPU 0 instructions: 120000000 cycles: 75619220 heartbeat IPC: 1.48008 cumulative IPC: 1.5869 (Simulation time: 0 hr 34 min 15 sec) 
Heartbeat CPU 3 instructions: 160000000 cycles: 78542557 heartbeat IPC: 2.02459 cumulative IPC: 2.03711 (Simulation time: 0 hr 35 min 22 sec) 
Heartbeat CPU 1 instructions: 160000000 cycles: 80608419 heartbeat IPC: 1.20618 cumulative IPC: 1.9849 (Simulation time: 0 hr 36 min 9 sec) 
Heartbeat CPU 2 instructions: 140000000 cycles: 81237643 heartbeat IPC: 1.72346 cumulative IPC: 1.72334 (Simulation time: 0 hr 36 min 23 sec) 
Heartbeat CPU 0 instructions: 130000002 cycles: 81755487 heartbeat IPC: 1.62966 cumulative IPC: 1.59011 (Simulation time: 0 hr 36 min 35 sec) 
Heartbeat CPU 3 instructions: 170000000 cycles: 83472125 heartbeat IPC: 2.02858 cumulative IPC: 2.03661 (Simulation time: 0 hr 37 min 14 sec) 
Heartbeat CPU 2 instructions: 150000001 cycles: 87040332 heartbeat IPC: 1.72334 cumulative IPC: 1.72334 (Simulation time: 0 hr 38 min 34 sec) 
Heartbeat CPU 0 instructions: 140000000 cycles: 88308992 heartbeat IPC: 1.5259 cumulative IPC: 1.58534 (Simulation time: 0 hr 39 min 1 sec) 
Heartbeat CPU 3 instructions: 180000000 cycles: 88396532 heartbeat IPC: 2.0307 cumulative IPC: 2.03628 (Simulation time: 0 hr 39 min 3 sec) 
Heartbeat CPU 1 instructions: 170000003 cycles: 89199106 heartbeat IPC: 1.16405 cumulative IPC: 1.90585 (Simulation time: 0 hr 39 min 20 sec) 
Heartbeat CPU 2 instructions: 160000000 cycles: 92841708 heartbeat IPC: 1.72373 cumulative IPC: 1.72336 (Simulation time: 0 hr 40 min 37 sec) 
Heartbeat CPU 3 instructions: 190000001 cycles: 93330478 heartbeat IPC: 2.02678 cumulative IPC: 2.03578 (Simulation time: 0 hr 40 min 47 sec) 
Heartbeat CPU 0 instructions: 150000000 cycles: 94847405 heartbeat IPC: 1.52942 cumulative IPC: 1.58149 (Simulation time: 0 hr 41 min 19 sec) 
Heartbeat CPU 1 instructions: 180000000 cycles: 97829905 heartbeat IPC: 1.15864 cumulative IPC: 1.83993 (Simulation time: 0 hr 42 min 27 sec) 
Heartbeat CPU 3 instructions: 200000000 cycles: 98254831 heartbeat IPC: 2.03072 cumulative IPC: 2.03552 (Simulation time: 0 hr 42 min 37 sec) 
Heartbeat CPU 2 instructions: 170000000 cycles: 98644065 heartbeat IPC: 1.72344 cumulative IPC: 1.72337 (Simulation time: 0 hr 42 min 46 sec) 
Heartbeat CPU 0 instructions: 160000000 cycles: 100588743 heartbeat IPC: 1.74175 cumulative IPC: 1.59064 (Simulation time: 0 hr 43 min 32 sec) 
Heartbeat CPU 1 instructions: 190000001 cycles: 102885376 heartbeat IPC: 1.97806 cumulative IPC: 1.84672 (Simulation time: 0 hr 44 min 27 sec) 
Heartbeat CPU 3 instructions: 210000001 cycles: 103204304 heartbeat IPC: 2.02042 cumulative IPC: 0.0968952 (Simulation time: 0 hr 44 min 35 sec) 
Heartbeat CPU 2 instructions: 180000000 cycles: 104445912 heartbeat IPC: 1.72359 cumulative IPC: 1.72338 (Simulation time: 0 hr 45 min 5 sec) 
Heartbeat CPU 1 instructions: 200000000 cycles: 106641110 heartbeat IPC: 2.6626 cumulative IPC: 1.87545 (Simulation time: 0 hr 45 min 58 sec) 
Heartbeat CPU 0 instructions: 170000000 cycles: 107477356 heartbeat IPC: 1.45167 cumulative IPC: 1.58173 (Simulation time: 0 hr 46 min 17 sec) 
Heartbeat CPU 3 instructions: 220000000 cycles: 108150652 heartbeat IPC: 2.02169 cumulative IPC: 0.184927 (Simulation time: 0 hr 46 min 33 sec) 
Heartbeat CPU 2 instructions: 190000002 cycles: 110249372 heartbeat IPC: 1.72311 cumulative IPC: 1.72337 (Simulation time: 0 hr 47 min 21 sec) 
Heartbeat CPU 3 instructions: 230000003 cycles: 113081487 heartbeat IPC: 2.02805 cumulative IPC: 0.265295 (Simulation time: 0 hr 48 min 25 sec) 
Heartbeat CPU 1 instructions: 210000000 cycles: 113227630 heartbeat IPC: 1.51825 cumulative IPC: 0.0883177 (Simulation time: 0 hr 48 min 29 sec) 
Heartbeat CPU 0 instructions: 180000000 cycles: 113702471 heartbeat IPC: 1.6064 cumulative IPC: 1.58308 (Simulation time: 0 hr 48 min 39 sec) 
Heartbeat CPU 2 instructions: 200000000 cycles: 116051322 heartbeat IPC: 1.72356 cumulative IPC: 1.72338 (Simulation time: 0 hr 49 min 33 sec) 
Heartbeat CPU 3 instructions: 240000000 cycles: 118019517 heartbeat IPC: 2.0251 cumulative IPC: 0.338927 (Simulation time: 0 hr 50 min 18 sec) 
Heartbeat CPU 1 instructions: 220000000 cycles: 119225974 heartbeat IPC: 1.66713 cumulative IPC: 0.167749 (Simulation time: 0 hr 50 min 45 sec) 
Heartbeat CPU 0 instructions: 190000001 cycles: 120627693 heartbeat IPC: 1.444 cumulative IPC: 1.57509 (Simulation time: 0 hr 51 min 18 sec) 
Heartbeat CPU 2 instructions: 210000000 cycles: 121854021 heartbeat IPC: 1.72334 cumulative IPC: 0.0820654 (Simulation time: 0 hr 51 min 47 sec) 
Heartbeat CPU 3 instructions: 250000000 cycles: 122923632 heartbeat IPC: 2.0391 cumulative IPC: 0.406757 (Simulation time: 0 hr 52 min 12 sec) 
Heartbeat CPU 1 instructions: 230000001 cycles: 123757666 heartbeat IPC: 2.20668 cumulative IPC: 0.242409 (Simulation time: 0 hr 52 min 32 sec) 
Heartbeat CPU 0 instructions: 200000000 cycles: 127393915 heartbeat IPC: 1.47793 cumulative IPC: 1.56993 (Simulation time: 0 hr 53 min 56 sec) 

Warmup complete CPU 0 instructions: 200000001 cycles: 127393916 (Simulation time: 0 hr 53 min 56 sec) 
Warmup complete CPU 1 instructions: 236727131 cycles: 127393915 (Simulation time: 0 hr 53 min 56 sec) 
Warmup complete CPU 2 instructions: 219545707 cycles: 127393915 (Simulation time: 0 hr 53 min 56 sec) 
Warmup complete CPU 3 instructions: 259096204 cycles: 127393915 (Simulation time: 0 hr 53 min 56 sec) 

Heartbeat CPU 2 instructions: 220000000 cycles: 127861340 heartbeat IPC: 1.66464 cumulative IPC: 0.971906 (Simulation time: 0 hr 54 min 1 sec) 
Heartbeat CPU 3 instructions: 260000000 cycles: 129441416 heartbeat IPC: 1.53426 cumulative IPC: 0.441414 (Simulation time: 0 hr 54 min 18 sec) 
Heartbeat CPU 1 instructions: 240000000 cycles: 132252131 heartbeat IPC: 1.17724 cumulative IPC: 0.673677 (Simulation time: 0 hr 54 min 49 sec) 
Heartbeat CPU 2 instructions: 230000000 cycles: 138034359 heartbeat IPC: 0.982992 cumulative IPC: 0.982505 (Simulation time: 0 hr 55 min 52 sec) 
Heartbeat CPU 1 instructions: 250000003 cycles: 147054313 heartbeat IPC: 0.675576 cumulative IPC: 0.675107 (Simulation time: 0 hr 57 min 33 sec) 
Heartbeat CPU 2 instructions: 240000000 cycles: 148384419 heartbeat IPC: 0.966178 cumulative IPC: 0.974455 (Simulation time: 0 hr 57 min 47 sec) 
Heartbeat CPU 3 instructions: 270000001 cycles: 151996452 heartbeat IPC: 0.44336 cumulative IPC: 0.443198 (Simulation time: 0 hr 58 min 28 sec) 
Heartbeat CPU 0 instructions: 210000000 cycles: 157218983 heartbeat IPC: 0.335288 cumulative IPC: 0.335288 (Simulation time: 0 hr 59 min 24 sec) 
Heartbeat CPU 2 instructions: 250000003 cycles: 158504120 heartbeat IPC: 0.988172 cumulative IPC: 0.978917 (Simulation time: 0 hr 59 min 37 sec) 
Heartbeat CPU 1 instructions: 260000000 cycles: 161912741 heartbeat IPC: 0.673019 cumulative IPC: 0.674208 (Simulation time: 1 hr 0 min 12 sec) 
Heartbeat CPU 2 instructions: 260000000 cycles: 168568186 heartbeat IPC: 0.993634 cumulative IPC: 0.982514 (Simulation time: 1 hr 1 min 29 sec) 
Heartbeat CPU 1 instructions: 270000000 cycles: 170554539 heartbeat IPC: 1.15717 cumulative IPC: 0.770908 (Simulation time: 1 hr 1 min 52 sec) 
Heartbeat CPU 3 instructions: 280000000 cycles: 173529359 heartbeat IPC: 0.464405 cumulative IPC: 0.453096 (Simulation time: 1 hr 2 min 27 sec) 
Heartbeat CPU 2 instructions: 270000003 cycles: 178586070 heartbeat IPC: 0.998215 cumulative IPC: 0.985586 (Simulation time: 1 hr 3 min 25 sec) 
Heartbeat CPU 1 instructions: 280000000 cycles: 179180679 heartbeat IPC: 1.15927 cumulative IPC: 0.835597 (Simulation time: 1 hr 3 min 32 sec) 
Heartbeat CPU 0 instructions: 220000000 cycles: 187491589 heartbeat IPC: 0.330332 cumulative IPC: 0.332792 (Simulation time: 1 hr 5 min 22 sec) 
Heartbeat CPU 2 instructions: 280000000 cycles: 188654894 heartbeat IPC: 0.993164 cumulative IPC: 0.986832 (Simulation time: 1 hr 5 min 34 sec) 
Heartbeat CPU 1 instructions: 290000000 cycles: 189263829 heartbeat IPC: 0.991754 cumulative IPC: 0.861046 (Simulation time: 1 hr 5 min 40 sec) 
Heartbeat CPU 3 instructions: 290000001 cycles: 195363243 heartbeat IPC: 0.458004 cumulative IPC: 0.454673 (Simulation time: 1 hr 6 min 49 sec) 
Heartbeat CPU 2 instructions: 290000001 cycles: 198728584 heartbeat IPC: 0.992685 cumulative IPC: 0.987659 (Simulation time: 1 hr 7 min 30 sec) 
Heartbeat CPU 1 instructions: 300000000 cycles: 206587528 heartbeat IPC: 0.577244 cumulative IPC: 0.798964 (Simulation time: 1 hr 8 min 54 sec) 
Heartbeat CPU 2 instructions: 300000000 cycles: 208813180 heartbeat IPC: 0.991611 cumulative IPC: 0.988148 (Simulation time: 1 hr 9 min 14 sec) 
Heartbeat CPU 3 instructions: 300000000 cycles: 218167743 heartbeat IPC: 0.43851 cumulative IPC: 0.450612 (Simulation time: 1 hr 10 min 46 sec) 
Heartbeat CPU 0 instructions: 230000003 cycles: 219077883 heartbeat IPC: 0.316593 cumulative IPC: 0.327211 (Simulation time: 1 hr 10 min 56 sec) 
Heartbeat CPU 2 instructions: 310000003 cycles: 219258638 heartbeat IPC: 0.957354 cumulative IPC: 0.984647 (Simulation time: 1 hr 10 min 58 sec) 
Heartbeat CPU 1 instructions: 310000002 cycles: 221750066 heartbeat IPC: 0.65952 cumulative IPC: 0.776556 (Simulation time: 1 hr 11 min 23 sec) 
Heartbeat CPU 2 instructions: 320000000 cycles: 229429340 heartbeat IPC: 0.983216 cumulative IPC: 0.984504 (Simulation time: 1 hr 12 min 37 sec) 
Heartbeat CPU 1 instructions: 320000000 cycles: 237502122 heartbeat IPC: 0.634838 cumulative IPC: 0.756282 (Simulation time: 1 hr 13 min 56 sec) 
Heartbeat CPU 2 instructions: 330000000 cycles: 239668276 heartbeat IPC: 0.976664 cumulative IPC: 0.983789 (Simulation time: 1 hr 14 min 18 sec) 
Heartbeat CPU 3 instructions: 310000002 cycles: 240652739 heartbeat IPC: 0.444741 cumulative IPC: 0.449447 (Simulation time: 1 hr 14 min 27 sec) 
Heartbeat CPU 1 instructions: 330000003 cycles: 248220191 heartbeat IPC: 0.933004 cumulative IPC: 0.771959 (Simulation time: 1 hr 15 min 45 sec) 
Heartbeat CPU 2 instructions: 340000000 cycles: 249880754 heartbeat IPC: 0.979194 cumulative IPC: 0.983406 (Simulation time: 1 hr 16 min 2 sec) 
Heartbeat CPU 0 instructions: 240000000 cycles: 251782522 heartbeat IPC: 0.305767 cumulative IPC: 0.321573 (Simulation time: 1 hr 16 min 21 sec) 
Heartbeat CPU 2 instructions: 350000002 cycles: 259917003 heartbeat IPC: 0.996388 cumulative IPC: 0.984389 (Simulation time: 1 hr 17 min 42 sec) 
Heartbeat CPU 3 instructions: 320000000 cycles: 262854496 heartbeat IPC: 0.450415 cumulative IPC: 0.449605 (Simulation time: 1 hr 18 min 9 sec) 
Heartbeat CPU 1 instructions: 340000000 cycles: 263824984 heartbeat IPC: 0.640829 cumulative IPC: 0.75696 (Simulation time: 1 hr 18 min 18 sec) 
Heartbeat CPU 2 instructions: 360000000 cycles: 270082595 heartbeat IPC: 0.98371 cumulative IPC: 0.984341 (Simulation time: 1 hr 19 min 24 sec) 
Heartbeat CPU 2 instructions: 370000003 cycles: 280211363 heartbeat IPC: 0.987287 cumulative IPC: 0.984536 (Simulation time: 1 hr 21 min 7 sec) 
Heartbeat CPU 1 instructions: 350000003 cycles: 282117757 heartbeat IPC: 0.546664 cumulative IPC: 0.732097 (Simulation time: 1 hr 21 min 26 sec) 
Heartbeat CPU 0 instructions: 250000001 cycles: 282551904 heartbeat IPC: 0.324998 cumulative IPC: 0.322252 (Simulation time: 1 hr 21 min 30 sec) 
Heartbeat CPU 3 instructions: 330000003 cycles: 285208518 heartbeat IPC: 0.447347 cumulative IPC: 0.449285 (Simulation time: 1 hr 21 min 53 sec) 
Heartbeat CPU 2 instructions: 380000000 cycles: 290359691 heartbeat IPC: 0.985384 cumulative IPC: 0.984589 (Simulation time: 1 hr 22 min 42 sec) 
Heartbeat CPU 1 instructions: 360000000 cycles: 299180682 heartbeat IPC: 0.586066 cumulative IPC: 0.717592 (Simulation time: 1 hr 24 min 15 sec) 
Heartbeat CPU 2 instructions: 390000003 cycles: 300617585 heartbeat IPC: 0.974859 cumulative IPC: 0.984013 (Simulation time: 1 hr 24 min 31 sec) 
Heartbeat CPU 3 instructions: 340000000 cycles: 306868026 heartbeat IPC: 0.461691 cumulative IPC: 0.450783 (Simulation time: 1 hr 25 min 40 sec) 
Heartbeat CPU 2 instructions: 400000000 cycles: 310654931 heartbeat IPC: 0.996279 cumulative IPC: 0.984685 (Simulation time: 1 hr 26 min 22 sec) 
Heartbeat CPU 0 instructions: 260000000 cycles: 311863059 heartbeat IPC: 0.341167 cumulative IPC: 0.325258 (Simulation time: 1 hr 26 min 35 sec) 
Heartbeat CPU 1 instructions: 370000003 cycles: 314236010 heartbeat IPC: 0.664217 cumulative IPC: 0.713291 (Simulation time: 1 hr 27 min 2 sec) 
Heartbeat CPU 2 instructions: 410000002 cycles: 320634101 heartbeat IPC: 1.00209 cumulative IPC: 0.985583 (Simulation time: 1 hr 28 min 15 sec) 
Heartbeat CPU 3 instructions: 350000001 cycles: 327887396 heartbeat IPC: 0.475752 cumulative IPC: 0.4534 (Simulation time: 1 hr 29 min 34 sec) 
Heartbeat CPU 1 instructions: 380000000 cycles: 329119229 heartbeat IPC: 0.671897 cumulative IPC: 0.710237 (Simulation time: 1 hr 29 min 47 sec) 
Heartbeat CPU 2 instructions: 420000000 cycles: 330645189 heartbeat IPC: 0.998892 cumulative IPC: 0.986239 (Simulation time: 1 hr 30 min 3 sec) 
Heartbeat CPU 2 instructions: 430000003 cycles: 340666853 heartbeat IPC: 0.997839 cumulative IPC: 0.986784 (Simulation time: 1 hr 31 min 50 sec) 
Heartbeat CPU 0 instructions: 270000000 cycles: 344909684 heartbeat IPC: 0.302603 cumulative IPC: 0.321816 (Simulation time: 1 hr 32 min 33 sec) 
Heartbeat CPU 1 instructions: 390000000 cycles: 345359100 heartbeat IPC: 0.615768 cumulative IPC: 0.703199 (Simulation time: 1 hr 32 min 38 sec) 
Heartbeat CPU 3 instructions: 360000000 cycles: 349413897 heartbeat IPC: 0.464544 cumulative IPC: 0.454481 (Simulation time: 1 hr 33 min 19 sec) 
Heartbeat CPU 2 instructions: 440000000 cycles: 350748420 heartbeat IPC: 0.991909 cumulative IPC: 0.987015 (Simulation time: 1 hr 33 min 33 sec) 
Heartbeat CPU 1 instructions: 400000000 cycles: 357290437 heartbeat IPC: 0.838129 cumulative IPC: 0.710202 (Simulation time: 1 hr 34 min 43 sec) 
Heartbeat CPU 2 instructions: 450000001 cycles: 360777955 heartbeat IPC: 0.997055 cumulative IPC: 0.987447 (Simulation time: 1 hr 35 min 18 sec) 
Heartbeat CPU 2 instructions: 460000000 cycles: 370915413 heartbeat IPC: 0.98644 cumulative IPC: 0.987405 (Simulation time: 1 hr 36 min 49 sec) 
Heartbeat CPU 3 instructions: 370000001 cycles: 370951266 heartbeat IPC: 0.464309 cumulative IPC: 0.45535 (Simulation time: 1 hr 36 min 50 sec) 
Heartbeat CPU 0 instructions: 280000000 cycles: 377488378 heartbeat IPC: 0.306949 cumulative IPC: 0.319879 (Simulation time: 1 hr 37 min 58 sec) 
Heartbeat CPU 1 instructions: 410000000 cycles: 377756342 heartbeat IPC: 0.488618 cumulative IPC: 0.692088 (Simulation time: 1 hr 38 min 1 sec) 
Heartbeat CPU 2 instructions: 470000002 cycles: 380971139 heartbeat IPC: 0.994458 cumulative IPC: 0.987684 (Simulation time: 1 hr 38 min 38 sec) 
Heartbeat CPU 1 instructions: 420000000 cycles: 390300610 heartbeat IPC: 0.797177 cumulative IPC: 0.697102 (Simulation time: 1 hr 40 min 23 sec) 
Heartbeat CPU 2 instructions: 480000000 cycles: 391138150 heartbeat IPC: 0.983573 cumulative IPC: 0.987526 (Simulation time: 1 hr 40 min 33 sec) 
Heartbeat CPU 3 instructions: 380000000 cycles: 392544005 heartbeat IPC: 0.463119 cumulative IPC: 0.455982 (Simulation time: 1 hr 40 min 49 sec) 
Heartbeat CPU 2 instructions: 490000003 cycles: 401263252 heartbeat IPC: 0.987645 cumulative IPC: 0.98753 (Simulation time: 1 hr 42 min 23 sec) 
Heartbeat CPU 1 instructions: 430000003 cycles: 405163124 heartbeat IPC: 0.672834 cumulative IPC: 0.695804 (Simulation time: 1 hr 42 min 57 sec) 
Heartbeat CPU 0 instructions: 290000001 cycles: 409923206 heartbeat IPC: 0.308311 cumulative IPC: 0.318551 (Simulation time: 1 hr 43 min 40 sec) 
Heartbeat CPU 2 instructions: 500000000 cycles: 411373158 heartbeat IPC: 0.989129 cumulative IPC: 0.987587 (Simulation time: 1 hr 43 min 53 sec) 
Heartbeat CPU 3 instructions: 390000000 cycles: 414122622 heartbeat IPC: 0.463422 cumulative IPC: 0.456542 (Simulation time: 1 hr 44 min 19 sec) 
Heartbeat CPU 2 instructions: 510000001 cycles: 421431015 heartbeat IPC: 0.994248 cumulative IPC: 0.987815 (Simulation time: 1 hr 45 min 27 sec) 
Heartbeat CPU 1 instructions: 440000000 cycles: 426184885 heartbeat IPC: 0.475697 cumulative IPC: 0.680318 (Simulation time: 1 hr 46 min 9 sec) 
Heartbeat CPU 2 instructions: 520000000 cycles: 431620515 heartbeat IPC: 0.981402 cumulative IPC: 0.9876 (Simulation time: 1 hr 46 min 57 sec) 
Heartbeat CPU 3 instructions: 400000000 cycles: 435735163 heartbeat IPC: 0.462694 cumulative IPC: 0.456974 (Simulation time: 1 hr 47 min 41 sec) 
Heartbeat CPU 0 instructions: 300000000 cycles: 441008498 heartbeat IPC: 0.321696 cumulative IPC: 0.318863 (Simulation time: 1 hr 48 min 36 sec) 
Heartbeat CPU 2 instructions: 530000000 cycles: 441717612 heartbeat IPC: 0.990384 cumulative IPC: 0.98769 (Simulation time: 1 hr 48 min 44 sec) 
Heartbeat CPU 1 instructions: 450000000 cycles: 443525485 heartbeat IPC: 0.576681 cumulative IPC: 0.674633 (Simulation time: 1 hr 49 min 3 sec) 
Heartbeat CPU 2 instructions: 540000000 cycles: 451933538 heartbeat IPC: 0.978864 cumulative IPC: 0.987412 (Simulation time: 1 hr 50 min 31 sec) 
Heartbeat CPU 3 instructions: 410000001 cycles: 458294200 heartbeat IPC: 0.443281 cumulative IPC: 0.45604 (Simulation time: 1 hr 51 min 38 sec) 
Heartbeat CPU 1 instructions: 460000000 cycles: 458339179 heartbeat IPC: 0.675051 cumulative IPC: 0.674652 (Simulation time: 1 hr 51 min 38 sec) 
Heartbeat CPU 2 instructions: 550000000 cycles: 462050079 heartbeat IPC: 0.98848 cumulative IPC: 0.987444 (Simulation time: 1 hr 52 min 17 sec) 
Heartbeat CPU 0 instructions: 310000000 cycles: 470433684 heartbeat IPC: 0.339845 cumulative IPC: 0.320663 (Simulation time: 1 hr 53 min 38 sec) 
Heartbeat CPU 2 instructions: 560000000 cycles: 472270676 heartbeat IPC: 0.978416 cumulative IPC: 0.987177 (Simulation time: 1 hr 53 min 58 sec) 
Heartbeat CPU 1 instructions: 470000002 cycles: 472398314 heartbeat IPC: 0.711281 cumulative IPC: 0.676145 (Simulation time: 1 hr 54 min 0 sec) 
Heartbeat CPU 3 instructions: 420000000 cycles: 480002275 heartbeat IPC: 0.460658 cumulative IPC: 0.456324 (Simulation time: 1 hr 55 min 23 sec) 
Heartbeat CPU 1 instructions: 480000000 cycles: 481026603 heartbeat IPC: 1.15898 cumulative IPC: 0.687925 (Simulation time: 1 hr 55 min 34 sec) 
Heartbeat CPU 2 instructions: 570000000 cycles: 482281136 heartbeat IPC: 0.998955 cumulative IPC: 0.987509 (Simulation time: 1 hr 55 min 47 sec) 
Heartbeat CPU 1 instructions: 490000003 cycles: 489681081 heartbeat IPC: 1.15547 cumulative IPC: 0.699094 (Simulation time: 1 hr 57 min 7 sec) 
Heartbeat CPU 2 instructions: 580000000 cycles: 492350048 heartbeat IPC: 0.993156 cumulative IPC: 0.987665 (Simulation time: 1 hr 57 min 36 sec) 
Heartbeat CPU 1 instructions: 500000000 cycles: 500905750 heartbeat IPC: 0.890895 cumulative IPC: 0.704858 (Simulation time: 1 hr 59 min 3 sec) 
Heartbeat CPU 3 instructions: 430000003 cycles: 501859890 heartbeat IPC: 0.457507 cumulative IPC: 0.456393 (Simulation time: 1 hr 59 min 12 sec) 
Heartbeat CPU 2 instructions: 590000003 cycles: 502507459 heartbeat IPC: 0.984503 cumulative IPC: 0.987579 (Simulation time: 1 hr 59 min 19 sec) 
Heartbeat CPU 0 instructions: 320000000 cycles: 502687677 heartbeat IPC: 0.310039 cumulative IPC: 0.31975 (Simulation time: 1 hr 59 min 20 sec) 
Heartbeat CPU 2 instructions: 600000000 cycles: 512622816 heartbeat IPC: 0.988596 cumulative IPC: 0.987606 (Simulation time: 2 hr 0 min 59 sec) 
Heartbeat CPU 1 instructions: 510000001 cycles: 518597728 heartbeat IPC: 0.565228 cumulative IPC: 0.698543 (Simulation time: 2 hr 1 min 56 sec) 
Heartbeat CPU 2 instructions: 610000000 cycles: 522766960 heartbeat IPC: 0.98579 cumulative IPC: 0.987559 (Simulation time: 2 hr 2 min 37 sec) 
Heartbeat CPU 3 instructions: 440000000 cycles: 524726781 heartbeat IPC: 0.437313 cumulative IPC: 0.455295 (Simulation time: 2 hr 2 min 58 sec) 
Heartbeat CPU 2 instructions: 620000000 cycles: 532920750 heartbeat IPC: 0.984854 cumulative IPC: 0.987491 (Simulation time: 2 hr 4 min 22 sec) 
Heartbeat CPU 1 instructions: 520000000 cycles: 533705986 heartbeat IPC: 0.66189 cumulative IPC: 0.697181 (Simulation time: 2 hr 4 min 30 sec) 
Heartbeat CPU 0 instructions: 330000002 cycles: 535491357 heartbeat IPC: 0.304844 cumulative IPC: 0.318551 (Simulation time: 2 hr 4 min 46 sec) 
Heartbeat CPU 2 instructions: 630000003 cycles: 543162543 heartbeat IPC: 0.976392 cumulative IPC: 0.987218 (Simulation time: 2 hr 6 min 1 sec) 
Heartbeat CPU 3 instructions: 450000002 cycles: 546824143 heartbeat IPC: 0.452543 cumulative IPC: 0.45515 (Simulation time: 2 hr 6 min 40 sec) 
Heartbeat CPU 1 instructions: 530000001 cycles: 548302471 heartbeat IPC: 0.685097 cumulative IPC: 0.696761 (Simulation time: 2 hr 6 min 56 sec) 
Heartbeat CPU 2 instructions: 640000000 cycles: 553227413 heartbeat IPC: 0.993555 cumulative IPC: 0.987368 (Simulation time: 2 hr 7 min 49 sec) 
Heartbeat CPU 1 instructions: 540000000 cycles: 559178131 heartbeat IPC: 0.919484 cumulative IPC: 0.702371 (Simulation time: 2 hr 8 min 53 sec) 
Heartbeat CPU 2 instructions: 650000002 cycles: 563397559 heartbeat IPC: 0.98327 cumulative IPC: 0.987272 (Simulation time: 2 hr 9 min 39 sec) 
Heartbeat CPU 3 instructions: 460000000 cycles: 567684748 heartbeat IPC: 0.479372 cumulative IPC: 0.456298 (Simulation time: 2 hr 10 min 25 sec) 
Heartbeat CPU 0 instructions: 340000000 cycles: 570278704 heartbeat IPC: 0.287461 cumulative IPC: 0.316109 (Simulation time: 2 hr 10 min 49 sec) 
Heartbeat CPU 2 instructions: 660000000 cycles: 573512444 heartbeat IPC: 0.988642 cumulative IPC: 0.987303 (Simulation time: 2 hr 11 min 20 sec) 
Heartbeat CPU 1 instructions: 550000002 cycles: 575622372 heartbeat IPC: 0.608116 cumulative IPC: 0.698913 (Simulation time: 2 hr 11 min 42 sec) 
Heartbeat CPU 2 instructions: 670000003 cycles: 583703872 heartbeat IPC: 0.981217 cumulative IPC: 0.987167 (Simulation time: 2 hr 13 min 8 sec) 
Heartbeat CPU 3 instructions: 470000000 cycles: 588936784 heartbeat IPC: 0.470543 cumulative IPC: 0.456954 (Simulation time: 2 hr 14 min 4 sec) 
Heartbeat CPU 2 instructions: 680000000 cycles: 593842327 heartbeat IPC: 0.986343 cumulative IPC: 0.987149 (Simulation time: 2 hr 14 min 50 sec) 
Heartbeat CPU 1 instructions: 560000000 cycles: 594874771 heartbeat IPC: 0.519416 cumulative IPC: 0.691521 (Simulation time: 2 hr 15 min 0 sec) 
Heartbeat CPU 0 instructions: 350000000 cycles: 602955736 heartbeat IPC: 0.306025 cumulative IPC: 0.315416 (Simulation time: 2 hr 16 min 23 sec) 
Heartbeat CPU 2 instructions: 690000000 cycles: 604206979 heartbeat IPC: 0.964818 cumulative IPC: 0.986664 (Simulation time: 2 hr 16 min 39 sec) 
Heartbeat CPU 3 instructions: 480000000 cycles: 609604197 heartbeat IPC: 0.483853 cumulative IPC: 0.458107 (Simulation time: 2 hr 17 min 44 sec) 
Heartbeat CPU 1 instructions: 570000001 cycles: 610075841 heartbeat IPC: 0.657848 cumulative IPC: 0.690461 (Simulation time: 2 hr 17 min 49 sec) 
Heartbeat CPU 2 instructions: 700000000 cycles: 614316952 heartbeat IPC: 0.989122 cumulative IPC: 0.986715 (Simulation time: 2 hr 18 min 36 sec) 
Heartbeat CPU 2 instructions: 710000000 cycles: 624311009 heartbeat IPC: 1.00059 cumulative IPC: 0.986994 (Simulation time: 2 hr 20 min 29 sec) 
Heartbeat CPU 1 instructions: 580000000 cycles: 625059115 heartbeat IPC: 0.667411 cumulative IPC: 0.689767 (Simulation time: 2 hr 20 min 37 sec) 
Heartbeat CPU 3 instructions: 490000000 cycles: 628543649 heartbeat IPC: 0.527998 cumulative IPC: 0.460748 (Simulation time: 2 hr 21 min 16 sec) 
Heartbeat CPU 2 instructions: 720000000 cycles: 634347587 heartbeat IPC: 0.996356 cumulative IPC: 0.98718 (Simulation time: 2 hr 22 min 21 sec) 
Heartbeat CPU 0 instructions: 360000000 cycles: 637420099 heartbeat IPC: 0.290155 cumulative IPC: 0.313709 (Simulation time: 2 hr 22 min 55 sec) 
Heartbeat CPU 1 instructions: 590000001 cycles: 639821904 heartbeat IPC: 0.677379 cumulative IPC: 0.68941 (Simulation time: 2 hr 23 min 23 sec) 
Heartbeat CPU 2 instructions: 730000003 cycles: 644491419 heartbeat IPC: 0.985821 cumulative IPC: 0.987153 (Simulation time: 2 hr 24 min 15 sec) 
Heartbeat CPU 3 instructions: 500000000 cycles: 646815271 heartbeat IPC: 0.547297 cumulative IPC: 0.463793 (Simulation time: 2 hr 24 min 41 sec) 
Heartbeat CPU 2 instructions: 740000000 cycles: 654512760 heartbeat IPC: 0.99787 cumulative IPC: 0.987357 (Simulation time: 2 hr 26 min 4 sec) 
Heartbeat CPU 1 instructions: 600000000 cycles: 656341335 heartbeat IPC: 0.605348 cumulative IPC: 0.686784 (Simulation time: 2 hr 26 min 23 sec) 
Heartbeat CPU 3 instructions: 510000000 cycles: 664229364 heartbeat IPC: 0.574248 cumulative IPC: 0.467376 (Simulation time: 2 hr 27 min 51 sec) 
Heartbeat CPU 2 instructions: 750000003 cycles: 664494942 heartbeat IPC: 1.00179 cumulative IPC: 0.987625 (Simulation time: 2 hr 27 min 54 sec) 
Heartbeat CPU 1 instructions: 610000000 cycles: 667672416 heartbeat IPC: 0.882528 cumulative IPC: 0.69089 (Simulation time: 2 hr 28 min 28 sec) 
Heartbeat CPU 0 instructions: 370000000 cycles: 669507045 heartbeat IPC: 0.311653 cumulative IPC: 0.313588 (Simulation time: 2 hr 28 min 46 sec) 
Heartbeat CPU 2 instructions: 760000000 cycles: 674676665 heartbeat IPC: 0.982152 cumulative IPC: 0.987523 (Simulation time: 2 hr 29 min 35 sec) 
Heartbeat CPU 3 instructions: 520000000 cycles: 681645194 heartbeat IPC: 0.57419 cumulative IPC: 0.470732 (Simulation time: 2 hr 30 min 43 sec) 
Heartbeat CPU 2 instructions: 770000002 cycles: 684861770 heartbeat IPC: 0.981826 cumulative IPC: 0.987419 (Simulation time: 2 hr 31 min 23 sec) 
Heartbeat CPU 1 instructions: 620000000 cycles: 687512104 heartbeat IPC: 0.50404 cumulative IPC: 0.684271 (Simulation time: 2 hr 31 min 54 sec) 
Heartbeat CPU 2 instructions: 780000000 cycles: 694949133 heartbeat IPC: 0.991339 cumulative IPC: 0.987489 (Simulation time: 2 hr 33 min 21 sec) 
Heartbeat CPU 0 instructions: 380000000 cycles: 696933749 heartbeat IPC: 0.364608 cumulative IPC: 0.316045 (Simulation time: 2 hr 33 min 44 sec) 
Heartbeat CPU 3 instructions: 530000000 cycles: 697870048 heartbeat IPC: 0.616338 cumulative IPC: 0.474873 (Simulation time: 2 hr 33 min 55 sec) 
Heartbeat CPU 1 instructions: 630000000 cycles: 699913102 heartbeat IPC: 0.806387 cumulative IPC: 0.686916 (Simulation time: 2 hr 34 min 18 sec) 
Heartbeat CPU 2 instructions: 790000001 cycles: 705097985 heartbeat IPC: 0.985333 cumulative IPC: 0.987451 (Simulation time: 2 hr 35 min 20 sec) 
Heartbeat CPU 3 instructions: 540000000 cycles: 713635416 heartbeat IPC: 0.634302 cumulative IPC: 0.479161 (Simulation time: 2 hr 36 min 54 sec) 
Heartbeat CPU 1 instructions: 640000000 cycles: 715191563 heartbeat IPC: 0.654516 cumulative IPC: 0.686074 (Simulation time: 2 hr 37 min 9 sec) 
Heartbeat CPU 2 instructions: 800000000 cycles: 715213193 heartbeat IPC: 0.98861 cumulative IPC: 0.987471 (Simulation time: 2 hr 37 min 10 sec) 
Heartbeat CPU 0 instructions: 390000000 cycles: 723647624 heartbeat IPC: 0.374337 cumulative IPC: 0.318656 (Simulation time: 2 hr 38 min 36 sec) 
Heartbeat CPU 2 instructions: 810000000 cycles: 725311027 heartbeat IPC: 0.990311 cumulative IPC: 0.987519 (Simulation time: 2 hr 38 min 55 sec) 
Heartbeat CPU 3 instructions: 550000000 cycles: 729108628 heartbeat IPC: 0.646278 cumulative IPC: 0.483458 (Simulation time: 2 hr 39 min 33 sec) 
Heartbeat CPU 2 instructions: 820000000 cycles: 735376653 heartbeat IPC: 0.99348 cumulative IPC: 0.987617 (Simulation time: 2 hr 40 min 36 sec) 
Heartbeat CPU 1 instructions: 650000002 cycles: 736061506 heartbeat IPC: 0.479158 cumulative IPC: 0.67898 (Simulation time: 2 hr 40 min 43 sec) 
Heartbeat CPU 3 instructions: 560000000 cycles: 744838933 heartbeat IPC: 0.635716 cumulative IPC: 0.487337 (Simulation time: 2 hr 42 min 22 sec) 
Heartbeat CPU 2 instructions: 830000000 cycles: 745376463 heartbeat IPC: 1.00002 cumulative IPC: 0.987818 (Simulation time: 2 hr 42 min 28 sec) 
Heartbeat CPU 1 instructions: 660000000 cycles: 751611108 heartbeat IPC: 0.643103 cumulative IPC: 0.678086 (Simulation time: 2 hr 43 min 41 sec) 
Heartbeat CPU 2 instructions: 840000000 cycles: 755609297 heartbeat IPC: 0.977246 cumulative IPC: 0.987646 (Simulation time: 2 hr 44 min 26 sec) 
Heartbeat CPU 0 instructions: 400000000 cycles: 756503696 heartbeat IPC: 0.304358 cumulative IPC: 0.31791 (Simulation time: 2 hr 44 min 36 sec) 
Heartbeat CPU 3 instructions: 570000001 cycles: 760131896 heartbeat IPC: 0.653896 cumulative IPC: 0.491363 (Simulation time: 2 hr 45 min 18 sec) 
Heartbeat CPU 2 instructions: 850000003 cycles: 765744352 heartbeat IPC: 0.986675 cumulative IPC: 0.98763 (Simulation time: 2 hr 46 min 24 sec) 
Heartbeat CPU 1 instructions: 670000002 cycles: 766182283 heartbeat IPC: 0.686287 cumulative IPC: 0.678273 (Simulation time: 2 hr 46 min 29 sec) 
Heartbeat CPU 3 instructions: 580000000 cycles: 775396802 heartbeat IPC: 0.655097 cumulative IPC: 0.49522 (Simulation time: 2 hr 48 min 11 sec) 
Heartbeat CPU 2 instructions: 860000000 cycles: 775837522 heartbeat IPC: 0.990769 cumulative IPC: 0.987679 (Simulation time: 2 hr 48 min 16 sec) 
Heartbeat CPU 1 instructions: 680000000 cycles: 779232947 heartbeat IPC: 0.766244 cumulative IPC: 0.680034 (Simulation time: 2 hr 48 min 57 sec) 
Heartbeat CPU 2 instructions: 870000000 cycles: 785837465 heartbeat IPC: 1.00001 cumulative IPC: 0.987866 (Simulation time: 2 hr 50 min 18 sec) 
Heartbeat CPU 1 instructions: 690000001 cycles: 787835301 heartbeat IPC: 1.16247 cumulative IPC: 0.686318 (Simulation time: 2 hr 50 min 43 sec) 
Heartbeat CPU 3 instructions: 590000003 cycles: 788877272 heartbeat IPC: 0.741814 cumulative IPC: 0.500245 (Simulation time: 2 hr 50 min 56 sec) 
Heartbeat CPU 0 instructions: 410000000 cycles: 789316272 heartbeat IPC: 0.304761 cumulative IPC: 0.317258 (Simulation time: 2 hr 51 min 1 sec) 
Heartbeat CPU 2 instructions: 880000000 cycles: 795767209 heartbeat IPC: 1.00708 cumulative IPC: 0.988152 (Simulation time: 2 hr 52 min 22 sec) 
Heartbeat CPU 1 instructions: 700000000 cycles: 796387047 heartbeat IPC: 1.16935 cumulative IPC: 0.692493 (Simulation time: 2 hr 52 min 30 sec) 
Heartbeat CPU 3 instructions: 600000000 cycles: 802000825 heartbeat IPC: 0.761989 cumulative IPC: 0.505337 (Simulation time: 2 hr 53 min 39 sec) 
Heartbeat CPU 2 instructions: 890000002 cycles: 805727411 heartbeat IPC: 1.004 cumulative IPC: 0.988384 (Simulation time: 2 hr 54 min 20 sec) 
Heartbeat CPU 1 instructions: 710000000 cycles: 808558334 heartbeat IPC: 0.821606 cumulative IPC: 0.6948 (Simulation time: 2 hr 54 min 52 sec) 
Heartbeat CPU 2 instructions: 900000000 cycles: 815812400 heartbeat IPC: 0.991572 cumulative IPC: 0.988431 (Simulation time: 2 hr 56 min 14 sec) 
Heartbeat CPU 3 instructions: 610000001 cycles: 816088583 heartbeat IPC: 0.709836 cumulative IPC: 0.50952 (Simulation time: 2 hr 56 min 17 sec) 
Heartbeat CPU 0 instructions: 420000000 cycles: 818324615 heartbeat IPC: 0.344728 cumulative IPC: 0.318411 (Simulation time: 2 hr 56 min 41 sec) 
Heartbeat CPU 1 instructions: 720000000 cycles: 825453327 heartbeat IPC: 0.591891 cumulative IPC: 0.692309 (Simulation time: 2 hr 57 min 54 sec) 
Heartbeat CPU 2 instructions: 910000001 cycles: 825766784 heartbeat IPC: 1.00458 cumulative IPC: 0.988661 (Simulation time: 2 hr 57 min 57 sec) 
Heartbeat CPU 3 instructions: 620000000 cycles: 830142419 heartbeat IPC: 0.711549 cumulative IPC: 0.51356 (Simulation time: 2 hr 58 min 43 sec) 
Heartbeat CPU 2 instructions: 920000000 cycles: 835796271 heartbeat IPC: 0.99706 cumulative IPC: 0.98878 (Simulation time: 2 hr 59 min 49 sec) 
Heartbeat CPU 1 instructions: 730000003 cycles: 839921946 heartbeat IPC: 0.691151 cumulative IPC: 0.692286 (Simulation time: 3 hr 0 min 32 sec) 
Heartbeat CPU 3 instructions: 630000002 cycles: 843666263 heartbeat IPC: 0.739435 cumulative IPC: 0.517825 (Simulation time: 3 hr 1 min 10 sec) 
Heartbeat CPU 2 instructions: 930000003 cycles: 845822745 heartbeat IPC: 0.99736 cumulative IPC: 0.9889 (Simulation time: 3 hr 1 min 35 sec) 
Heartbeat CPU 0 instructions: 430000000 cycles: 850883553 heartbeat IPC: 0.307135 cumulative IPC: 0.317904 (Simulation time: 3 hr 2 min 34 sec) 
Heartbeat CPU 1 instructions: 740000000 cycles: 852403193 heartbeat IPC: 0.801202 cumulative IPC: 0.694161 (Simulation time: 3 hr 2 min 51 sec) 
Heartbeat CPU 2 instructions: 940000000 cycles: 855799602 heartbeat IPC: 1.00232 cumulative IPC: 0.989084 (Simulation time: 3 hr 3 min 31 sec) 
Heartbeat CPU 3 instructions: 640000000 cycles: 856655315 heartbeat IPC: 0.769879 cumulative IPC: 0.522314 (Simulation time: 3 hr 3 min 41 sec) 
Heartbeat CPU 1 instructions: 750000002 cycles: 862875498 heartbeat IPC: 0.9549 cumulative IPC: 0.697873 (Simulation time: 3 hr 4 min 56 sec) 
Heartbeat CPU 2 instructions: 950000002 cycles: 865821012 heartbeat IPC: 0.997864 cumulative IPC: 0.989203 (Simulation time: 3 hr 5 min 31 sec) 
Heartbeat CPU 3 instructions: 650000002 cycles: 869587556 heartbeat IPC: 0.773261 cumulative IPC: 0.526687 (Simulation time: 3 hr 6 min 13 sec) 
Heartbeat CPU 2 instructions: 960000000 cycles: 875855759 heartbeat IPC: 0.996537 cumulative IPC: 0.989301 (Simulation time: 3 hr 7 min 19 sec) 
Heartbeat CPU 1 instructions: 760000000 cycles: 879153874 heartbeat IPC: 0.614312 cumulative IPC: 0.696064 (Simulation time: 3 hr 8 min 0 sec) 
Heartbeat CPU 0 instructions: 440000000 cycles: 879616179 heartbeat IPC: 0.348036 cumulative IPC: 0.319055 (Simulation time: 3 hr 8 min 7 sec) 
Heartbeat CPU 3 instructions: 660000000 cycles: 882673450 heartbeat IPC: 0.764181 cumulative IPC: 0.530802 (Simulation time: 3 hr 8 min 45 sec) 
Heartbeat CPU 2 instructions: 970000001 cycles: 885897797 heartbeat IPC: 0.995814 cumulative IPC: 0.989388 (Simulation time: 3 hr 9 min 23 sec) 
Heartbeat CPU 3 instructions: 670000002 cycles: 895624050 heartbeat IPC: 0.772165 cumulative IPC: 0.534871 (Simulation time: 3 hr 11 min 15 sec) 
Heartbeat CPU 2 instructions: 980000000 cycles: 895951378 heartbeat IPC: 0.99467 cumulative IPC: 0.989457 (Simulation time: 3 hr 11 min 19 sec) 
Heartbeat CPU 1 instructions: 770000002 cycles: 897479551 heartbeat IPC: 0.545683 cumulative IPC: 0.692485 (Simulation time: 3 hr 11 min 38 sec) 
Heartbeat CPU 2 instructions: 990000003 cycles: 906130062 heartbeat IPC: 0.982446 cumulative IPC: 0.989365 (Simulation time: 3 hr 13 min 27 sec) 
Heartbeat CPU 3 instructions: 680000000 cycles: 908734320 heartbeat IPC: 0.762761 cumulative IPC: 0.538695 (Simulation time: 3 hr 13 min 58 sec) 
Heartbeat CPU 0 instructions: 450000000 cycles: 910193525 heartbeat IPC: 0.32704 cumulative IPC: 0.319367 (Simulation time: 3 hr 14 min 16 sec) 
Heartbeat CPU 1 instructions: 780000000 cycles: 912292724 heartbeat IPC: 0.675075 cumulative IPC: 0.692157 (Simulation time: 3 hr 14 min 42 sec) 
Heartbeat CPU 2 instructions: 1000000000 cycles: 916156080 heartbeat IPC: 0.997405 cumulative IPC: 0.989467 (Simulation time: 3 hr 15 min 36 sec) 
Heartbeat CPU 3 instructions: 690000000 cycles: 921318619 heartbeat IPC: 0.794641 cumulative IPC: 0.542751 (Simulation time: 3 hr 16 min 47 sec) 
Heartbeat CPU 2 instructions: 1010000002 cycles: 926075045 heartbeat IPC: 1.00817 cumulative IPC: 0.989699 (Simulation time: 3 hr 17 min 48 sec) 
Heartbeat CPU 1 instructions: 790000003 cycles: 927045251 heartbeat IPC: 0.67785 cumulative IPC: 0.691893 (Simulation time: 3 hr 18 min 0 sec) 
Heartbeat CPU 3 instructions: 700000000 cycles: 933825624 heartbeat IPC: 0.799552 cumulative IPC: 0.546734 (Simulation time: 3 hr 19 min 23 sec) 
Heartbeat CPU 2 instructions: 1020000000 cycles: 936017191 heartbeat IPC: 1.00582 cumulative IPC: 0.989898 (Simulation time: 3 hr 19 min 50 sec) 
Heartbeat CPU 0 instructions: 460000000 cycles: 937492230 heartbeat IPC: 0.366318 cumulative IPC: 0.320949 (Simulation time: 3 hr 20 min 7 sec) 
Heartbeat CPU 1 instructions: 800000000 cycles: 941798398 heartbeat IPC: 0.677821 cumulative IPC: 0.691638 (Simulation time: 3 hr 20 min 59 sec) 
Heartbeat CPU 2 instructions: 1030000002 cycles: 946010723 heartbeat IPC: 1.00065 cumulative IPC: 0.990029 (Simulation time: 3 hr 21 min 49 sec) 
Heartbeat CPU 3 instructions: 710000003 cycles: 946225094 heartbeat IPC: 0.806486 cumulative IPC: 0.550668 (Simulation time: 3 hr 21 min 52 sec) 
Heartbeat CPU 2 instructions: 1040000000 cycles: 956005127 heartbeat IPC: 1.00056 cumulative IPC: 0.990156 (Simulation time: 3 hr 23 min 44 sec) 
Heartbeat CPU 1 instructions: 810000000 cycles: 957506778 heartbeat IPC: 0.636603 cumulative IPC: 0.690596 (Simulation time: 3 hr 24 min 2 sec) 
Heartbeat CPU 3 instructions: 720000000 cycles: 958305894 heartbeat IPC: 0.82776 cumulative IPC: 0.554696 (Simulation time: 3 hr 24 min 11 sec) 
Heartbeat CPU 2 instructions: 1050000001 cycles: 965973354 heartbeat IPC: 1.00319 cumulative IPC: 0.990311 (Simulation time: 3 hr 25 min 44 sec) 
Heartbeat CPU 0 instructions: 470000000 cycles: 968095395 heartbeat IPC: 0.326764 cumulative IPC: 0.32116 (Simulation time: 3 hr 26 min 6 sec) 
Heartbeat CPU 1 instructions: 820000000 cycles: 969935898 heartbeat IPC: 0.804562 cumulative IPC: 0.692277 (Simulation time: 3 hr 26 min 24 sec) 
Heartbeat CPU 3 instructions: 730000000 cycles: 970392272 heartbeat IPC: 0.827378 cumulative IPC: 0.558606 (Simulation time: 3 hr 26 min 29 sec) 
Heartbeat CPU 2 instructions: 1060000000 cycles: 976046674 heartbeat IPC: 0.992721 cumulative IPC: 0.990339 (Simulation time: 3 hr 27 min 26 sec) 
Heartbeat CPU 3 instructions: 740000000 cycles: 983296194 heartbeat IPC: 0.774958 cumulative IPC: 0.561868 (Simulation time: 3 hr 28 min 46 sec) 
Heartbeat CPU 2 instructions: 1070000003 cycles: 986108676 heartbeat IPC: 0.993838 cumulative IPC: 0.99038 (Simulation time: 3 hr 29 min 20 sec) 
Heartbeat CPU 1 instructions: 830000001 cycles: 987643926 heartbeat IPC: 0.564716 cumulative IPC: 0.689652 (Simulation time: 3 hr 29 min 39 sec) 
Heartbeat CPU 3 instructions: 750000001 cycles: 995429231 heartbeat IPC: 0.824196 cumulative IPC: 0.565534 (Simulation time: 3 hr 31 min 15 sec) 
Heartbeat CPU 2 instructions: 1080000000 cycles: 996152971 heartbeat IPC: 0.99559 cumulative IPC: 0.990441 (Simulation time: 3 hr 31 min 25 sec) 
Heartbeat CPU 1 instructions: 840000000 cycles: 999736522 heartbeat IPC: 0.826952 cumulative IPC: 0.691555 (Simulation time: 3 hr 32 min 10 sec) 
Heartbeat CPU 0 instructions: 480000000 cycles: 1000437823 heartbeat IPC: 0.309191 cumulative IPC: 0.320717 (Simulation time: 3 hr 32 min 18 sec) 
Heartbeat CPU 2 instructions: 1090000000 cycles: 1006099384 heartbeat IPC: 1.00539 cumulative IPC: 0.99061 (Simulation time: 3 hr 33 min 32 sec) 
Heartbeat CPU 3 instructions: 760000000 cycles: 1007182329 heartbeat IPC: 0.850839 cumulative IPC: 0.569346 (Simulation time: 3 hr 33 min 45 sec) 
Heartbeat CPU 1 instructions: 850000000 cycles: 1015584029 heartbeat IPC: 0.631014 cumulative IPC: 0.690475 (Simulation time: 3 hr 35 min 14 sec) 
Heartbeat CPU 2 instructions: 1100000000 cycles: 1016043195 heartbeat IPC: 1.00565 cumulative IPC: 0.990778 (Simulation time: 3 hr 35 min 19 sec) 
Heartbeat CPU 3 instructions: 770000001 cycles: 1019842703 heartbeat IPC: 0.789866 cumulative IPC: 0.572474 (Simulation time: 3 hr 35 min 59 sec) 
Heartbeat CPU 2 instructions: 1110000001 cycles: 1026141904 heartbeat IPC: 0.990226 cumulative IPC: 0.990772 (Simulation time: 3 hr 37 min 6 sec) 
Heartbeat CPU 0 instructions: 490000000 cycles: 1031953062 heartbeat IPC: 0.317307 cumulative IPC: 0.320598 (Simulation time: 3 hr 38 min 7 sec) 
Heartbeat CPU 3 instructions: 780000000 cycles: 1032236666 heartbeat IPC: 0.806844 cumulative IPC: 0.575684 (Simulation time: 3 hr 38 min 10 sec) 
Heartbeat CPU 1 instructions: 860000000 cycles: 1035965558 heartbeat IPC: 0.49064 cumulative IPC: 0.685992 (Simulation time: 3 hr 38 min 50 sec) 
Heartbeat CPU 2 instructions: 1120000000 cycles: 1036165899 heartbeat IPC: 0.997606 cumulative IPC: 0.990847 (Simulation time: 3 hr 38 min 52 sec) 
Heartbeat CPU 3 instructions: 790000002 cycles: 1045521320 heartbeat IPC: 0.752748 cumulative IPC: 0.578246 (Simulation time: 3 hr 40 min 42 sec) 
Heartbeat CPU 2 instructions: 1130000002 cycles: 1046201871 heartbeat IPC: 0.996416 cumulative IPC: 0.990908 (Simulation time: 3 hr 40 min 50 sec) 
Heartbeat CPU 1 instructions: 870000002 cycles: 1050582962 heartbeat IPC: 0.684116 cumulative IPC: 0.685962 (Simulation time: 3 hr 41 min 42 sec) 
Heartbeat CPU 2 instructions: 1140000000 cycles: 1056282136 heartbeat IPC: 0.992037 cumulative IPC: 0.99092 (Simulation time: 3 hr 42 min 49 sec) 
Heartbeat CPU 3 instructions: 800000000 cycles: 1058470928 heartbeat IPC: 0.772224 cumulative IPC: 0.580944 (Simulation time: 3 hr 43 min 14 sec) 
Heartbeat CPU 0 instructions: 500000000 cycles: 1063884866 heartbeat IPC: 0.313167 cumulative IPC: 0.320345 (Simulation time: 3 hr 44 min 18 sec) 
Heartbeat CPU 1 instructions: 880000000 cycles: 1065157404 heartbeat IPC: 0.686132 cumulative IPC: 0.685965 (Simulation time: 3 hr 44 min 33 sec) 
Heartbeat CPU 2 instructions: 1150000001 cycles: 1066564569 heartbeat IPC: 0.972533 cumulative IPC: 0.990719 (Simulation time: 3 hr 44 min 50 sec) 
Heartbeat CPU 3 instructions: 810000001 cycles: 1071639095 heartbeat IPC: 0.759407 cumulative IPC: 0.583433 (Simulation time: 3 hr 45 min 45 sec) 
Heartbeat CPU 2 instructions: 1160000000 cycles: 1076580314 heartbeat IPC: 0.998428 cumulative IPC: 0.9908 (Simulation time: 3 hr 46 min 45 sec) 
Heartbeat CPU 1 instructions: 890000000 cycles: 1077161340 heartbeat IPC: 0.83306 cumulative IPC: 0.687824 (Simulation time: 3 hr 46 min 52 sec) 
Heartbeat CPU 3 instructions: 820000000 cycles: 1083680828 heartbeat IPC: 0.830445 cumulative IPC: 0.586543 (Simulation time: 3 hr 48 min 14 sec) 
Heartbeat CPU 1 instructions: 900000000 cycles: 1085699398 heartbeat IPC: 1.17123 cumulative IPC: 0.692131 (Simulation time: 3 hr 48 min 40 sec) 
Heartbeat CPU 2 instructions: 1170000001 cycles: 1086561106 heartbeat IPC: 1.00192 cumulative IPC: 0.990916 (Simulation time: 3 hr 48 min 51 sec) 
Heartbeat CPU 0 instructions: 510000000 cycles: 1090928170 heartbeat IPC: 0.369777 cumulative IPC: 0.321732 (Simulation time: 3 hr 49 min 46 sec) 
Heartbeat CPU 1 instructions: 910000003 cycles: 1094313048 heartbeat IPC: 1.16095 cumulative IPC: 0.696307 (Simulation time: 3 hr 50 min 28 sec) 
Heartbeat CPU 3 instructions: 830000002 cycles: 1095508141 heartbeat IPC: 0.845501 cumulative IPC: 0.589707 (Simulation time: 3 hr 50 min 42 sec) 
Heartbeat CPU 2 instructions: 1180000000 cycles: 1096577271 heartbeat IPC: 0.998386 cumulative IPC: 0.990993 (Simulation time: 3 hr 50 min 55 sec) 
Heartbeat CPU 2 instructions: 1190000003 cycles: 1106647280 heartbeat IPC: 0.993048 cumulative IPC: 0.991015 (Simulation time: 3 hr 52 min 51 sec) 
Heartbeat CPU 1 instructions: 920000000 cycles: 1107198279 heartbeat IPC: 0.776082 cumulative IPC: 0.697356 (Simulation time: 3 hr 52 min 58 sec) 
Heartbeat CPU 3 instructions: 840000000 cycles: 1108453996 heartbeat IPC: 0.772448 cumulative IPC: 0.592119 (Simulation time: 3 hr 53 min 12 sec) 
Heartbeat CPU 2 instructions: 1200000000 cycles: 1116637132 heartbeat IPC: 1.00102 cumulative IPC: 0.991116 (Simulation time: 3 hr 54 min 46 sec) 
Heartbeat CPU 0 instructions: 520000000 cycles: 1117627985 heartbeat IPC: 0.374534 cumulative IPC: 0.323156 (Simulation time: 3 hr 54 min 56 sec) 
Heartbeat CPU 3 instructions: 850000000 cycles: 1121017686 heartbeat IPC: 0.795945 cumulative IPC: 0.594696 (Simulation time: 3 hr 55 min 33 sec) 
Heartbeat CPU 1 instructions: 930000000 cycles: 1123807498 heartbeat IPC: 0.602075 cumulative IPC: 0.695768 (Simulation time: 3 hr 56 min 3 sec) 
Heartbeat CPU 2 instructions: 1210000000 cycles: 1126746399 heartbeat IPC: 0.989191 cumulative IPC: 0.991096 (Simulation time: 3 hr 56 min 36 sec) 
Heartbeat CPU 3 instructions: 860000000 cycles: 1133941910 heartbeat IPC: 0.773741 cumulative IPC: 0.596995 (Simulation time: 3 hr 57 min 56 sec) 
Finished CPU 2 instructions: 1000000000 cycles: 1008872402 cumulative IPC: 0.991206 (Simulation time: 3 hr 58 min 20 sec) 
Heartbeat CPU 2 instructions: 1220000000 cycles: 1136729503 heartbeat IPC: 1.00169 cumulative IPC: 0.991201 (Simulation time: 3 hr 58 min 25 sec) 
Heartbeat CPU 1 instructions: 940000000 cycles: 1139116294 heartbeat IPC: 0.653219 cumulative IPC: 0.695124 (Simulation time: 3 hr 58 min 50 sec) 
Heartbeat CPU 3 instructions: 870000003 cycles: 1146774546 heartbeat IPC: 0.779263 cumulative IPC: 0.599289 (Simulation time: 4 hr 0 min 18 sec) 
Heartbeat CPU 2 instructions: 1230000000 cycles: 1146881032 heartbeat IPC: 0.985073 cumulative IPC: 0.99114 (Simulation time: 4 hr 0 min 20 sec) 
Heartbeat CPU 0 instructions: 530000001 cycles: 1149498087 heartbeat IPC: 0.313774 cumulative IPC: 0.322863 (Simulation time: 4 hr 0 min 51 sec) 
Heartbeat CPU 1 instructions: 950000003 cycles: 1149687209 heartbeat IPC: 0.945992 cumulative IPC: 0.697718 (Simulation time: 4 hr 0 min 53 sec) 
Heartbeat CPU 2 instructions: 1240000000 cycles: 1156982198 heartbeat IPC: 0.989985 cumulative IPC: 0.991129 (Simulation time: 4 hr 2 min 22 sec) 
Heartbeat CPU 3 instructions: 880000000 cycles: 1159329720 heartbeat IPC: 0.796484 cumulative IPC: 0.601688 (Simulation time: 4 hr 2 min 50 sec) 
Heartbeat CPU 1 instructions: 960000000 cycles: 1160268028 heartbeat IPC: 0.945106 cumulative IPC: 0.700253 (Simulation time: 4 hr 3 min 1 sec) 
Heartbeat CPU 2 instructions: 1250000000 cycles: 1167032337 heartbeat IPC: 0.995011 cumulative IPC: 0.991166 (Simulation time: 4 hr 4 min 20 sec) 
Heartbeat CPU 3 instructions: 890000003 cycles: 1171649265 heartbeat IPC: 0.811719 cumulative IPC: 0.604166 (Simulation time: 4 hr 5 min 9 sec) 
Heartbeat CPU 2 instructions: 1260000000 cycles: 1177037819 heartbeat IPC: 0.999452 cumulative IPC: 0.991245 (Simulation time: 4 hr 6 min 10 sec) 
Heartbeat CPU 1 instructions: 970000002 cycles: 1177062600 heartbeat IPC: 0.595431 cumulative IPC: 0.698576 (Simulation time: 4 hr 6 min 11 sec) 
Heartbeat CPU 0 instructions: 540000000 cycles: 1179071943 heartbeat IPC: 0.338136 cumulative IPC: 0.323293 (Simulation time: 4 hr 6 min 34 sec) 
Heartbeat CPU 3 instructions: 900000000 cycles: 1184448784 heartbeat IPC: 0.781279 cumulative IPC: 0.606311 (Simulation time: 4 hr 7 min 38 sec) 
Heartbeat CPU 2 instructions: 1270000000 cycles: 1187005111 heartbeat IPC: 1.00328 cumulative IPC: 0.991358 (Simulation time: 4 hr 8 min 5 sec) 
Heartbeat CPU 1 instructions: 980000000 cycles: 1195030964 heartbeat IPC: 0.556534 cumulative IPC: 0.696185 (Simulation time: 4 hr 9 min 28 sec) 
Heartbeat CPU 2 instructions: 1280000000 cycles: 1197099370 heartbeat IPC: 0.990662 cumulative IPC: 0.991352 (Simulation time: 4 hr 9 min 51 sec) 
Heartbeat CPU 3 instructions: 910000002 cycles: 1197201099 heartbeat IPC: 0.784172 cumulative IPC: 0.608431 (Simulation time: 4 hr 9 min 52 sec) 
Heartbeat CPU 2 instructions: 1290000001 cycles: 1207190852 heartbeat IPC: 0.990935 cumulative IPC: 0.991348 (Simulation time: 4 hr 11 min 49 sec) 
Heartbeat CPU 3 instructions: 920000000 cycles: 1209731905 heartbeat IPC: 0.798033 cumulative IPC: 0.610626 (Simulation time: 4 hr 12 min 19 sec) 
Heartbeat CPU 1 instructions: 990000000 cycles: 1209887440 heartbeat IPC: 0.673107 cumulative IPC: 0.695868 (Simulation time: 4 hr 12 min 21 sec) 
Heartbeat CPU 0 instructions: 550000000 cycles: 1210561823 heartbeat IPC: 0.317562 cumulative IPC: 0.323126 (Simulation time: 4 hr 12 min 29 sec) 
Heartbeat CPU 2 instructions: 1300000000 cycles: 1217336355 heartbeat IPC: 0.985658 cumulative IPC: 0.991295 (Simulation time: 4 hr 13 min 51 sec) 
Heartbeat CPU 3 instructions: 930000001 cycles: 1221807082 heartbeat IPC: 0.828145 cumulative IPC: 0.613026 (Simulation time: 4 hr 14 min 45 sec) 
Heartbeat CPU 1 instructions: 1000000000 cycles: 1224627802 heartbeat IPC: 0.678409 cumulative IPC: 0.695634 (Simulation time: 4 hr 15 min 19 sec) 
Heartbeat CPU 2 instructions: 1310000000 cycles: 1227302244 heartbeat IPC: 1.00342 cumulative IPC: 0.991405 (Simulation time: 4 hr 15 min 51 sec) 
Heartbeat CPU 0 instructions: 560000000 cycles: 1233743413 heartbeat IPC: 0.431377 cumulative IPC: 0.325394 (Simulation time: 4 hr 17 min 10 sec) 
Heartbeat CPU 3 instructions: 940000000 cycles: 1233820765 heartbeat IPC: 0.832384 cumulative IPC: 0.615408 (Simulation time: 4 hr 17 min 11 sec) 
Heartbeat CPU 2 instructions: 1320000000 cycles: 1237234730 heartbeat IPC: 1.0068 cumulative IPC: 0.991542 (Simulation time: 4 hr 17 min 52 sec) 
Heartbeat CPU 1 instructions: 1010000000 cycles: 1239476915 heartbeat IPC: 0.673441 cumulative IPC: 0.695337 (Simulation time: 4 hr 18 min 19 sec) 
Heartbeat CPU 2 instructions: 1330000002 cycles: 1247157484 heartbeat IPC: 1.00778 cumulative IPC: 0.991686 (Simulation time: 4 hr 19 min 42 sec) 
Heartbeat CPU 1 instructions: 1020000000 cycles: 1255737941 heartbeat IPC: 0.614967 cumulative IPC: 0.694179 (Simulation time: 4 hr 21 min 4 sec) 
Heartbeat CPU 2 instructions: 1340000000 cycles: 1257350403 heartbeat IPC: 0.981073 cumulative IPC: 0.991591 (Simulation time: 4 hr 21 min 19 sec) 
Heartbeat CPU 3 instructions: 950000002 cycles: 1261952024 heartbeat IPC: 0.355477 cumulative IPC: 0.608963 (Simulation time: 4 hr 22 min 5 sec) 
Heartbeat CPU 0 instructions: 570000001 cycles: 1263087442 heartbeat IPC: 0.340785 cumulative IPC: 0.325792 (Simulation time: 4 hr 22 min 17 sec) 
Heartbeat CPU 2 instructions: 1350000001 cycles: 1267449459 heartbeat IPC: 0.990192 cumulative IPC: 0.991578 (Simulation time: 4 hr 22 min 55 sec) 
Heartbeat CPU 1 instructions: 1030000003 cycles: 1271566971 heartbeat IPC: 0.631751 cumulative IPC: 0.693315 (Simulation time: 4 hr 23 min 30 sec) 
Heartbeat CPU 2 instructions: 1360000000 cycles: 1277683094 heartbeat IPC: 0.97717 cumulative IPC: 0.99145 (Simulation time: 4 hr 24 min 25 sec) 
Heartbeat CPU 3 instructions: 960000000 cycles: 1285643017 heartbeat IPC: 0.422101 cumulative IPC: 0.605141 (Simulation time: 4 hr 25 min 58 sec) 
Heartbeat CPU 2 instructions: 1370000003 cycles: 1287768109 heartbeat IPC: 0.99157 cumulative IPC: 0.991451 (Simulation time: 4 hr 26 min 23 sec) 
Heartbeat CPU 1 instructions: 1040000000 cycles: 1288424306 heartbeat IPC: 0.593213 cumulative IPC: 0.691862 (Simulation time: 4 hr 26 min 31 sec) 
Heartbeat CPU 0 instructions: 580000000 cycles: 1297041402 heartbeat IPC: 0.294516 cumulative IPC: 0.324884 (Simulation time: 4 hr 28 min 16 sec) 
Heartbeat CPU 3 instructions: 970000000 cycles: 1297741924 heartbeat IPC: 0.826521 cumulative IPC: 0.607429 (Simulation time: 4 hr 28 min 25 sec) 
Heartbeat CPU 2 instructions: 1380000000 cycles: 1297809448 heartbeat IPC: 0.995883 cumulative IPC: 0.991489 (Simulation time: 4 hr 28 min 26 sec) 
Heartbeat CPU 1 instructions: 1050000003 cycles: 1300672687 heartbeat IPC: 0.816435 cumulative IPC: 0.693163 (Simulation time: 4 hr 29 min 2 sec) 
Heartbeat CPU 2 instructions: 1390000003 cycles: 1307887516 heartbeat IPC: 0.992254 cumulative IPC: 0.991496 (Simulation time: 4 hr 31 min 48 sec) 
Heartbeat CPU 3 instructions: 980000000 cycles: 1309734460 heartbeat IPC: 0.833852 cumulative IPC: 0.609726 (Simulation time: 4 hr 32 min 27 sec) 
Heartbeat CPU 2 instructions: 1400000000 cycles: 1317974041 heartbeat IPC: 0.991421 cumulative IPC: 0.991495 (Simulation time: 4 hr 33 min 51 sec) 
Heartbeat CPU 1 instructions: 1060000000 cycles: 1319213312 heartbeat IPC: 0.539356 cumulative IPC: 0.69077 (Simulation time: 4 hr 34 min 3 sec) 
Heartbeat CPU 3 instructions: 990000001 cycles: 1322510469 heartbeat IPC: 0.782717 cumulative IPC: 0.611575 (Simulation time: 4 hr 34 min 37 sec) 
Heartbeat CPU 2 instructions: 1410000000 cycles: 1327995115 heartbeat IPC: 0.997897 cumulative IPC: 0.991548 (Simulation time: 4 hr 35 min 35 sec) 
Heartbeat CPU 0 instructions: 590000000 cycles: 1329330133 heartbeat IPC: 0.309706 cumulative IPC: 0.324476 (Simulation time: 4 hr 35 min 49 sec) 
Heartbeat CPU 3 instructions: 1000000000 cycles: 1334927620 heartbeat IPC: 0.805338 cumulative IPC: 0.613568 (Simulation time: 4 hr 36 min 47 sec) 
Heartbeat CPU 2 instructions: 1420000000 cycles: 1338110954 heartbeat IPC: 0.988549 cumulative IPC: 0.991523 (Simulation time: 4 hr 37 min 20 sec) 
Heartbeat CPU 1 instructions: 1070000002 cycles: 1340936176 heartbeat IPC: 0.460345 cumulative IPC: 0.686645 (Simulation time: 4 hr 37 min 50 sec) 
Heartbeat CPU 3 instructions: 1010000000 cycles: 1347936458 heartbeat IPC: 0.768708 cumulative IPC: 0.615221 (Simulation time: 4 hr 39 min 3 sec) 
Heartbeat CPU 2 instructions: 1430000001 cycles: 1348288335 heartbeat IPC: 0.982571 cumulative IPC: 0.991449 (Simulation time: 4 hr 39 min 7 sec) 
Heartbeat CPU 2 instructions: 1440000000 cycles: 1358479259 heartbeat IPC: 0.981265 cumulative IPC: 0.991364 (Simulation time: 4 hr 41 min 5 sec) 
Heartbeat CPU 1 instructions: 1080000000 cycles: 1358492288 heartbeat IPC: 0.569602 cumulative IPC: 0.684976 (Simulation time: 4 hr 41 min 5 sec) 
Heartbeat CPU 0 instructions: 600000000 cycles: 1361343142 heartbeat IPC: 0.312373 cumulative IPC: 0.324162 (Simulation time: 4 hr 41 min 38 sec) 
Heartbeat CPU 3 instructions: 1020000000 cycles: 1361851754 heartbeat IPC: 0.718634 cumulative IPC: 0.616387 (Simulation time: 4 hr 41 min 44 sec) 
Heartbeat CPU 2 instructions: 1450000001 cycles: 1368925914 heartbeat IPC: 0.957244 cumulative IPC: 0.991077 (Simulation time: 4 hr 43 min 4 sec) 
Heartbeat CPU 3 instructions: 1030000000 cycles: 1375558626 heartbeat IPC: 0.729561 cumulative IPC: 0.61763 (Simulation time: 4 hr 44 min 9 sec) 
Heartbeat CPU 1 instructions: 1090000000 cycles: 1376049165 heartbeat IPC: 0.569577 cumulative IPC: 0.683353 (Simulation time: 4 hr 44 min 15 sec) 
Heartbeat CPU 2 instructions: 1460000000 cycles: 1379047309 heartbeat IPC: 0.988006 cumulative IPC: 0.991053 (Simulation time: 4 hr 44 min 53 sec) 
Heartbeat CPU 1 instructions: 1100000000 cycles: 1384626971 heartbeat IPC: 1.1658 cumulative IPC: 0.686645 (Simulation time: 4 hr 46 min 1 sec) 
Heartbeat CPU 3 instructions: 1040000000 cycles: 1387415773 heartbeat IPC: 0.843373 cumulative IPC: 0.619754 (Simulation time: 4 hr 46 min 35 sec) 
Heartbeat CPU 2 instructions: 1470000001 cycles: 1389065078 heartbeat IPC: 0.998226 cumulative IPC: 0.991109 (Simulation time: 4 hr 46 min 56 sec) 
Heartbeat CPU 1 instructions: 1110000001 cycles: 1393190370 heartbeat IPC: 1.16776 cumulative IPC: 0.6899 (Simulation time: 4 hr 47 min 46 sec) 
Heartbeat CPU 0 instructions: 610000000 cycles: 1394601424 heartbeat IPC: 0.300677 cumulative IPC: 0.323546 (Simulation time: 4 hr 48 min 3 sec) 
Heartbeat CPU 2 instructions: 1480000000 cycles: 1399044416 heartbeat IPC: 1.00207 cumulative IPC: 0.991196 (Simulation time: 4 hr 48 min 57 sec) 
Heartbeat CPU 3 instructions: 1050000002 cycles: 1399378659 heartbeat IPC: 0.835919 cumulative IPC: 0.621787 (Simulation time: 4 hr 49 min 1 sec) 
Heartbeat CPU 1 instructions: 1120000000 cycles: 1401808076 heartbeat IPC: 1.1604 cumulative IPC: 0.693081 (Simulation time: 4 hr 49 min 32 sec) 
Heartbeat CPU 2 instructions: 1490000001 cycles: 1409228103 heartbeat IPC: 0.981963 cumulative IPC: 0.991122 (Simulation time: 4 hr 50 min 55 sec) 
Heartbeat CPU 3 instructions: 1060000000 cycles: 1412472444 heartbeat IPC: 0.763721 cumulative IPC: 0.623233 (Simulation time: 4 hr 51 min 32 sec) 
Heartbeat CPU 1 instructions: 1130000002 cycles: 1417602302 heartbeat IPC: 0.633143 cumulative IPC: 0.692348 (Simulation time: 4 hr 52 min 32 sec) 
Heartbeat CPU 2 instructions: 1500000000 cycles: 1419243545 heartbeat IPC: 0.998458 cumulative IPC: 0.991179 (Simulation time: 4 hr 52 min 49 sec) 
Heartbeat CPU 0 instructions: 620000000 cycles: 1422380785 heartbeat IPC: 0.359979 cumulative IPC: 0.324328 (Simulation time: 4 hr 53 min 22 sec) 
Heartbeat CPU 3 instructions: 1070000002 cycles: 1425286065 heartbeat IPC: 0.78042 cumulative IPC: 0.624785 (Simulation time: 4 hr 53 min 52 sec) 
Heartbeat CPU 2 instructions: 1510000001 cycles: 1429374617 heartbeat IPC: 0.987062 cumulative IPC: 0.991147 (Simulation time: 4 hr 54 min 38 sec) 
Heartbeat CPU 1 instructions: 1140000000 cycles: 1433425956 heartbeat IPC: 0.631965 cumulative IPC: 0.691616 (Simulation time: 4 hr 55 min 24 sec) 
Heartbeat CPU 3 instructions: 1080000000 cycles: 1438083046 heartbeat IPC: 0.781434 cumulative IPC: 0.626315 (Simulation time: 4 hr 56 min 16 sec) 
Heartbeat CPU 2 instructions: 1520000000 cycles: 1439451509 heartbeat IPC: 0.992369 cumulative IPC: 0.991156 (Simulation time: 4 hr 56 min 30 sec) 
Heartbeat CPU 1 instructions: 1150000002 cycles: 1448715237 heartbeat IPC: 0.654053 cumulative IPC: 0.691182 (Simulation time: 4 hr 58 min 12 sec) 
Heartbeat CPU 0 instructions: 630000003 cycles: 1449462804 heartbeat IPC: 0.369249 cumulative IPC: 0.325248 (Simulation time: 4 hr 58 min 20 sec) 
Heartbeat CPU 2 instructions: 1530000000 cycles: 1449571886 heartbeat IPC: 0.988105 cumulative IPC: 0.991133 (Simulation time: 4 hr 58 min 22 sec) 
Heartbeat CPU 3 instructions: 1090000001 cycles: 1451051816 heartbeat IPC: 0.771083 cumulative IPC: 0.627733 (Simulation time: 4 hr 58 min 39 sec) 
Heartbeat CPU 1 instructions: 1160000000 cycles: 1459149607 heartbeat IPC: 0.958371 cumulative IPC: 0.693275 (Simulation time: 5 hr 0 min 14 sec) 
Heartbeat CPU 2 instructions: 1540000000 cycles: 1459671488 heartbeat IPC: 0.990138 cumulative IPC: 0.991126 (Simulation time: 5 hr 0 min 20 sec) 
Heartbeat CPU 3 instructions: 1100000000 cycles: 1463661009 heartbeat IPC: 0.793072 cumulative IPC: 0.629293 (Simulation time: 5 hr 1 min 5 sec) 
Heartbeat CPU 2 instructions: 1550000001 cycles: 1469801489 heartbeat IPC: 0.987167 cumulative IPC: 0.991096 (Simulation time: 5 hr 2 min 16 sec) 
Heartbeat CPU 1 instructions: 1170000002 cycles: 1472042108 heartbeat IPC: 0.775645 cumulative IPC: 0.694065 (Simulation time: 5 hr 2 min 40 sec) 
Heartbeat CPU 3 instructions: 1110000000 cycles: 1475908945 heartbeat IPC: 0.816464 cumulative IPC: 0.630993 (Simulation time: 5 hr 3 min 21 sec) 
Heartbeat CPU 2 instructions: 1560000000 cycles: 1479994966 heartbeat IPC: 0.981019 cumulative IPC: 0.99102 (Simulation time: 5 hr 4 min 8 sec) 
Heartbeat CPU 0 instructions: 640000000 cycles: 1484276240 heartbeat IPC: 0.287245 cumulative IPC: 0.324273 (Simulation time: 5 hr 4 min 57 sec) 
Heartbeat CPU 3 instructions: 1120000000 cycles: 1488855403 heartbeat IPC: 0.772412 cumulative IPC: 0.632338 (Simulation time: 5 hr 5 min 50 sec) 
Heartbeat CPU 1 instructions: 1180000000 cycles: 1489875551 heartbeat IPC: 0.560744 cumulative IPC: 0.69232 (Simulation time: 5 hr 6 min 2 sec) 
Heartbeat CPU 2 instructions: 1570000002 cycles: 1490078813 heartbeat IPC: 0.991685 cumulative IPC: 0.991025 (Simulation time: 5 hr 6 min 5 sec) 
Heartbeat CPU 2 instructions: 1580000000 cycles: 1500106439 heartbeat IPC: 0.997245 cumulative IPC: 0.99107 (Simulation time: 5 hr 7 min 52 sec) 
Heartbeat CPU 3 instructions: 1130000001 cycles: 1502576276 heartbeat IPC: 0.728817 cumulative IPC: 0.633301 (Simulation time: 5 hr 8 min 18 sec) 
Heartbeat CPU 1 instructions: 1190000002 cycles: 1507995516 heartbeat IPC: 0.551878 cumulative IPC: 0.690476 (Simulation time: 5 hr 9 min 24 sec) 
Heartbeat CPU 2 instructions: 1590000003 cycles: 1510169207 heartbeat IPC: 0.993763 cumulative IPC: 0.99109 (Simulation time: 5 hr 9 min 48 sec) 
Heartbeat CPU 0 instructions: 650000002 cycles: 1513293520 heartbeat IPC: 0.344622 cumulative IPC: 0.324699 (Simulation time: 5 hr 10 min 24 sec) 
Heartbeat CPU 3 instructions: 1140000000 cycles: 1517153705 heartbeat IPC: 0.685992 cumulative IPC: 0.633853 (Simulation time: 5 hr 11 min 7 sec) 
Heartbeat CPU 2 instructions: 1600000000 cycles: 1520337112 heartbeat IPC: 0.983486 cumulative IPC: 0.991034 (Simulation time: 5 hr 11 min 43 sec) 
Heartbeat CPU 1 instructions: 1200000000 cycles: 1524695709 heartbeat IPC: 0.598795 cumulative IPC: 0.689381 (Simulation time: 5 hr 12 min 33 sec) 
Heartbeat CPU 2 instructions: 1610000003 cycles: 1530367291 heartbeat IPC: 0.996991 cumulative IPC: 0.991077 (Simulation time: 5 hr 13 min 36 sec) 
Heartbeat CPU 3 instructions: 1150000000 cycles: 1532389263 heartbeat IPC: 0.656359 cumulative IPC: 0.634097 (Simulation time: 5 hr 13 min 59 sec) 
Heartbeat CPU 2 instructions: 1620000000 cycles: 1540422786 heartbeat IPC: 0.994481 cumulative IPC: 0.991101 (Simulation time: 5 hr 15 min 28 sec) 
Heartbeat CPU 1 instructions: 1210000002 cycles: 1540821288 heartbeat IPC: 0.620133 cumulative IPC: 0.688591 (Simulation time: 5 hr 15 min 32 sec) 
Heartbeat CPU 0 instructions: 660000000 cycles: 1547537217 heartbeat IPC: 0.292024 cumulative IPC: 0.323911 (Simulation time: 5 hr 16 min 43 sec) 
Heartbeat CPU 3 instructions: 1160000000 cycles: 1549475520 heartbeat IPC: 0.585266 cumulative IPC: 0.633511 (Simulation time: 5 hr 17 min 3 sec) 
Heartbeat CPU 2 instructions: 1630000001 cycles: 1550443008 heartbeat IPC: 0.997982 cumulative IPC: 0.991149 (Simulation time: 5 hr 17 min 13 sec) 
Heartbeat CPU 1 instructions: 1220000000 cycles: 1557356579 heartbeat IPC: 0.604767 cumulative IPC: 0.687621 (Simulation time: 5 hr 18 min 23 sec) 
Heartbeat CPU 2 instructions: 1640000000 cycles: 1560637156 heartbeat IPC: 0.980955 cumulative IPC: 0.991077 (Simulation time: 5 hr 18 min 55 sec) 
Heartbeat CPU 3 instructions: 1170000000 cycles: 1569505455 heartbeat IPC: 0.499253 cumulative IPC: 0.631646 (Simulation time: 5 hr 20 min 26 sec) 
Heartbeat CPU 1 instructions: 1230000001 cycles: 1570452389 heartbeat IPC: 0.763603 cumulative IPC: 0.688311 (Simulation time: 5 hr 20 min 37 sec) 
Heartbeat CPU 2 instructions: 1650000001 cycles: 1570762495 heartbeat IPC: 0.987621 cumulative IPC: 0.991053 (Simulation time: 5 hr 20 min 40 sec) 
Heartbeat CPU 0 instructions: 670000000 cycles: 1578937064 heartbeat IPC: 0.318473 cumulative IPC: 0.323793 (Simulation time: 5 hr 21 min 59 sec) 
Heartbeat CPU 2 instructions: 1660000000 cycles: 1580792969 heartbeat IPC: 0.996962 cumulative IPC: 0.991093 (Simulation time: 5 hr 22 min 16 sec) 
Finished CPU 1 instructions: 1000000000 cycles: 1457029155 cumulative IPC: 0.686328 (Simulation time: 5 hr 22 min 49 sec) 
Heartbeat CPU 2 instructions: 1670000003 cycles: 1590941660 heartbeat IPC: 0.985349 cumulative IPC: 0.991054 (Simulation time: 5 hr 23 min 51 sec) 
Heartbeat CPU 1 instructions: 1240000000 cycles: 1591204018 heartbeat IPC: 0.48189 cumulative IPC: 0.685385 (Simulation time: 5 hr 23 min 54 sec) 
Heartbeat CPU 3 instructions: 1180000000 cycles: 1594569814 heartbeat IPC: 0.398973 cumulative IPC: 0.627671 (Simulation time: 5 hr 24 min 30 sec) 
Heartbeat CPU 2 instructions: 1680000000 cycles: 1601126768 heartbeat IPC: 0.981825 cumulative IPC: 0.99099 (Simulation time: 5 hr 25 min 39 sec) 
Heartbeat CPU 1 instructions: 1250000003 cycles: 1605526017 heartbeat IPC: 0.698227 cumulative IPC: 0.685509 (Simulation time: 5 hr 26 min 26 sec) 
Heartbeat CPU 0 instructions: 680000000 cycles: 1611189230 heartbeat IPC: 0.310057 cumulative IPC: 0.323495 (Simulation time: 5 hr 27 min 26 sec) 
Heartbeat CPU 2 instructions: 1690000000 cycles: 1611257045 heartbeat IPC: 0.98714 cumulative IPC: 0.990964 (Simulation time: 5 hr 27 min 27 sec) 
Heartbeat CPU 3 instructions: 1190000003 cycles: 1621012831 heartbeat IPC: 0.378172 cumulative IPC: 0.623254 (Simulation time: 5 hr 28 min 55 sec) 
Heartbeat CPU 2 instructions: 1700000000 cycles: 1621447638 heartbeat IPC: 0.981297 cumulative IPC: 0.990898 (Simulation time: 5 hr 28 min 58 sec) 
Heartbeat CPU 1 instructions: 1260000000 cycles: 1626821608 heartbeat IPC: 0.469581 cumulative IPC: 0.682442 (Simulation time: 5 hr 29 min 45 sec) 
Heartbeat CPU 2 instructions: 1710000002 cycles: 1631753252 heartbeat IPC: 0.970345 cumulative IPC: 0.990757 (Simulation time: 5 hr 30 min 29 sec) 
Heartbeat CPU 2 instructions: 1720000000 cycles: 1641963434 heartbeat IPC: 0.979414 cumulative IPC: 0.99068 (Simulation time: 5 hr 32 min 2 sec) 
Heartbeat CPU 0 instructions: 690000002 cycles: 1646780881 heartbeat IPC: 0.280965 cumulative IPC: 0.322499 (Simulation time: 5 hr 32 min 46 sec) 
Heartbeat CPU 3 instructions: 1200000000 cycles: 1649980768 heartbeat IPC: 0.345209 cumulative IPC: 0.617964 (Simulation time: 5 hr 33 min 16 sec) 
Heartbeat CPU 1 instructions: 1270000000 cycles: 1650062034 heartbeat IPC: 0.430285 cumulative IPC: 0.678594 (Simulation time: 5 hr 33 min 17 sec) 
Heartbeat CPU 2 instructions: 1730000000 cycles: 1652132807 heartbeat IPC: 0.983345 cumulative IPC: 0.990631 (Simulation time: 5 hr 33 min 37 sec) 
Heartbeat CPU 2 instructions: 1740000000 cycles: 1662356768 heartbeat IPC: 0.978095 cumulative IPC: 0.990548 (Simulation time: 5 hr 35 min 12 sec) 
Heartbeat CPU 1 instructions: 1280000000 cycles: 1670987950 heartbeat IPC: 0.477876 cumulative IPC: 0.675873 (Simulation time: 5 hr 36 min 37 sec) 
Heartbeat CPU 2 instructions: 1750000003 cycles: 1673017485 heartbeat IPC: 0.938024 cumulative IPC: 0.990186 (Simulation time: 5 hr 36 min 58 sec) 
Heartbeat CPU 3 instructions: 1210000000 cycles: 1678503297 heartbeat IPC: 0.3506 cumulative IPC: 0.613048 (Simulation time: 5 hr 37 min 55 sec) 
Heartbeat CPU 0 instructions: 700000000 cycles: 1680479709 heartbeat IPC: 0.296746 cumulative IPC: 0.32194 (Simulation time: 5 hr 38 min 15 sec) 
Heartbeat CPU 2 instructions: 1760000000 cycles: 1683408540 heartbeat IPC: 0.962366 cumulative IPC: 0.99 (Simulation time: 5 hr 38 min 46 sec) 
Heartbeat CPU 1 instructions: 1290000003 cycles: 1688040987 heartbeat IPC: 0.586406 cumulative IPC: 0.674895 (Simulation time: 5 hr 39 min 33 sec) 
Heartbeat CPU 2 instructions: 1770000001 cycles: 1693651336 heartbeat IPC: 0.976296 cumulative IPC: 0.98991 (Simulation time: 5 hr 40 min 23 sec) 
Heartbeat CPU 1 instructions: 1300000000 cycles: 1701043162 heartbeat IPC: 0.769102 cumulative IPC: 0.675673 (Simulation time: 5 hr 41 min 43 sec) 
Heartbeat CPU 2 instructions: 1780000000 cycles: 1703843418 heartbeat IPC: 0.981154 cumulative IPC: 0.989854 (Simulation time: 5 hr 42 min 14 sec) 
Heartbeat CPU 3 instructions: 1220000000 cycles: 1704354476 heartbeat IPC: 0.38683 cumulative IPC: 0.609339 (Simulation time: 5 hr 42 min 20 sec) 
Heartbeat CPU 1 instructions: 1310000002 cycles: 1709769835 heartbeat IPC: 1.14591 cumulative IPC: 0.678267 (Simulation time: 5 hr 43 min 20 sec) 
Heartbeat CPU 2 instructions: 1790000003 cycles: 1714008468 heartbeat IPC: 0.983763 cumulative IPC: 0.989815 (Simulation time: 5 hr 44 min 8 sec) 
Heartbeat CPU 0 instructions: 710000000 cycles: 1714761941 heartbeat IPC: 0.291696 cumulative IPC: 0.321287 (Simulation time: 5 hr 44 min 17 sec) 
Heartbeat CPU 1 instructions: 1320000000 cycles: 1718409285 heartbeat IPC: 1.15748 cumulative IPC: 0.680869 (Simulation time: 5 hr 44 min 58 sec) 
Heartbeat CPU 2 instructions: 1800000000 cycles: 1724202157 heartbeat IPC: 0.980999 cumulative IPC: 0.989758 (Simulation time: 5 hr 46 min 1 sec) 
Heartbeat CPU 3 instructions: 1230000000 cycles: 1727584523 heartbeat IPC: 0.430477 cumulative IPC: 0.606743 (Simulation time: 5 hr 46 min 34 sec) 
Heartbeat CPU 1 instructions: 1330000002 cycles: 1732907008 heartbeat IPC: 0.689764 cumulative IPC: 0.680949 (Simulation time: 5 hr 47 min 28 sec) 
Heartbeat CPU 2 instructions: 1810000001 cycles: 1734369099 heartbeat IPC: 0.98358 cumulative IPC: 0.989719 (Simulation time: 5 hr 47 min 43 sec) 
Heartbeat CPU 2 instructions: 1820000000 cycles: 1744477016 heartbeat IPC: 0.989323 cumulative IPC: 0.989717 (Simulation time: 5 hr 49 min 23 sec) 
Heartbeat CPU 0 instructions: 720000000 cycles: 1748651109 heartbeat IPC: 0.29508 cumulative IPC: 0.320739 (Simulation time: 5 hr 50 min 3 sec) 
Heartbeat CPU 3 instructions: 1240000000 cycles: 1750342090 heartbeat IPC: 0.439414 cumulative IPC: 0.604396 (Simulation time: 5 hr 50 min 20 sec) 
Heartbeat CPU 1 instructions: 1340000000 cycles: 1750677773 heartbeat IPC: 0.562722 cumulative IPC: 0.679655 (Simulation time: 5 hr 50 min 24 sec) 
Heartbeat CPU 2 instructions: 1830000000 cycles: 1754770718 heartbeat IPC: 0.971468 cumulative IPC: 0.989601 (Simulation time: 5 hr 51 min 5 sec) 
Heartbeat CPU 2 instructions: 1840000000 cycles: 1765027385 heartbeat IPC: 0.974976 cumulative IPC: 0.98951 (Simulation time: 5 hr 52 min 44 sec) 
Heartbeat CPU 1 instructions: 1350000003 cycles: 1767551849 heartbeat IPC: 0.592625 cumulative IPC: 0.67876 (Simulation time: 5 hr 53 min 9 sec) 
Heartbeat CPU 3 instructions: 1250000002 cycles: 1772641320 heartbeat IPC: 0.448446 cumulative IPC: 0.602283 (Simulation time: 5 hr 54 min 2 sec) 
Heartbeat CPU 2 instructions: 1850000003 cycles: 1775180890 heartbeat IPC: 0.984882 cumulative IPC: 0.989481 (Simulation time: 5 hr 54 min 28 sec) 
Heartbeat CPU 1 instructions: 1360000000 cycles: 1778836894 heartbeat IPC: 0.886128 cumulative IPC: 0.680177 (Simulation time: 5 hr 55 min 7 sec) 
Heartbeat CPU 0 instructions: 730000000 cycles: 1782256974 heartbeat IPC: 0.297567 cumulative IPC: 0.320268 (Simulation time: 5 hr 55 min 44 sec) 
Heartbeat CPU 2 instructions: 1860000000 cycles: 1785383618 heartbeat IPC: 0.98013 cumulative IPC: 0.989424 (Simulation time: 5 hr 56 min 17 sec) 
Heartbeat CPU 1 instructions: 1370000001 cycles: 1790006126 heartbeat IPC: 0.895317 cumulative IPC: 0.681622 (Simulation time: 5 hr 57 min 6 sec) 
Finished CPU 3 instructions: 1000000000 cycles: 1664834353 cumulative IPC: 0.60066 (Simulation time: 5 hr 57 min 29 sec) 
Heartbeat CPU 3 instructions: 1260000000 cycles: 1794111530 heartbeat IPC: 0.465762 cumulative IPC: 0.600524 (Simulation time: 5 hr 57 min 47 sec) 
Heartbeat CPU 2 instructions: 1870000000 cycles: 1795682994 heartbeat IPC: 0.970933 cumulative IPC: 0.98931 (Simulation time: 5 hr 58 min 2 sec) 
Heartbeat CPU 2 instructions: 1880000000 cycles: 1805929977 heartbeat IPC: 0.975897 cumulative IPC: 0.989228 (Simulation time: 5 hr 59 min 44 sec) 
Heartbeat CPU 1 instructions: 1380000000 cycles: 1808827012 heartbeat IPC: 0.531325 cumulative IPC: 0.67994 (Simulation time: 6 hr 0 min 15 sec) 
Heartbeat CPU 0 instructions: 740000000 cycles: 1811981902 heartbeat IPC: 0.336418 cumulative IPC: 0.320553 (Simulation time: 6 hr 0 min 52 sec) 
Heartbeat CPU 2 instructions: 1890000001 cycles: 1816043483 heartbeat IPC: 0.988777 cumulative IPC: 0.989225 (Simulation time: 6 hr 1 min 36 sec) 
Heartbeat CPU 3 instructions: 1270000003 cycles: 1816124648 heartbeat IPC: 0.454275 cumulative IPC: 0.598617 (Simulation time: 6 hr 1 min 37 sec) 
Heartbeat CPU 2 instructions: 1900000000 cycles: 1826375151 heartbeat IPC: 0.967898 cumulative IPC: 0.989095 (Simulation time: 6 hr 3 min 13 sec) 
Heartbeat CPU 1 instructions: 1390000002 cycles: 1828026088 heartbeat IPC: 0.520859 cumulative IPC: 0.678144 (Simulation time: 6 hr 3 min 30 sec) 
Heartbeat CPU 2 instructions: 1910000003 cycles: 1836485138 heartbeat IPC: 0.989121 cumulative IPC: 0.989095 (Simulation time: 6 hr 5 min 3 sec) 
Heartbeat CPU 3 instructions: 1280000000 cycles: 1837861161 heartbeat IPC: 0.460055 cumulative IPC: 0.596857 (Simulation time: 6 hr 5 min 19 sec) 
Heartbeat CPU 0 instructions: 750000002 cycles: 1838687712 heartbeat IPC: 0.37445 cumulative IPC: 0.321394 (Simulation time: 6 hr 5 min 28 sec) 
Heartbeat CPU 1 instructions: 1400000000 cycles: 1844779563 heartbeat IPC: 0.596891 cumulative IPC: 0.677351 (Simulation time: 6 hr 6 min 37 sec) 
Heartbeat CPU 2 instructions: 1920000000 cycles: 1846575011 heartbeat IPC: 0.991092 cumulative IPC: 0.989107 (Simulation time: 6 hr 6 min 57 sec) 
Heartbeat CPU 2 instructions: 1930000001 cycles: 1856626239 heartbeat IPC: 0.994903 cumulative IPC: 0.989141 (Simulation time: 6 hr 8 min 49 sec) 
Heartbeat CPU 3 instructions: 1290000000 cycles: 1858380052 heartbeat IPC: 0.487356 cumulative IPC: 0.595559 (Simulation time: 6 hr 9 min 9 sec) 
[...]
Heartbeat CPU 2 instructions: 3060000000 cycles: 2997250725 heartbeat IPC: 0.991778 cumulative IPC: 0.989755 (Simulation time: 9 hr 19 min 51 sec) 
Heartbeat CPU 1 instructions: 2140000000 cycles: 2998262251 heartbeat IPC: 0.515029 cumulative IPC: 0.662961 (Simulation time: 9 hr 20 min 1 sec) 
Heartbeat CPU 0 instructions: 1150000000 cycles: 3002698917 heartbeat IPC: 0.315801 cumulative IPC: 0.3304 (Simulation time: 9 hr 20 min 44 sec) 
Heartbeat CPU 2 instructions: 3070000003 cycles: 3007337149 heartbeat IPC: 0.991432 cumulative IPC: 0.989761 (Simulation time: 9 hr 21 min 25 sec) 
Heartbeat CPU 1 instructions: 2150000000 cycles: 3017046190 heartbeat IPC: 0.53237 cumulative IPC: 0.662112 (Simulation time: 9 hr 22 min 57 sec) 
Heartbeat CPU 2 instructions: 3080000000 cycles: 3017373971 heartbeat IPC: 0.996331 cumulative IPC: 0.989783 (Simulation time: 9 hr 23 min 0 sec) 
Heartbeat CPU 3 instructions: 1810000000 cycles: 3018464463 heartbeat IPC: 0.442821 cumulative IPC: 0.536446 (Simulation time: 9 hr 23 min 11 sec) 
Heartbeat CPU 2 instructions: 3090000000 cycles: 3027348427 heartbeat IPC: 1.00256 cumulative IPC: 0.989827 (Simulation time: 9 hr 24 min 40 sec) 
Heartbeat CPU 1 instructions: 2160000000 cycles: 3032218012 heartbeat IPC: 0.659117 cumulative IPC: 0.662096 (Simulation time: 9 hr 25 min 30 sec) 
Heartbeat CPU 0 instructions: 1160000000 cycles: 3033457360 heartbeat IPC: 0.325114 cumulative IPC: 0.330344 (Simulation time: 9 hr 25 min 43 sec) 
Heartbeat CPU 2 instructions: 3100000000 cycles: 3037333470 heartbeat IPC: 1.0015 cumulative IPC: 0.989867 (Simulation time: 9 hr 26 min 23 sec) 
Heartbeat CPU 3 instructions: 1820000000 cycles: 3040110907 heartbeat IPC: 0.46197 cumulative IPC: 0.535893 (Simulation time: 9 hr 26 min 51 sec) 
Heartbeat CPU 1 instructions: 2170000003 cycles: 3047194769 heartbeat IPC: 0.667701 cumulative IPC: 0.662125 (Simulation time: 9 hr 28 min 1 sec) 
Heartbeat CPU 2 instructions: 3110000001 cycles: 3047372733 heartbeat IPC: 0.996089 cumulative IPC: 0.989889 (Simulation time: 9 hr 28 min 3 sec) 
Heartbeat CPU 2 instructions: 3120000000 cycles: 3057343191 heartbeat IPC: 1.00296 cumulative IPC: 0.989933 (Simulation time: 9 hr 29 min 45 sec) 
Heartbeat CPU 3 instructions: 1830000002 cycles: 3062058755 heartbeat IPC: 0.455626 cumulative IPC: 0.535292 (Simulation time: 9 hr 30 min 34 sec) 
Heartbeat CPU 1 instructions: 2180000000 cycles: 3062261580 heartbeat IPC: 0.66371 cumulative IPC: 0.662133 (Simulation time: 9 hr 30 min 36 sec) 
Heartbeat CPU 0 instructions: 1170000000 cycles: 3064480008 heartbeat IPC: 0.322345 cumulative IPC: 0.330259 (Simulation time: 9 hr 30 min 57 sec) 
Heartbeat CPU 2 instructions: 3130000002 cycles: 3067320677 heartbeat IPC: 1.00226 cumulative IPC: 0.989975 (Simulation time: 9 hr 31 min 24 sec) 
Heartbeat CPU 1 instructions: 2190000000 cycles: 3076787135 heartbeat IPC: 0.688442 cumulative IPC: 0.662263 (Simulation time: 9 hr 32 min 58 sec) 
Heartbeat CPU 2 instructions: 3140000000 cycles: 3077302724 heartbeat IPC: 1.0018 cumulative IPC: 0.990015 (Simulation time: 9 hr 33 min 3 sec) 
Heartbeat CPU 3 instructions: 1840000000 cycles: 3083702533 heartbeat IPC: 0.462026 cumulative IPC: 0.534756 (Simulation time: 9 hr 34 min 3 sec) 
Heartbeat CPU 2 instructions: 3150000001 cycles: 3087543332 heartbeat IPC: 0.976505 cumulative IPC: 0.989968 (Simulation time: 9 hr 34 min 36 sec) 
Heartbeat CPU 0 instructions: 1180000000 cycles: 3094683414 heartbeat IPC: 0.331088 cumulative IPC: 0.330268 (Simulation time: 9 hr 35 min 38 sec) 
Heartbeat CPU 1 instructions: 2200000000 cycles: 3097423903 heartbeat IPC: 0.484572 cumulative IPC: 0.661028 (Simulation time: 9 hr 36 min 0 sec) 
Heartbeat CPU 2 instructions: 3160000000 cycles: 3097572345 heartbeat IPC: 0.997107 cumulative IPC: 0.989992 (Simulation time: 9 hr 36 min 1 sec) 
Heartbeat CPU 3 instructions: 1850000000 cycles: 3106385885 heartbeat IPC: 0.440852 cumulative IPC: 0.534041 (Simulation time: 9 hr 37 min 31 sec) 
Heartbeat CPU 2 instructions: 3170000001 cycles: 3107613775 heartbeat IPC: 0.995874 cumulative IPC: 0.990012 (Simulation time: 9 hr 37 min 44 sec) 
Heartbeat CPU 1 instructions: 2210000001 cycles: 3111181610 heartbeat IPC: 0.726865 cumulative IPC: 0.661332 (Simulation time: 9 hr 38 min 21 sec) 
Heartbeat CPU 2 instructions: 3180000000 cycles: 3117601423 heartbeat IPC: 1.00124 cumulative IPC: 0.99005 (Simulation time: 9 hr 39 min 27 sec) 
Heartbeat CPU 0 instructions: 1190000001 cycles: 3126478851 heartbeat IPC: 0.314511 cumulative IPC: 0.330101 (Simulation time: 9 hr 40 min 48 sec) 
Heartbeat CPU 2 instructions: 3190000003 cycles: 3127638397 heartbeat IPC: 0.996316 cumulative IPC: 0.990071 (Simulation time: 9 hr 40 min 57 sec) 
Heartbeat CPU 3 instructions: 1860000000 cycles: 3128742517 heartbeat IPC: 0.447295 cumulative IPC: 0.533395 (Simulation time: 9 hr 41 min 6 sec) 
Heartbeat CPU 1 instructions: 2220000000 cycles: 3129108792 heartbeat IPC: 0.557812 cumulative IPC: 0.660713 (Simulation time: 9 hr 41 min 9 sec) 
Heartbeat CPU 2 instructions: 3200000000 cycles: 3137727282 heartbeat IPC: 0.99119 cumulative IPC: 0.990075 (Simulation time: 9 hr 42 min 23 sec) 
Heartbeat CPU 2 instructions: 3210000000 cycles: 3147770625 heartbeat IPC: 0.995684 cumulative IPC: 0.990093 (Simulation time: 9 hr 43 min 52 sec) 
Heartbeat CPU 1 instructions: 2230000001 cycles: 3150532551 heartbeat IPC: 0.466772 cumulative IPC: 0.659339 (Simulation time: 9 hr 44 min 16 sec) 
Heartbeat CPU 3 instructions: 1870000000 cycles: 3150580745 heartbeat IPC: 0.457913 cumulative IPC: 0.53285 (Simulation time: 9 hr 44 min 16 sec) 
Heartbeat CPU 2 instructions: 3220000000 cycles: 3157760355 heartbeat IPC: 1.00103 cumulative IPC: 0.990129 (Simulation time: 9 hr 45 min 17 sec) 
Heartbeat CPU 0 instructions: 1200000000 cycles: 3158988861 heartbeat IPC: 0.307598 cumulative IPC: 0.329859 (Simulation time: 9 hr 45 min 27 sec) 
Finished CPU 0 instructions: 1000000003 cycles: 3031594967 cumulative IPC: 0.329859 (Simulation time: 9 hr 45 min 27 sec) 

CPU 0 Branch Prediction Accuracy: 91.1518% MPKI: 15.9207

CPU 1 Branch Prediction Accuracy: 99.7544% MPKI: 0.0901967

CPU 2 Branch Prediction Accuracy: 99.9797% MPKI: 0.00135971

CPU 3 Branch Prediction Accuracy: 97.8492% MPKI: 0.321873

ChampSim completed all CPUs

Total Simulation Statistics (not including warmup)

CPU 0 cumulative IPC: 0.329859 instructions: 1000000003 cycles: 3031594967
L1D TOTAL     ACCESS:  349109151  HIT:  339231837  MISS:    9877314
L1D LOAD      ACCESS:  214084376  HIT:  205411778  MISS:    8672598
L1D RFO       ACCESS:  135024775  HIT:  133820059  MISS:    1204716
L1D PREFETCH  ACCESS:          0  HIT:          0  MISS:          0
L1D WRITEBACK ACCESS:          0  HIT:          0  MISS:          0
L1I TOTAL     ACCESS:  272184682  HIT:  267440403  MISS:    4744279
L1I LOAD      ACCESS:  272184682  HIT:  267440403  MISS:    4744279
L1I RFO       ACCESS:          0  HIT:          0  MISS:          0
L1I PREFETCH  ACCESS:          0  HIT:          0  MISS:          0
L1I WRITEBACK ACCESS:          0  HIT:          0  MISS:          0
L2C TOTAL     ACCESS:   26476466  HIT:   22084792  MISS:    4391674
L2C LOAD      ACCESS:   13416764  HIT:    9990764  MISS:    3426000
L2C RFO       ACCESS:    1204668  HIT:     512817  MISS:     691851
L2C PREFETCH  ACCESS:    9291883  HIT:    9036209  MISS:     255674
L2C WRITEBACK ACCESS:    2563151  HIT:    2545002  MISS:      18149
LLC TOTAL     ACCESS:   12025004  HIT:    6659635  MISS:    5365369
LLC LOAD      ACCESS:    3381928  HIT:    1697442  MISS:    1684486
LLC RFO       ACCESS:     691692  HIT:     187945  MISS:     503747
LLC PREFETCH  ACCESS:    6729904  HIT:    4032250  MISS:    2697654
LLC WRITEBACK ACCESS:    1221480  HIT:     741998  MISS:     479482

CPU 1 cumulative IPC: 0.658545 instructions: 1996441468 cycles: 3031594968
L1D TOTAL     ACCESS:  552581329  HIT:  482361607  MISS:   70219722
L1D LOAD      ACCESS:  484009235  HIT:  425590231  MISS:   58419004
L1D RFO       ACCESS:   68572094  HIT:   56771376  MISS:   11800718
L1D PREFETCH  ACCESS:          0  HIT:          0  MISS:          0
L1D WRITEBACK ACCESS:          0  HIT:          0  MISS:          0
L1I TOTAL     ACCESS:  481568288  HIT:  481560927  MISS:       7361
L1I LOAD      ACCESS:  481568288  HIT:  481560927  MISS:       7361
L1I RFO       ACCESS:          0  HIT:          0  MISS:          0
L1I PREFETCH  ACCESS:          0  HIT:          0  MISS:          0
L1I WRITEBACK ACCESS:          0  HIT:          0  MISS:          0
L2C TOTAL     ACCESS:  131029453  HIT:   78731557  MISS:   52297896
L2C LOAD      ACCESS:   58423031  HIT:   29786484  MISS:   28636547
L2C RFO       ACCESS:   11799837  HIT:       9581  MISS:   11790256
L2C PREFETCH  ACCESS:   45179874  HIT:   33310928  MISS:   11868946
L2C WRITEBACK ACCESS:   15626711  HIT:   15624564  MISS:       2147
LLC TOTAL     ACCESS:  149674438  HIT:   95773429  MISS:   53901009
LLC LOAD      ACCESS:   26887157  HIT:   21693335  MISS:    5193822
LLC RFO       ACCESS:   11790255  HIT:       1017  MISS:   11789238
LLC PREFETCH  ACCESS:   95516781  HIT:   58599717  MISS:   36917064
LLC WRITEBACK ACCESS:   15480245  HIT:   15479360  MISS:        885

CPU 2 cumulative IPC: 0.990133 instructions: 3001681362 cycles: 3031594968
L1D TOTAL     ACCESS: 1204203384  HIT:  963525188  MISS:  240678196
L1D LOAD      ACCESS:  963850552  HIT:  742884979  MISS:  220965573
L1D RFO       ACCESS:  240352832  HIT:  220640209  MISS:   19712623
L1D PREFETCH  ACCESS:          0  HIT:          0  MISS:          0
L1D WRITEBACK ACCESS:          0  HIT:          0  MISS:          0
L1I TOTAL     ACCESS:  717240631  HIT:  639197203  MISS:   78043428
L1I LOAD      ACCESS:  717240631  HIT:  639197203  MISS:   78043428
L1I RFO       ACCESS:          0  HIT:          0  MISS:          0
L1I PREFETCH  ACCESS:          0  HIT:          0  MISS:          0
L1I WRITEBACK ACCESS:          0  HIT:          0  MISS:          0
L2C TOTAL     ACCESS:  570190874  HIT:  541226168  MISS:   28964706
L2C LOAD      ACCESS:  298991987  HIT:  275491955  MISS:   23500032
L2C RFO       ACCESS:   19694331  HIT:   16994828  MISS:    2699503
L2C PREFETCH  ACCESS:  229375822  HIT:  226621678  MISS:    2754144
L2C WRITEBACK ACCESS:   22128734  HIT:   22117707  MISS:      11027
LLC TOTAL     ACCESS:  122388385  HIT:  114213199  MISS:    8175186
LLC LOAD      ACCESS:   23293303  HIT:   22645462  MISS:     647841
LLC RFO       ACCESS:    2523295  HIT:     756446  MISS:    1766849
LLC PREFETCH  ACCESS:   93830974  HIT:   88079861  MISS:    5751113
LLC WRITEBACK ACCESS:    2740813  HIT:    2731430  MISS:       9383

CPU 3 cumulative IPC: 0.532675 instructions: 1614854173 cycles: 3031594968
L1D TOTAL     ACCESS:  442214927  HIT:  340115213  MISS:  102099714
L1D LOAD      ACCESS:  165558846  HIT:  150070709  MISS:   15488137
L1D RFO       ACCESS:  276656081  HIT:  190044504  MISS:   86611577
L1D PREFETCH  ACCESS:          0  HIT:          0  MISS:          0
L1D WRITEBACK ACCESS:          0  HIT:          0  MISS:          0
L1I TOTAL     ACCESS:  388440925  HIT:  388440922  MISS:          3
L1I LOAD      ACCESS:  388440925  HIT:  388440922  MISS:          3
L1I RFO       ACCESS:          0  HIT:          0  MISS:          0
L1I PREFETCH  ACCESS:          0  HIT:          0  MISS:          0
L1I WRITEBACK ACCESS:          0  HIT:          0  MISS:          0
L2C TOTAL     ACCESS:  192415349  HIT:  114033124  MISS:   78382225
L2C LOAD      ACCESS:   15488140  HIT:     934132  MISS:   14554008
L2C RFO       ACCESS:   86611039  HIT:   23722068  MISS:   62888971
L2C PREFETCH  ACCESS:    3704591  HIT:    2784098  MISS:     920493
L2C WRITEBACK ACCESS:   86611579  HIT:   86592826  MISS:      18753
LLC TOTAL     ACCESS:  154475785  HIT:   92625610  MISS:   61850175
LLC LOAD      ACCESS:   13363205  HIT:    8206436  MISS:    5156769
LLC RFO       ACCESS:   62858384  HIT:   16476004  MISS:   46382380
LLC PREFETCH  ACCESS:   15347504  HIT:    5040210  MISS:   10307294
LLC WRITEBACK ACCESS:   62906692  HIT:   62902960  MISS:       3732

Region of Interest Statistics

CPU 0 cumulative IPC: 0.329859 instructions: 1000000003 cycles: 3031594967
L1D TOTAL     ACCESS:  349109151  HIT:  339231837  MISS:    9877314
L1D LOAD      ACCESS:  214084376  HIT:  205411778  MISS:    8672598
L1D RFO       ACCESS:  135024775  HIT:  133820059  MISS:    1204716
L1D PREFETCH  ACCESS:          0  HIT:          0  MISS:          0
L1D WRITEBACK ACCESS:          0  HIT:          0  MISS:          0
L1D PREFETCH  REQUESTED:          0  ISSUED:          0  USEFUL:          0  USELESS:          0
L1I TOTAL     ACCESS:  272184682  HIT:  267440403  MISS:    4744279
L1I LOAD      ACCESS:  272184682  HIT:  267440403  MISS:    4744279
L1I RFO       ACCESS:          0  HIT:          0  MISS:          0
L1I PREFETCH  ACCESS:          0  HIT:          0  MISS:          0
L1I WRITEBACK ACCESS:          0  HIT:          0  MISS:          0
L1I PREFETCH  REQUESTED:          0  ISSUED:          0  USEFUL:          0  USELESS:          0
L2C TOTAL     ACCESS:   26476466  HIT:   22084792  MISS:    4391674
L2C LOAD      ACCESS:   13416764  HIT:    9990764  MISS:    3426000
L2C RFO       ACCESS:    1204668  HIT:     512817  MISS:     691851
L2C PREFETCH  ACCESS:    9291883  HIT:    9036209  MISS:     255674
L2C WRITEBACK ACCESS:    2563151  HIT:    2545002  MISS:      18149
L2C PREFETCH  REQUESTED:   21100366  ISSUED:   21099051  USEFUL:     208500  USELESS:     139661
LLC TOTAL     ACCESS:   12025004  HIT:    6659635  MISS:    5365369
LLC LOAD      ACCESS:    3381928  HIT:    1697442  MISS:    1684486
LLC RFO       ACCESS:     691692  HIT:     187945  MISS:     503747
LLC PREFETCH  ACCESS:    6729904  HIT:    4032250  MISS:    2697654
LLC WRITEBACK ACCESS:    1221480  HIT:     741998  MISS:     479482
LLC PREFETCH  REQUESTED:          0  ISSUED:          0  USEFUL:   40732648  USELESS:   23940270
Major fault: 0 Minor fault: 28350

CPU 1 cumulative IPC: 0.686328 instructions: 1000000000 cycles: 1457029155
L1D TOTAL     ACCESS:  289283810  HIT:  256083549  MISS:   33200261
L1D LOAD      ACCESS:  251284355  HIT:  223579310  MISS:   27705045
L1D RFO       ACCESS:   37999455  HIT:   32504239  MISS:    5495216
L1D PREFETCH  ACCESS:          0  HIT:          0  MISS:          0
L1D WRITEBACK ACCESS:          0  HIT:          0  MISS:          0
L1D PREFETCH  REQUESTED:          0  ISSUED:          0  USEFUL:          0  USELESS:          0
L1I TOTAL     ACCESS:  242195293  HIT:  242191792  MISS:       3501
L1I LOAD      ACCESS:  242195293  HIT:  242191792  MISS:       3501
L1I RFO       ACCESS:          0  HIT:          0  MISS:          0
L1I PREFETCH  ACCESS:          0  HIT:          0  MISS:          0
L1I WRITEBACK ACCESS:          0  HIT:          0  MISS:          0
L1I PREFETCH  REQUESTED:          0  ISSUED:          0  USEFUL:          0  USELESS:          0
L2C TOTAL     ACCESS:   63081866  HIT:   37643134  MISS:   25438732
L2C LOAD      ACCESS:   27707017  HIT:   13835820  MISS:   13871197
L2C RFO       ACCESS:    5494906  HIT:       2945  MISS:    5491961
L2C PREFETCH  ACCESS:   22620461  HIT:   16546216  MISS:    6074245
L2C WRITEBACK ACCESS:    7259482  HIT:    7258153  MISS:       1329
L2C PREFETCH  REQUESTED:  184193357  ISSUED:  184181071  USEFUL:   13954977  USELESS:     174909
LLC TOTAL     ACCESS:   73259818  HIT:   47110434  MISS:   26149384
LLC LOAD      ACCESS:   13071824  HIT:   10687044  MISS:    2384780
LLC RFO       ACCESS:    5491960  HIT:        818  MISS:    5491142
LLC PREFETCH  ACCESS:   47508515  HIT:   29235544  MISS:   18272971
LLC WRITEBACK ACCESS:    7187519  HIT:    7187028  MISS:        491
LLC PREFETCH  REQUESTED:          0  ISSUED:          0  USEFUL:   40732648  USELESS:   23940270
Major fault: 0 Minor fault: 96901

CPU 2 cumulative IPC: 0.991206 instructions: 1000000000 cycles: 1008872402
L1D TOTAL     ACCESS:  401173343  HIT:  320995285  MISS:   80178058
L1D LOAD      ACCESS:  321099504  HIT:  247488593  MISS:   73610911
L1D RFO       ACCESS:   80073839  HIT:   73506692  MISS:    6567147
L1D PREFETCH  ACCESS:          0  HIT:          0  MISS:          0
L1D WRITEBACK ACCESS:          0  HIT:          0  MISS:          0
L1D PREFETCH  REQUESTED:          0  ISSUED:          0  USEFUL:          0  USELESS:          0
L1I TOTAL     ACCESS:  238945618  HIT:  212945476  MISS:   26000142
L1I LOAD      ACCESS:  238945618  HIT:  212945476  MISS:   26000142
L1I RFO       ACCESS:          0  HIT:          0  MISS:          0
L1I PREFETCH  ACCESS:          0  HIT:          0  MISS:          0
L1I WRITEBACK ACCESS:          0  HIT:          0  MISS:          0
L1I PREFETCH  REQUESTED:          0  ISSUED:          0  USEFUL:          0  USELESS:          0
L2C TOTAL     ACCESS:  189775284  HIT:  180122746  MISS:    9652538
L2C LOAD      ACCESS:   99605367  HIT:   91777212  MISS:    7828155
L2C RFO       ACCESS:    6561036  HIT:    5663979  MISS:     897057
L2C PREFETCH  ACCESS:   76236742  HIT:   75313001  MISS:     923741
L2C WRITEBACK ACCESS:    7372139  HIT:    7368554  MISS:       3585
L2C PREFETCH  REQUESTED:  492132403  ISSUED:  466785156  USEFUL:    2878866  USELESS:     127871
LLC TOTAL     ACCESS:   40397348  HIT:   37676239  MISS:    2721109
LLC LOAD      ACCESS:    7761491  HIT:    7540501  MISS:     220990
LLC RFO       ACCESS:     839017  HIT:     250344  MISS:     588673
LLC PREFETCH  ACCESS:   30886466  HIT:   28978115  MISS:    1908351
LLC WRITEBACK ACCESS:     910374  HIT:     907279  MISS:       3095
LLC PREFETCH  REQUESTED:          0  ISSUED:          0  USEFUL:   40732648  USELESS:   23940270
Major fault: 0 Minor fault: 41931

CPU 3 cumulative IPC: 0.60066 instructions: 1000000000 cycles: 1664834353
L1D TOTAL     ACCESS:  267580957  HIT:  213637273  MISS:   53943684
L1D LOAD      ACCESS:  103702387  HIT:   95522064  MISS:    8180323
L1D RFO       ACCESS:  163878570  HIT:  118115209  MISS:   45763361
L1D PREFETCH  ACCESS:          0  HIT:          0  MISS:          0
L1D WRITEBACK ACCESS:          0  HIT:          0  MISS:          0
L1D PREFETCH  REQUESTED:          0  ISSUED:          0  USEFUL:          0  USELESS:          0
L1I TOTAL     ACCESS:  239420678  HIT:  239420675  MISS:          3
L1I LOAD      ACCESS:  239420678  HIT:  239420675  MISS:          3
L1I RFO       ACCESS:          0  HIT:          0  MISS:          0
L1I PREFETCH  ACCESS:          0  HIT:          0  MISS:          0
L1I WRITEBACK ACCESS:          0  HIT:          0  MISS:          0
L1I PREFETCH  REQUESTED:          0  ISSUED:          0  USEFUL:          0  USELESS:          0
L2C TOTAL     ACCESS:  101671949  HIT:   60520417  MISS:   41151532
L2C LOAD      ACCESS:    8180326  HIT:     469088  MISS:    7711238
L2C RFO       ACCESS:   45763158  HIT:   12793370  MISS:   32969788
L2C PREFETCH  ACCESS:    1965103  HIT:    1501396  MISS:     463707
L2C WRITEBACK ACCESS:   45763362  HIT:   45756563  MISS:       6799
L2C PREFETCH  REQUESTED:   46654511  ISSUED:   46654511  USEFUL:    1880105  USELESS:        790
LLC TOTAL     ACCESS:   81357613  HIT:   48674045  MISS:   32683568
LLC LOAD      ACCESS:    7087365  HIT:    4502437  MISS:    2584928
LLC RFO       ACCESS:   32952412  HIT:    8441737  MISS:   24510675
LLC PREFETCH  ACCESS:    8340334  HIT:    2753925  MISS:    5586409
LLC WRITEBACK ACCESS:   32977502  HIT:   32975946  MISS:       1556
LLC PREFETCH  REQUESTED:          0  ISSUED:          0  USEFUL:   40732648  USELESS:   23940270
Major fault: 0 Minor fault: 586163

DRAM Statistics
 CHANNEL 0
 RQ ROW_BUFFER_HIT:   16428984  ROW_BUFFER_MISS:   47956292
 DBUS_CONGESTED:  131323225
 WQ ROW_BUFFER_HIT:    3354127  ROW_BUFFER_MISS:   28981401  FULL:          0

 CHANNEL 1
 RQ ROW_BUFFER_HIT:   16398206  ROW_BUFFER_MISS:   48014284
 DBUS_CONGESTED:  131323225
 WQ ROW_BUFFER_HIT:    3355057  ROW_BUFFER_MISS:   28980567  FULL:          0

 AVG_CONGESTED_CYCLE: 13
