Initialize SIGNATURE TABLE
ST_SET: 1
ST_WAY: 256
ST_TAG_BIT: 16
ST_TAG_MASK: ffff

Initialize PATTERN TABLE
PT_SET: 512
PT_WAY: 4
SIG_DELTA_BIT: 7
C_SIG_BIT: 4
C_DELTA_BIT: 4

Initialize PREFETCH FILTER
FILTER_SET: 1024

*** ChampSim Multicore Out-of-Order Simulator ***

Warmup Instructions: 200000000
Simulation Instructions: 1000000000
Number of CPUs: 4
LLC sets: 8192
LLC ways: 16
Off-chip DRAM Size: 8192 MB Channels: 2 Width: 64-bit Data Rate: 1600 MT/s

CPU 0 runs /scratch/user/djimenez/champsim-traces/speccpu2017/xz/605.mcf_s/605.mcf_s-1554B.champsimtrace.xz
CPU 1 runs /scratch/user/djimenez/champsim-traces/speccpu2017/xz/602.gcc_s/602.gcc_s-2375B.champsimtrace.xz
CPU 2 runs /scratch/user/djimenez/champsim-traces/speccpu2017/xz/620.omnetpp_s/620.omnetpp_s-141B.champsimtrace.xz
CPU 3 runs /scratch/user/djimenez/champsim-traces/speccpu2017/xz/623.xalancbmk_s/623.xalancbmk_s-700B.champsimtrace.xz
Heartbeat CPU 0 instructions: 10000001 cycles: 5509387 heartbeat IPC: 1.81508 cumulative IPC: 1.81508 (Simulation time: 0 hr 1 min 44 sec) 
Heartbeat CPU 3 instructions: 10000001 cycles: 5968579 heartbeat IPC: 1.67544 cumulative IPC: 1.67544 (Simulation time: 0 hr 1 min 53 sec) 
Heartbeat CPU 1 instructions: 10000002 cycles: 6802961 heartbeat IPC: 1.46995 cumulative IPC: 1.46995 (Simulation time: 0 hr 2 min 9 sec) 
Heartbeat CPU 2 instructions: 10000000 cycles: 7407052 heartbeat IPC: 1.35006 cumulative IPC: 1.35006 (Simulation time: 0 hr 2 min 21 sec) 
Heartbeat CPU 3 instructions: 20000000 cycles: 10841011 heartbeat IPC: 2.05236 cumulative IPC: 1.84485 (Simulation time: 0 hr 3 min 29 sec) 
Heartbeat CPU 0 instructions: 20000000 cycles: 11006838 heartbeat IPC: 1.81902 cumulative IPC: 1.81705 (Simulation time: 0 hr 3 min 33 sec) 
Heartbeat CPU 1 instructions: 20000000 cycles: 13364127 heartbeat IPC: 1.52412 cumulative IPC: 1.49654 (Simulation time: 0 hr 4 min 17 sec) 
Heartbeat CPU 2 instructions: 20000000 cycles: 14837478 heartbeat IPC: 1.34582 cumulative IPC: 1.34794 (Simulation time: 0 hr 4 min 44 sec) 
Heartbeat CPU 0 instructions: 30000003 cycles: 16452692 heartbeat IPC: 1.83626 cumulative IPC: 1.82341 (Simulation time: 0 hr 5 min 14 sec) 
Heartbeat CPU 3 instructions: 30000001 cycles: 16905715 heartbeat IPC: 1.64889 cumulative IPC: 1.77455 (Simulation time: 0 hr 5 min 23 sec) 
Heartbeat CPU 1 instructions: 30000001 cycles: 20224791 heartbeat IPC: 1.45758 cumulative IPC: 1.48333 (Simulation time: 0 hr 6 min 25 sec) 
Heartbeat CPU 0 instructions: 40000000 cycles: 21903386 heartbeat IPC: 1.83463 cumulative IPC: 1.8262 (Simulation time: 0 hr 6 min 56 sec) 
Heartbeat CPU 2 instructions: 30000003 cycles: 22290910 heartbeat IPC: 1.34166 cumulative IPC: 1.34584 (Simulation time: 0 hr 7 min 4 sec) 
Heartbeat CPU 3 instructions: 40000000 cycles: 23195982 heartbeat IPC: 1.58976 cumulative IPC: 1.72444 (Simulation time: 0 hr 7 min 21 sec) 
Heartbeat CPU 1 instructions: 40000000 cycles: 26404669 heartbeat IPC: 1.61815 cumulative IPC: 1.51488 (Simulation time: 0 hr 8 min 22 sec) 
Heartbeat CPU 0 instructions: 50000003 cycles: 27348932 heartbeat IPC: 1.83636 cumulative IPC: 1.82823 (Simulation time: 0 hr 8 min 39 sec) 
Heartbeat CPU 3 instructions: 50000001 cycles: 29356393 heartbeat IPC: 1.62327 cumulative IPC: 1.70321 (Simulation time: 0 hr 9 min 19 sec) 
Heartbeat CPU 2 instructions: 40000000 cycles: 29702804 heartbeat IPC: 1.34918 cumulative IPC: 1.34667 (Simulation time: 0 hr 9 min 26 sec) 
Heartbeat CPU 1 instructions: 50000001 cycles: 32280578 heartbeat IPC: 1.70186 cumulative IPC: 1.54892 (Simulation time: 0 hr 10 min 17 sec) 
Heartbeat CPU 0 instructions: 60000000 cycles: 32781687 heartbeat IPC: 1.84069 cumulative IPC: 1.83029 (Simulation time: 0 hr 10 min 26 sec) 
Heartbeat CPU 3 instructions: 60000000 cycles: 34478593 heartbeat IPC: 1.95229 cumulative IPC: 1.74021 (Simulation time: 0 hr 10 min 59 sec) 
Heartbeat CPU 2 instructions: 50000001 cycles: 37162227 heartbeat IPC: 1.34059 cumulative IPC: 1.34545 (Simulation time: 0 hr 11 min 53 sec) 
Heartbeat CPU 1 instructions: 60000000 cycles: 37962725 heartbeat IPC: 1.7599 cumulative IPC: 1.5805 (Simulation time: 0 hr 12 min 26 sec) 
Heartbeat CPU 0 instructions: 70000001 cycles: 38265771 heartbeat IPC: 1.82346 cumulative IPC: 1.82931 (Simulation time: 0 hr 12 min 37 sec) 
Heartbeat CPU 3 instructions: 70000001 cycles: 39415927 heartbeat IPC: 2.02538 cumulative IPC: 1.77593 (Simulation time: 0 hr 13 min 10 sec) 
Heartbeat CPU 0 instructions: 80000000 cycles: 43777146 heartbeat IPC: 1.81443 cumulative IPC: 1.82744 (Simulation time: 0 hr 14 min 44 sec) 
Heartbeat CPU 2 instructions: 60000000 cycles: 44552448 heartbeat IPC: 1.35314 cumulative IPC: 1.34673 (Simulation time: 0 hr 14 min 59 sec) 
Heartbeat CPU 1 instructions: 70000001 cycles: 44593969 heartbeat IPC: 1.50801 cumulative IPC: 1.56972 (Simulation time: 0 hr 15 min 0 sec) 
Heartbeat CPU 3 instructions: 80000000 cycles: 45582960 heartbeat IPC: 1.62153 cumulative IPC: 1.75504 (Simulation time: 0 hr 15 min 20 sec) 
Heartbeat CPU 0 instructions: 90000003 cycles: 49229348 heartbeat IPC: 1.83412 cumulative IPC: 1.82818 (Simulation time: 0 hr 16 min 48 sec) 
Heartbeat CPU 1 instructions: 80000000 cycles: 50383690 heartbeat IPC: 1.7272 cumulative IPC: 1.58782 (Simulation time: 0 hr 17 min 19 sec) 
Heartbeat CPU 3 instructions: 90000001 cycles: 51451544 heartbeat IPC: 1.70399 cumulative IPC: 1.74922 (Simulation time: 0 hr 17 min 44 sec) 
Heartbeat CPU 2 instructions: 70000000 cycles: 51998862 heartbeat IPC: 1.34293 cumulative IPC: 1.34618 (Simulation time: 0 hr 17 min 55 sec) 
Heartbeat CPU 0 instructions: 100000000 cycles: 54699802 heartbeat IPC: 1.828 cumulative IPC: 1.82816 (Simulation time: 0 hr 18 min 57 sec) 
Heartbeat CPU 1 instructions: 90000003 cycles: 55978811 heartbeat IPC: 1.78727 cumulative IPC: 1.60775 (Simulation time: 0 hr 19 min 21 sec) 
Heartbeat CPU 3 instructions: 100000000 cycles: 57726040 heartbeat IPC: 1.59375 cumulative IPC: 1.73232 (Simulation time: 0 hr 19 min 56 sec) 
Heartbeat CPU 2 instructions: 80000000 cycles: 59422106 heartbeat IPC: 1.34712 cumulative IPC: 1.3463 (Simulation time: 0 hr 20 min 37 sec) 
Heartbeat CPU 0 instructions: 110000002 cycles: 60139209 heartbeat IPC: 1.83844 cumulative IPC: 1.82909 (Simulation time: 0 hr 20 min 53 sec) 
Heartbeat CPU 1 instructions: 100000000 cycles: 62401413 heartbeat IPC: 1.557 cumulative IPC: 1.60253 (Simulation time: 0 hr 21 min 42 sec) 
Heartbeat CPU 3 instructions: 110000002 cycles: 64071213 heartbeat IPC: 1.576 cumulative IPC: 1.71684 (Simulation time: 0 hr 22 min 16 sec) 
Heartbeat CPU 0 instructions: 120000000 cycles: 65499231 heartbeat IPC: 1.86566 cumulative IPC: 1.83208 (Simulation time: 0 hr 22 min 47 sec) 
Heartbeat CPU 2 instructions: 90000002 cycles: 66873153 heartbeat IPC: 1.34209 cumulative IPC: 1.34583 (Simulation time: 0 hr 23 min 15 sec) 
Heartbeat CPU 1 instructions: 110000003 cycles: 68895259 heartbeat IPC: 1.53992 cumulative IPC: 1.59663 (Simulation time: 0 hr 23 min 54 sec) 
Heartbeat CPU 3 instructions: 120000000 cycles: 70242968 heartbeat IPC: 1.62028 cumulative IPC: 1.70836 (Simulation time: 0 hr 24 min 22 sec) 
Heartbeat CPU 0 instructions: 130000003 cycles: 70915403 heartbeat IPC: 1.84632 cumulative IPC: 1.83317 (Simulation time: 0 hr 24 min 35 sec) 
Heartbeat CPU 2 instructions: 100000000 cycles: 74305276 heartbeat IPC: 1.34551 cumulative IPC: 1.3458 (Simulation time: 0 hr 25 min 44 sec) 
Heartbeat CPU 3 instructions: 130000001 cycles: 75516078 heartbeat IPC: 1.89641 cumulative IPC: 1.72149 (Simulation time: 0 hr 26 min 8 sec) 
Heartbeat CPU 1 instructions: 120000000 cycles: 75654161 heartbeat IPC: 1.47953 cumulative IPC: 1.58617 (Simulation time: 0 hr 26 min 11 sec) 
Heartbeat CPU 0 instructions: 140000000 cycles: 76309588 heartbeat IPC: 1.85385 cumulative IPC: 1.83463 (Simulation time: 0 hr 26 min 24 sec) 
Heartbeat CPU 3 instructions: 140000000 cycles: 80452823 heartbeat IPC: 2.02563 cumulative IPC: 1.74015 (Simulation time: 0 hr 27 min 46 sec) 
Heartbeat CPU 0 instructions: 150000001 cycles: 81713104 heartbeat IPC: 1.85065 cumulative IPC: 1.83569 (Simulation time: 0 hr 28 min 11 sec) 
Heartbeat CPU 2 instructions: 110000002 cycles: 81739292 heartbeat IPC: 1.34517 cumulative IPC: 1.34574 (Simulation time: 0 hr 28 min 11 sec) 
Heartbeat CPU 1 instructions: 130000002 cycles: 81792485 heartbeat IPC: 1.62911 cumulative IPC: 1.58939 (Simulation time: 0 hr 28 min 12 sec) 
Heartbeat CPU 3 instructions: 150000001 cycles: 86803365 heartbeat IPC: 1.57467 cumulative IPC: 1.72804 (Simulation time: 0 hr 29 min 52 sec) 
Heartbeat CPU 0 instructions: 160000000 cycles: 87039037 heartbeat IPC: 1.87761 cumulative IPC: 1.83826 (Simulation time: 0 hr 29 min 56 sec) 
Heartbeat CPU 1 instructions: 140000000 cycles: 88351677 heartbeat IPC: 1.52458 cumulative IPC: 1.58458 (Simulation time: 0 hr 30 min 21 sec) 
Heartbeat CPU 2 instructions: 120000000 cycles: 89170500 heartbeat IPC: 1.34568 cumulative IPC: 1.34574 (Simulation time: 0 hr 30 min 37 sec) 
Heartbeat CPU 3 instructions: 160000000 cycles: 92298631 heartbeat IPC: 1.81975 cumulative IPC: 1.7335 (Simulation time: 0 hr 31 min 42 sec) 
Heartbeat CPU 0 instructions: 170000002 cycles: 92369254 heartbeat IPC: 1.8761 cumulative IPC: 1.84044 (Simulation time: 0 hr 31 min 44 sec) 
Heartbeat CPU 1 instructions: 150000000 cycles: 94890360 heartbeat IPC: 1.52936 cumulative IPC: 1.58077 (Simulation time: 0 hr 32 min 34 sec) 
Heartbeat CPU 2 instructions: 130000000 cycles: 96567940 heartbeat IPC: 1.35182 cumulative IPC: 1.3462 (Simulation time: 0 hr 33 min 8 sec) 
Heartbeat CPU 0 instructions: 180000000 cycles: 97699816 heartbeat IPC: 1.87597 cumulative IPC: 1.84238 (Simulation time: 0 hr 33 min 31 sec) 
Heartbeat CPU 3 instructions: 170000000 cycles: 98415410 heartbeat IPC: 1.63485 cumulative IPC: 1.72737 (Simulation time: 0 hr 33 min 46 sec) 
Heartbeat CPU 1 instructions: 160000000 cycles: 100638970 heartbeat IPC: 1.73955 cumulative IPC: 1.58984 (Simulation time: 0 hr 34 min 34 sec) 
Heartbeat CPU 0 instructions: 190000001 cycles: 103039679 heartbeat IPC: 1.87271 cumulative IPC: 1.84395 (Simulation time: 0 hr 35 min 23 sec) 
Heartbeat CPU 2 instructions: 140000000 cycles: 103995970 heartbeat IPC: 1.34625 cumulative IPC: 1.34621 (Simulation time: 0 hr 35 min 42 sec) 
Heartbeat CPU 3 instructions: 180000000 cycles: 104826765 heartbeat IPC: 1.55973 cumulative IPC: 1.71712 (Simulation time: 0 hr 35 min 58 sec) 
Heartbeat CPU 1 instructions: 170000000 cycles: 107530121 heartbeat IPC: 1.45114 cumulative IPC: 1.58095 (Simulation time: 0 hr 36 min 53 sec) 
Heartbeat CPU 0 instructions: 200000000 cycles: 108317074 heartbeat IPC: 1.89487 cumulative IPC: 1.84643 (Simulation time: 0 hr 37 min 9 sec) 
Heartbeat CPU 3 instructions: 190000001 cycles: 111033390 heartbeat IPC: 1.61118 cumulative IPC: 1.7112 (Simulation time: 0 hr 38 min 2 sec) 
Heartbeat CPU 2 instructions: 150000001 cycles: 111438980 heartbeat IPC: 1.34354 cumulative IPC: 1.34603 (Simulation time: 0 hr 38 min 11 sec) 
Heartbeat CPU 0 instructions: 210000001 cycles: 113690445 heartbeat IPC: 1.86103 cumulative IPC: 0.0879581 (Simulation time: 0 hr 38 min 55 sec) 
Heartbeat CPU 1 instructions: 180000000 cycles: 113756721 heartbeat IPC: 1.60601 cumulative IPC: 1.58232 (Simulation time: 0 hr 38 min 57 sec) 
Heartbeat CPU 3 instructions: 200000000 cycles: 116713751 heartbeat IPC: 1.76045 cumulative IPC: 1.71359 (Simulation time: 0 hr 39 min 54 sec) 
Heartbeat CPU 2 instructions: 160000000 cycles: 118876090 heartbeat IPC: 1.34461 cumulative IPC: 1.34594 (Simulation time: 0 hr 40 min 40 sec) 
Heartbeat CPU 0 instructions: 220000000 cycles: 119087803 heartbeat IPC: 1.85276 cumulative IPC: 0.167943 (Simulation time: 0 hr 40 min 44 sec) 
Heartbeat CPU 1 instructions: 190000001 cycles: 120684425 heartbeat IPC: 1.44348 cumulative IPC: 1.57435 (Simulation time: 0 hr 41 min 17 sec) 
Heartbeat CPU 3 instructions: 210000000 cycles: 121587232 heartbeat IPC: 2.05192 cumulative IPC: 0.0822455 (Simulation time: 0 hr 41 min 37 sec) 
Heartbeat CPU 0 instructions: 230000000 cycles: 124411115 heartbeat IPC: 1.87853 cumulative IPC: 0.241136 (Simulation time: 0 hr 42 min 48 sec) 
Heartbeat CPU 2 instructions: 170000003 cycles: 126285374 heartbeat IPC: 1.34966 cumulative IPC: 1.34616 (Simulation time: 0 hr 43 min 32 sec) 
Heartbeat CPU 3 instructions: 220000000 cycles: 127412108 heartbeat IPC: 1.71677 cumulative IPC: 0.156971 (Simulation time: 0 hr 43 min 57 sec) 
Heartbeat CPU 1 instructions: 200000000 cycles: 127452692 heartbeat IPC: 1.47748 cumulative IPC: 1.56921 (Simulation time: 0 hr 43 min 58 sec) 
Heartbeat CPU 0 instructions: 240000000 cycles: 129821020 heartbeat IPC: 1.84846 cumulative IPC: 0.308117 (Simulation time: 0 hr 44 min 50 sec) 
Heartbeat CPU 2 instructions: 180000000 cycles: 133713605 heartbeat IPC: 1.34622 cumulative IPC: 1.34616 (Simulation time: 0 hr 47 min 37 sec) 
Heartbeat CPU 3 instructions: 230000000 cycles: 133769530 heartbeat IPC: 1.57296 cumulative IPC: 0.224266 (Simulation time: 0 hr 47 min 39 sec) 
Heartbeat CPU 1 instructions: 210000000 cycles: 134061726 heartbeat IPC: 1.51308 cumulative IPC: 0.0745925 (Simulation time: 0 hr 47 min 51 sec) 
Heartbeat CPU 0 instructions: 250000000 cycles: 135198840 heartbeat IPC: 1.85949 cumulative IPC: 0.369826 (Simulation time: 0 hr 48 min 38 sec) 
Heartbeat CPU 3 instructions: 240000000 cycles: 139988536 heartbeat IPC: 1.60797 cumulative IPC: 0.285738 (Simulation time: 0 hr 52 min 6 sec) 
Heartbeat CPU 0 instructions: 260000000 cycles: 140462444 heartbeat IPC: 1.89984 cumulative IPC: 0.42716 (Simulation time: 0 hr 52 min 28 sec) 
Heartbeat CPU 1 instructions: 220000000 cycles: 140678276 heartbeat IPC: 1.51136 cumulative IPC: 0.142168 (Simulation time: 0 hr 52 min 37 sec) 
Heartbeat CPU 2 instructions: 190000003 cycles: 141138751 heartbeat IPC: 1.34678 cumulative IPC: 1.34619 (Simulation time: 0 hr 52 min 54 sec) 
Heartbeat CPU 0 instructions: 270000002 cycles: 145935128 heartbeat IPC: 1.82726 cumulative IPC: 0.479665 (Simulation time: 0 hr 54 min 48 sec) 
Heartbeat CPU 3 instructions: 250000001 cycles: 146136066 heartbeat IPC: 1.62667 cumulative IPC: 0.342147 (Simulation time: 0 hr 54 min 52 sec) 
Heartbeat CPU 1 instructions: 230000003 cycles: 147435737 heartbeat IPC: 1.47985 cumulative IPC: 0.203479 (Simulation time: 0 hr 55 min 17 sec) 
Heartbeat CPU 2 instructions: 200000000 cycles: 148580247 heartbeat IPC: 1.34382 cumulative IPC: 1.34607 (Simulation time: 0 hr 55 min 39 sec) 

Warmup complete CPU 0 instructions: 274751347 cycles: 148580248 (Simulation time: 0 hr 55 min 39 sec) 
Warmup complete CPU 1 instructions: 231639671 cycles: 148580248 (Simulation time: 0 hr 55 min 39 sec) 
Warmup complete CPU 2 instructions: 200000003 cycles: 148580248 (Simulation time: 0 hr 55 min 39 sec) 
Warmup complete CPU 3 instructions: 254006507 cycles: 148580247 (Simulation time: 0 hr 55 min 39 sec) 

Heartbeat CPU 3 instructions: 260000000 cycles: 162183319 heartbeat IPC: 0.62316 cumulative IPC: 0.440598 (Simulation time: 0 hr 57 min 11 sec) 
Heartbeat CPU 0 instructions: 280000000 cycles: 162221714 heartbeat IPC: 0.614002 cumulative IPC: 0.384757 (Simulation time: 0 hr 57 min 11 sec) 
Heartbeat CPU 1 instructions: 240000000 cycles: 173377167 heartbeat IPC: 0.385484 cumulative IPC: 0.337152 (Simulation time: 0 hr 58 min 31 sec) 
Heartbeat CPU 3 instructions: 270000000 cycles: 178561636 heartbeat IPC: 0.610563 cumulative IPC: 0.533447 (Simulation time: 0 hr 59 min 8 sec) 
Heartbeat CPU 0 instructions: 290000000 cycles: 188403042 heartbeat IPC: 0.381952 cumulative IPC: 0.382913 (Simulation time: 1 hr 0 min 25 sec) 
Heartbeat CPU 2 instructions: 210000003 cycles: 191947311 heartbeat IPC: 0.23059 cumulative IPC: 0.23059 (Simulation time: 1 hr 0 min 49 sec) 
Heartbeat CPU 3 instructions: 280000000 cycles: 196436196 heartbeat IPC: 0.559454 cumulative IPC: 0.543161 (Simulation time: 1 hr 1 min 21 sec) 
Heartbeat CPU 1 instructions: 250000001 cycles: 201720205 heartbeat IPC: 0.35282 cumulative IPC: 0.345509 (Simulation time: 1 hr 1 min 59 sec) 
Heartbeat CPU 0 instructions: 300000000 cycles: 214239148 heartbeat IPC: 0.387055 cumulative IPC: 0.384543 (Simulation time: 1 hr 3 min 24 sec) 
Heartbeat CPU 3 instructions: 290000000 cycles: 218058413 heartbeat IPC: 0.462487 cumulative IPC: 0.518055 (Simulation time: 1 hr 3 min 47 sec) 
Heartbeat CPU 1 instructions: 260000000 cycles: 228720405 heartbeat IPC: 0.370368 cumulative IPC: 0.353884 (Simulation time: 1 hr 4 min 54 sec) 
Heartbeat CPU 2 instructions: 220000000 cycles: 235041709 heartbeat IPC: 0.232049 cumulative IPC: 0.231317 (Simulation time: 1 hr 5 min 34 sec) 
Heartbeat CPU 0 instructions: 310000003 cycles: 240139652 heartbeat IPC: 0.386093 cumulative IPC: 0.384981 (Simulation time: 1 hr 6 min 6 sec) 
Heartbeat CPU 3 instructions: 300000000 cycles: 249892057 heartbeat IPC: 0.314133 cumulative IPC: 0.45398 (Simulation time: 1 hr 7 min 6 sec) 
Heartbeat CPU 1 instructions: 270000000 cycles: 258571661 heartbeat IPC: 0.334994 cumulative IPC: 0.348757 (Simulation time: 1 hr 8 min 0 sec) 
Heartbeat CPU 0 instructions: 320000000 cycles: 266084074 heartbeat IPC: 0.385439 cumulative IPC: 0.385082 (Simulation time: 1 hr 8 min 46 sec) 
Heartbeat CPU 3 instructions: 310000001 cycles: 278630873 heartbeat IPC: 0.347961 cumulative IPC: 0.430552 (Simulation time: 1 hr 10 min 5 sec) 
Heartbeat CPU 2 instructions: 230000001 cycles: 278666189 heartbeat IPC: 0.229229 cumulative IPC: 0.230617 (Simulation time: 1 hr 10 min 6 sec) 
Heartbeat CPU 1 instructions: 280000000 cycles: 288437775 heartbeat IPC: 0.334828 cumulative IPC: 0.345783 (Simulation time: 1 hr 11 min 9 sec) 
Heartbeat CPU 0 instructions: 330000001 cycles: 292268922 heartbeat IPC: 0.3819 cumulative IPC: 0.384503 (Simulation time: 1 hr 11 min 32 sec) 
Heartbeat CPU 3 instructions: 320000000 cycles: 307275143 heartbeat IPC: 0.34911 cumulative IPC: 0.415851 (Simulation time: 1 hr 13 min 5 sec) 
Heartbeat CPU 1 instructions: 290000001 cycles: 317570715 heartbeat IPC: 0.343254 cumulative IPC: 0.345347 (Simulation time: 1 hr 14 min 10 sec) 
Heartbeat CPU 0 instructions: 340000000 cycles: 318745756 heartbeat IPC: 0.377689 cumulative IPC: 0.383442 (Simulation time: 1 hr 14 min 17 sec) 
Heartbeat CPU 2 instructions: 240000000 cycles: 322759662 heartbeat IPC: 0.226791 cumulative IPC: 0.229648 (Simulation time: 1 hr 14 min 42 sec) 
Heartbeat CPU 3 instructions: 330000000 cycles: 337057272 heartbeat IPC: 0.335772 cumulative IPC: 0.403198 (Simulation time: 1 hr 16 min 12 sec) 
Heartbeat CPU 0 instructions: 350000000 cycles: 345140093 heartbeat IPC: 0.378869 cumulative IPC: 0.382828 (Simulation time: 1 hr 17 min 6 sec) 
Heartbeat CPU 1 instructions: 300000000 cycles: 345791179 heartbeat IPC: 0.354353 cumulative IPC: 0.346636 (Simulation time: 1 hr 17 min 10 sec) 
Heartbeat CPU 3 instructions: 340000000 cycles: 364431024 heartbeat IPC: 0.365313 cumulative IPC: 0.398393 (Simulation time: 1 hr 19 min 10 sec) 
Heartbeat CPU 2 instructions: 250000001 cycles: 365838751 heartbeat IPC: 0.232131 cumulative IPC: 0.230141 (Simulation time: 1 hr 19 min 20 sec) 
Heartbeat CPU 1 instructions: 310000000 cycles: 370979134 heartbeat IPC: 0.397015 cumulative IPC: 0.352341 (Simulation time: 1 hr 19 min 53 sec) 
Heartbeat CPU 0 instructions: 360000000 cycles: 371549663 heartbeat IPC: 0.378651 cumulative IPC: 0.382333 (Simulation time: 1 hr 19 min 56 sec) 
Heartbeat CPU 3 instructions: 350000002 cycles: 390220761 heartbeat IPC: 0.387751 cumulative IPC: 0.397257 (Simulation time: 1 hr 22 min 0 sec) 
Heartbeat CPU 0 instructions: 370000000 cycles: 397797568 heartbeat IPC: 0.380983 cumulative IPC: 0.382191 (Simulation time: 1 hr 22 min 50 sec) 
Heartbeat CPU 1 instructions: 320000000 cycles: 400418028 heartbeat IPC: 0.339687 cumulative IPC: 0.350862 (Simulation time: 1 hr 23 min 7 sec) 
Heartbeat CPU 2 instructions: 260000000 cycles: 409126047 heartbeat IPC: 0.231015 cumulative IPC: 0.230286 (Simulation time: 1 hr 24 min 4 sec) 
Heartbeat CPU 3 instructions: 360000000 cycles: 414778210 heartbeat IPC: 0.407208 cumulative IPC: 0.398175 (Simulation time: 1 hr 24 min 42 sec) 
Heartbeat CPU 0 instructions: 380000000 cycles: 424225257 heartbeat IPC: 0.378391 cumulative IPC: 0.381827 (Simulation time: 1 hr 25 min 48 sec) 
Heartbeat CPU 1 instructions: 330000002 cycles: 430829520 heartbeat IPC: 0.328823 cumulative IPC: 0.348487 (Simulation time: 1 hr 26 min 31 sec) 
Heartbeat CPU 3 instructions: 370000000 cycles: 438379516 heartbeat IPC: 0.423705 cumulative IPC: 0.400255 (Simulation time: 1 hr 27 min 22 sec) 
Heartbeat CPU 0 instructions: 390000002 cycles: 450435008 heartbeat IPC: 0.381537 cumulative IPC: 0.381802 (Simulation time: 1 hr 28 min 50 sec) 
Heartbeat CPU 2 instructions: 270000002 cycles: 452433588 heartbeat IPC: 0.230907 cumulative IPC: 0.230374 (Simulation time: 1 hr 29 min 5 sec) 
Heartbeat CPU 3 instructions: 380000000 cycles: 454682270 heartbeat IPC: 0.613393 cumulative IPC: 0.411606 (Simulation time: 1 hr 29 min 22 sec) 
Heartbeat CPU 1 instructions: 340000000 cycles: 461455812 heartbeat IPC: 0.326517 cumulative IPC: 0.346337 (Simulation time: 1 hr 30 min 12 sec) 
Heartbeat CPU 3 instructions: 390000000 cycles: 470669412 heartbeat IPC: 0.625503 cumulative IPC: 0.422223 (Simulation time: 1 hr 31 min 19 sec) 
Heartbeat CPU 0 instructions: 400000000 cycles: 476545121 heartbeat IPC: 0.382993 cumulative IPC: 0.381897 (Simulation time: 1 hr 32 min 0 sec) 
Heartbeat CPU 3 instructions: 400000000 cycles: 488277516 heartbeat IPC: 0.56792 cumulative IPC: 0.429775 (Simulation time: 1 hr 33 min 23 sec) 
Heartbeat CPU 1 instructions: 350000000 cycles: 490194422 heartbeat IPC: 0.347964 cumulative IPC: 0.346474 (Simulation time: 1 hr 33 min 36 sec) 
Heartbeat CPU 2 instructions: 280000000 cycles: 496153132 heartbeat IPC: 0.228731 cumulative IPC: 0.230168 (Simulation time: 1 hr 34 min 17 sec) 
Heartbeat CPU 0 instructions: 410000003 cycles: 502626176 heartbeat IPC: 0.38342 cumulative IPC: 0.382009 (Simulation time: 1 hr 35 min 0 sec) 
Heartbeat CPU 3 instructions: 410000001 cycles: 508247621 heartbeat IPC: 0.500749 cumulative IPC: 0.433716 (Simulation time: 1 hr 35 min 39 sec) 
Heartbeat CPU 1 instructions: 360000000 cycles: 521354813 heartbeat IPC: 0.32092 cumulative IPC: 0.344338 (Simulation time: 1 hr 37 min 3 sec) 
Heartbeat CPU 0 instructions: 420000000 cycles: 528860351 heartbeat IPC: 0.381182 cumulative IPC: 0.381952 (Simulation time: 1 hr 37 min 49 sec) 
Heartbeat CPU 3 instructions: 420000000 cycles: 535649396 heartbeat IPC: 0.36494 cumulative IPC: 0.428847 (Simulation time: 1 hr 38 min 29 sec) 
Heartbeat CPU 2 instructions: 290000001 cycles: 539536303 heartbeat IPC: 0.230504 cumulative IPC: 0.230205 (Simulation time: 1 hr 38 min 53 sec) 
Heartbeat CPU 1 instructions: 370000000 cycles: 551075064 heartbeat IPC: 0.336471 cumulative IPC: 0.343757 (Simulation time: 1 hr 40 min 6 sec) 
Heartbeat CPU 0 instructions: 430000001 cycles: 554949886 heartbeat IPC: 0.383295 cumulative IPC: 0.382038 (Simulation time: 1 hr 40 min 32 sec) 
Heartbeat CPU 3 instructions: 430000002 cycles: 566603846 heartbeat IPC: 0.323055 cumulative IPC: 0.421013 (Simulation time: 1 hr 41 min 52 sec) 
Heartbeat CPU 1 instructions: 380000000 cycles: 575138763 heartbeat IPC: 0.415564 cumulative IPC: 0.347808 (Simulation time: 1 hr 42 min 58 sec) 
Heartbeat CPU 0 instructions: 440000000 cycles: 581056065 heartbeat IPC: 0.383051 cumulative IPC: 0.382099 (Simulation time: 1 hr 44 min 22 sec) 
Heartbeat CPU 2 instructions: 300000000 cycles: 582273536 heartbeat IPC: 0.233988 cumulative IPC: 0.230578 (Simulation time: 1 hr 44 min 39 sec) 
Heartbeat CPU 3 instructions: 440000000 cycles: 594476728 heartbeat IPC: 0.358772 cumulative IPC: 0.417123 (Simulation time: 1 hr 47 min 31 sec) 
Heartbeat CPU 1 instructions: 390000000 cycles: 598825922 heartbeat IPC: 0.42217 cumulative IPC: 0.35172 (Simulation time: 1 hr 48 min 33 sec) 
Heartbeat CPU 0 instructions: 450000000 cycles: 606976704 heartbeat IPC: 0.385793 cumulative IPC: 0.382308 (Simulation time: 1 hr 50 min 31 sec) 
Heartbeat CPU 3 instructions: 450000000 cycles: 618971334 heartbeat IPC: 0.408253 cumulative IPC: 0.416661 (Simulation time: 1 hr 53 min 25 sec) 
Heartbeat CPU 2 instructions: 310000000 cycles: 625724344 heartbeat IPC: 0.230145 cumulative IPC: 0.230538 (Simulation time: 1 hr 55 min 7 sec) 
Heartbeat CPU 1 instructions: 400000000 cycles: 628498614 heartbeat IPC: 0.33701 cumulative IPC: 0.35081 (Simulation time: 1 hr 55 min 47 sec) 
Heartbeat CPU 0 instructions: 460000000 cycles: 632897337 heartbeat IPC: 0.385793 cumulative IPC: 0.382495 (Simulation time: 1 hr 56 min 53 sec) 
Heartbeat CPU 3 instructions: 460000000 cycles: 637643945 heartbeat IPC: 0.535544 cumulative IPC: 0.4212 (Simulation time: 1 hr 57 min 53 sec) 
Heartbeat CPU 1 instructions: 410000000 cycles: 657129313 heartbeat IPC: 0.349275 cumulative IPC: 0.350724 (Simulation time: 2 hr 0 min 5 sec) 
Heartbeat CPU 0 instructions: 470000001 cycles: 659115889 heartbeat IPC: 0.381409 cumulative IPC: 0.382439 (Simulation time: 2 hr 0 min 18 sec) 
Heartbeat CPU 3 instructions: 470000000 cycles: 665744241 heartbeat IPC: 0.355868 cumulative IPC: 0.41765 (Simulation time: 2 hr 1 min 3 sec) 
Heartbeat CPU 2 instructions: 320000000 cycles: 668664470 heartbeat IPC: 0.232882 cumulative IPC: 0.230732 (Simulation time: 2 hr 1 min 24 sec) 
Heartbeat CPU 1 instructions: 420000000 cycles: 684293003 heartbeat IPC: 0.368138 cumulative IPC: 0.351607 (Simulation time: 2 hr 3 min 9 sec) 
Heartbeat CPU 0 instructions: 480000000 cycles: 685010000 heartbeat IPC: 0.386188 cumulative IPC: 0.38262 (Simulation time: 2 hr 3 min 14 sec) 
Heartbeat CPU 3 instructions: 480000000 cycles: 695504605 heartbeat IPC: 0.336017 cumulative IPC: 0.413208 (Simulation time: 2 hr 4 min 21 sec) 
Heartbeat CPU 0 instructions: 490000002 cycles: 711020886 heartbeat IPC: 0.384454 cumulative IPC: 0.382705 (Simulation time: 2 hr 6 min 6 sec) 
Heartbeat CPU 2 instructions: 330000000 cycles: 711822291 heartbeat IPC: 0.231708 cumulative IPC: 0.230807 (Simulation time: 2 hr 6 min 12 sec) 
Heartbeat CPU 1 instructions: 430000000 cycles: 714210927 heartbeat IPC: 0.334248 cumulative IPC: 0.350689 (Simulation time: 2 hr 6 min 29 sec) 
Heartbeat CPU 3 instructions: 490000001 cycles: 720261676 heartbeat IPC: 0.403925 cumulative IPC: 0.412806 (Simulation time: 2 hr 7 min 11 sec) 
Heartbeat CPU 0 instructions: 500000000 cycles: 737116791 heartbeat IPC: 0.383202 cumulative IPC: 0.382727 (Simulation time: 2 hr 9 min 9 sec) 
Heartbeat CPU 1 instructions: 440000000 cycles: 741032174 heartbeat IPC: 0.372839 cumulative IPC: 0.351692 (Simulation time: 2 hr 9 min 33 sec) 
Heartbeat CPU 3 instructions: 500000000 cycles: 746712218 heartbeat IPC: 0.378064 cumulative IPC: 0.41127 (Simulation time: 2 hr 10 min 11 sec) 
Heartbeat CPU 2 instructions: 340000000 cycles: 753572664 heartbeat IPC: 0.239519 cumulative IPC: 0.231408 (Simulation time: 2 hr 10 min 55 sec) 
Heartbeat CPU 0 instructions: 510000002 cycles: 763146651 heartbeat IPC: 0.384174 cumulative IPC: 0.382788 (Simulation time: 2 hr 12 min 0 sec) 
Heartbeat CPU 1 instructions: 450000000 cycles: 769095719 heartbeat IPC: 0.356334 cumulative IPC: 0.351902 (Simulation time: 2 hr 12 min 39 sec) 
Heartbeat CPU 3 instructions: 510000001 cycles: 777602050 heartbeat IPC: 0.323731 cumulative IPC: 0.406971 (Simulation time: 2 hr 13 min 37 sec) 
Heartbeat CPU 0 instructions: 520000000 cycles: 789158044 heartbeat IPC: 0.384447 cumulative IPC: 0.382855 (Simulation time: 2 hr 14 min 56 sec) 
Heartbeat CPU 1 instructions: 460000000 cycles: 794472561 heartbeat IPC: 0.39406 cumulative IPC: 0.353558 (Simulation time: 2 hr 15 min 33 sec) 
Heartbeat CPU 2 instructions: 350000000 cycles: 797011186 heartbeat IPC: 0.23021 cumulative IPC: 0.231328 (Simulation time: 2 hr 15 min 55 sec) 
Heartbeat CPU 3 instructions: 520000000 cycles: 805633212 heartbeat IPC: 0.356746 cumulative IPC: 0.404828 (Simulation time: 2 hr 16 min 53 sec) 
Heartbeat CPU 0 instructions: 530000000 cycles: 815314139 heartbeat IPC: 0.38232 cumulative IPC: 0.382834 (Simulation time: 2 hr 18 min 0 sec) 
Heartbeat CPU 1 instructions: 470000000 cycles: 822731530 heartbeat IPC: 0.35387 cumulative IPC: 0.353571 (Simulation time: 2 hr 18 min 50 sec) 
Heartbeat CPU 3 instructions: 530000001 cycles: 831882107 heartbeat IPC: 0.380968 cumulative IPC: 0.403912 (Simulation time: 2 hr 19 min 53 sec) 
Heartbeat CPU 2 instructions: 360000000 cycles: 839894791 heartbeat IPC: 0.233189 cumulative IPC: 0.231443 (Simulation time: 2 hr 20 min 49 sec) 
Heartbeat CPU 0 instructions: 540000000 cycles: 841433903 heartbeat IPC: 0.382852 cumulative IPC: 0.382835 (Simulation time: 2 hr 20 min 59 sec) 
Heartbeat CPU 1 instructions: 480000000 cycles: 852700681 heartbeat IPC: 0.333676 cumulative IPC: 0.352724 (Simulation time: 2 hr 22 min 18 sec) 
Heartbeat CPU 3 instructions: 540000000 cycles: 856790450 heartbeat IPC: 0.401472 cumulative IPC: 0.403826 (Simulation time: 2 hr 22 min 47 sec) 
Heartbeat CPU 0 instructions: 550000001 cycles: 867478301 heartbeat IPC: 0.38396 cumulative IPC: 0.382876 (Simulation time: 2 hr 24 min 4 sec) 
Heartbeat CPU 3 instructions: 550000003 cycles: 880687175 heartbeat IPC: 0.418468 cumulative IPC: 0.404304 (Simulation time: 2 hr 25 min 35 sec) 
Heartbeat CPU 1 instructions: 490000000 cycles: 882392524 heartbeat IPC: 0.336793 cumulative IPC: 0.35208 (Simulation time: 2 hr 25 min 48 sec) 
Heartbeat CPU 2 instructions: 370000000 cycles: 882798440 heartbeat IPC: 0.23308 cumulative IPC: 0.231539 (Simulation time: 2 hr 25 min 51 sec) 
Heartbeat CPU 0 instructions: 560000000 cycles: 893524414 heartbeat IPC: 0.383934 cumulative IPC: 0.382913 (Simulation time: 2 hr 27 min 6 sec) 
Heartbeat CPU 3 instructions: 560000000 cycles: 903799743 heartbeat IPC: 0.432665 cumulative IPC: 0.405172 (Simulation time: 2 hr 28 min 17 sec) 
Heartbeat CPU 1 instructions: 500000000 cycles: 911739708 heartbeat IPC: 0.340748 cumulative IPC: 0.351644 (Simulation time: 2 hr 29 min 17 sec) 
Heartbeat CPU 3 instructions: 570000003 cycles: 919340072 heartbeat IPC: 0.643487 cumulative IPC: 0.409977 (Simulation time: 2 hr 30 min 15 sec) 
Heartbeat CPU 0 instructions: 570000002 cycles: 919449890 heartbeat IPC: 0.385721 cumulative IPC: 0.383007 (Simulation time: 2 hr 30 min 16 sec) 
Heartbeat CPU 2 instructions: 380000000 cycles: 925521657 heartbeat IPC: 0.234065 cumulative IPC: 0.231678 (Simulation time: 2 hr 31 min 2 sec) 
Heartbeat CPU 3 instructions: 580000000 cycles: 934861387 heartbeat IPC: 0.644275 cumulative IPC: 0.414602 (Simulation time: 2 hr 32 min 15 sec) 
Heartbeat CPU 1 instructions: 510000000 cycles: 937011547 heartbeat IPC: 0.395697 cumulative IPC: 0.353056 (Simulation time: 2 hr 32 min 31 sec) 
Heartbeat CPU 0 instructions: 580000000 cycles: 945394203 heartbeat IPC: 0.385441 cumulative IPC: 0.383086 (Simulation time: 2 hr 33 min 33 sec) 
Heartbeat CPU 3 instructions: 590000000 cycles: 951715714 heartbeat IPC: 0.593319 cumulative IPC: 0.418352 (Simulation time: 2 hr 34 min 21 sec) 
Heartbeat CPU 1 instructions: 520000000 cycles: 961935355 heartbeat IPC: 0.401223 cumulative IPC: 0.354532 (Simulation time: 2 hr 35 min 35 sec) 
Heartbeat CPU 2 instructions: 390000000 cycles: 968233651 heartbeat IPC: 0.234126 cumulative IPC: 0.231805 (Simulation time: 2 hr 36 min 20 sec) 
Heartbeat CPU 3 instructions: 600000000 cycles: 970300617 heartbeat IPC: 0.538071 cumulative IPC: 0.42106 (Simulation time: 2 hr 36 min 35 sec) 
Heartbeat CPU 0 instructions: 590000002 cycles: 971479921 heartbeat IPC: 0.383352 cumulative IPC: 0.383095 (Simulation time: 2 hr 36 min 43 sec) 
Heartbeat CPU 1 instructions: 530000001 cycles: 990931351 heartbeat IPC: 0.344875 cumulative IPC: 0.354199 (Simulation time: 2 hr 38 min 57 sec) 
Heartbeat CPU 3 instructions: 610000000 cycles: 992274478 heartbeat IPC: 0.455086 cumulative IPC: 0.421946 (Simulation time: 2 hr 39 min 6 sec) 
Heartbeat CPU 0 instructions: 600000000 cycles: 997503373 heartbeat IPC: 0.384269 cumulative IPC: 0.383131 (Simulation time: 2 hr 39 min 42 sec) 
Heartbeat CPU 2 instructions: 400000000 cycles: 1010867439 heartbeat IPC: 0.234556 cumulative IPC: 0.231941 (Simulation time: 2 hr 41 min 10 sec) 
Heartbeat CPU 1 instructions: 540000000 cycles: 1018492824 heartbeat IPC: 0.362825 cumulative IPC: 0.354473 (Simulation time: 2 hr 41 min 58 sec) 
Heartbeat CPU 3 instructions: 620000000 cycles: 1022265160 heartbeat IPC: 0.333437 cumulative IPC: 0.418908 (Simulation time: 2 hr 42 min 24 sec) 
Heartbeat CPU 0 instructions: 610000000 cycles: 1023589846 heartbeat IPC: 0.38334 cumulative IPC: 0.383137 (Simulation time: 2 hr 42 min 33 sec) 
Heartbeat CPU 1 instructions: 550000000 cycles: 1047542991 heartbeat IPC: 0.344232 cumulative IPC: 0.354142 (Simulation time: 2 hr 45 min 9 sec) 
Heartbeat CPU 0 instructions: 620000000 cycles: 1049854434 heartbeat IPC: 0.380741 cumulative IPC: 0.383067 (Simulation time: 2 hr 45 min 24 sec) 
Heartbeat CPU 3 instructions: 630000002 cycles: 1053340673 heartbeat IPC: 0.321797 cumulative IPC: 0.415572 (Simulation time: 2 hr 45 min 48 sec) 
Heartbeat CPU 2 instructions: 410000000 cycles: 1053430795 heartbeat IPC: 0.234944 cumulative IPC: 0.232083 (Simulation time: 2 hr 45 min 49 sec) 
Heartbeat CPU 1 instructions: 560000000 cycles: 1069055278 heartbeat IPC: 0.464851 cumulative IPC: 0.356729 (Simulation time: 2 hr 47 min 33 sec) 
Heartbeat CPU 0 instructions: 630000000 cycles: 1076088390 heartbeat IPC: 0.381185 cumulative IPC: 0.383014 (Simulation time: 2 hr 48 min 20 sec) 
Heartbeat CPU 3 instructions: 640000000 cycles: 1085019771 heartbeat IPC: 0.315665 cumulative IPC: 0.412193 (Simulation time: 2 hr 49 min 20 sec) 
Heartbeat CPU 1 instructions: 570000001 cycles: 1095416175 heartbeat IPC: 0.37935 cumulative IPC: 0.357359 (Simulation time: 2 hr 50 min 29 sec) 
Heartbeat CPU 2 instructions: 420000000 cycles: 1096716710 heartbeat IPC: 0.231022 cumulative IPC: 0.232034 (Simulation time: 2 hr 50 min 38 sec) 
Heartbeat CPU 0 instructions: 640000000 cycles: 1102350465 heartbeat IPC: 0.380777 cumulative IPC: 0.382952 (Simulation time: 2 hr 51 min 15 sec) 
Heartbeat CPU 3 instructions: 650000000 cycles: 1113948075 heartbeat IPC: 0.345682 cumulative IPC: 0.4102 (Simulation time: 2 hr 52 min 32 sec) 
Heartbeat CPU 1 instructions: 580000000 cycles: 1126152924 heartbeat IPC: 0.325343 cumulative IPC: 0.356352 (Simulation time: 2 hr 53 min 54 sec) 
Heartbeat CPU 0 instructions: 650000003 cycles: 1128554763 heartbeat IPC: 0.381617 cumulative IPC: 0.382917 (Simulation time: 2 hr 54 min 10 sec) 
Heartbeat CPU 2 instructions: 430000000 cycles: 1139972010 heartbeat IPC: 0.231186 cumulative IPC: 0.231997 (Simulation time: 2 hr 55 min 28 sec) 
Heartbeat CPU 3 instructions: 660000000 cycles: 1140812491 heartbeat IPC: 0.37224 cumulative IPC: 0.409172 (Simulation time: 2 hr 55 min 34 sec) 
Heartbeat CPU 0 instructions: 660000000 cycles: 1154775761 heartbeat IPC: 0.381374 cumulative IPC: 0.382877 (Simulation time: 2 hr 57 min 5 sec) 
Heartbeat CPU 1 instructions: 590000000 cycles: 1156057738 heartbeat IPC: 0.334394 cumulative IPC: 0.355701 (Simulation time: 2 hr 57 min 13 sec) 
Heartbeat CPU 3 instructions: 670000003 cycles: 1166125111 heartbeat IPC: 0.39506 cumulative IPC: 0.408821 (Simulation time: 2 hr 58 min 19 sec) 
Heartbeat CPU 0 instructions: 670000000 cycles: 1180910112 heartbeat IPC: 0.382638 cumulative IPC: 0.38287 (Simulation time: 2 hr 59 min 57 sec) 
Heartbeat CPU 2 instructions: 440000000 cycles: 1183230135 heartbeat IPC: 0.23117 cumulative IPC: 0.231963 (Simulation time: 3 hr 0 min 13 sec) 
Heartbeat CPU 1 instructions: 600000000 cycles: 1185317046 heartbeat IPC: 0.341772 cumulative IPC: 0.355307 (Simulation time: 3 hr 0 min 26 sec) 
Heartbeat CPU 3 instructions: 680000000 cycles: 1189027256 heartbeat IPC: 0.43664 cumulative IPC: 0.409433 (Simulation time: 3 hr 0 min 52 sec) 
Heartbeat CPU 3 instructions: 690000000 cycles: 1204955950 heartbeat IPC: 0.627798 cumulative IPC: 0.412726 (Simulation time: 3 hr 2 min 45 sec) 
Heartbeat CPU 0 instructions: 680000000 cycles: 1206940278 heartbeat IPC: 0.38417 cumulative IPC: 0.382902 (Simulation time: 3 hr 2 min 59 sec) 
Heartbeat CPU 1 instructions: 610000000 cycles: 1215868292 heartbeat IPC: 0.327319 cumulative IPC: 0.354506 (Simulation time: 3 hr 4 min 0 sec) 
Heartbeat CPU 3 instructions: 700000000 cycles: 1222632493 heartbeat IPC: 0.565721 cumulative IPC: 0.415244 (Simulation time: 3 hr 4 min 46 sec) 
Heartbeat CPU 2 instructions: 450000000 cycles: 1226150244 heartbeat IPC: 0.232991 cumulative IPC: 0.232003 (Simulation time: 3 hr 5 min 9 sec) 
Heartbeat CPU 0 instructions: 690000000 cycles: 1232963892 heartbeat IPC: 0.384266 cumulative IPC: 0.382935 (Simulation time: 3 hr 5 min 57 sec) 
Heartbeat CPU 1 instructions: 620000000 cycles: 1241061847 heartbeat IPC: 0.396927 cumulative IPC: 0.355485 (Simulation time: 3 hr 6 min 49 sec) 
Heartbeat CPU 3 instructions: 710000001 cycles: 1244039894 heartbeat IPC: 0.467128 cumulative IPC: 0.416258 (Simulation time: 3 hr 7 min 7 sec) 
Heartbeat CPU 0 instructions: 700000000 cycles: 1259157484 heartbeat IPC: 0.381773 cumulative IPC: 0.382908 (Simulation time: 3 hr 8 min 41 sec) 
Heartbeat CPU 1 instructions: 630000000 cycles: 1266596680 heartbeat IPC: 0.391622 cumulative IPC: 0.35631 (Simulation time: 3 hr 9 min 29 sec) 
Heartbeat CPU 2 instructions: 460000000 cycles: 1269349354 heartbeat IPC: 0.231486 cumulative IPC: 0.231984 (Simulation time: 3 hr 9 min 47 sec) 
Heartbeat CPU 3 instructions: 720000000 cycles: 1274808336 heartbeat IPC: 0.325008 cumulative IPC: 0.413765 (Simulation time: 3 hr 10 min 24 sec) 
Heartbeat CPU 0 instructions: 710000001 cycles: 1285188262 heartbeat IPC: 0.384161 cumulative IPC: 0.382936 (Simulation time: 3 hr 11 min 33 sec) 
Heartbeat CPU 1 instructions: 640000000 cycles: 1296977480 heartbeat IPC: 0.329155 cumulative IPC: 0.355592 (Simulation time: 3 hr 12 min 54 sec) 
Heartbeat CPU 3 instructions: 730000000 cycles: 1303849324 heartbeat IPC: 0.344341 cumulative IPC: 0.41202 (Simulation time: 3 hr 13 min 37 sec) 
Heartbeat CPU 0 instructions: 720000000 cycles: 1311574806 heartbeat IPC: 0.378981 cumulative IPC: 0.382847 (Simulation time: 3 hr 14 min 27 sec) 
Heartbeat CPU 2 instructions: 470000000 cycles: 1312477357 heartbeat IPC: 0.231868 cumulative IPC: 0.231979 (Simulation time: 3 hr 14 min 33 sec) 
Heartbeat CPU 1 instructions: 650000002 cycles: 1324347097 heartbeat IPC: 0.365369 cumulative IPC: 0.355819 (Simulation time: 3 hr 15 min 54 sec) 
Heartbeat CPU 3 instructions: 740000000 cycles: 1335459683 heartbeat IPC: 0.316352 cumulative IPC: 0.409472 (Simulation time: 3 hr 17 min 8 sec) 
Heartbeat CPU 0 instructions: 730000002 cycles: 1337687941 heartbeat IPC: 0.382949 cumulative IPC: 0.382849 (Simulation time: 3 hr 17 min 22 sec) 
Heartbeat CPU 1 instructions: 660000000 cycles: 1355010622 heartbeat IPC: 0.32612 cumulative IPC: 0.355064 (Simulation time: 3 hr 19 min 11 sec) 
Heartbeat CPU 2 instructions: 480000000 cycles: 1355759038 heartbeat IPC: 0.231045 cumulative IPC: 0.231946 (Simulation time: 3 hr 19 min 15 sec) 
Heartbeat CPU 0 instructions: 740000000 cycles: 1363811070 heartbeat IPC: 0.382802 cumulative IPC: 0.382848 (Simulation time: 3 hr 20 min 7 sec) 
Heartbeat CPU 3 instructions: 750000002 cycles: 1368100788 heartbeat IPC: 0.306362 cumulative IPC: 0.406712 (Simulation time: 3 hr 20 min 33 sec) 
Heartbeat CPU 1 instructions: 670000000 cycles: 1382982608 heartbeat IPC: 0.357501 cumulative IPC: 0.355119 (Simulation time: 3 hr 22 min 23 sec) 
Heartbeat CPU 0 instructions: 750000000 cycles: 1390104350 heartbeat IPC: 0.380325 cumulative IPC: 0.382795 (Simulation time: 3 hr 23 min 11 sec) 
Heartbeat CPU 2 instructions: 490000000 cycles: 1400467282 heartbeat IPC: 0.223672 cumulative IPC: 0.23165 (Simulation time: 3 hr 24 min 19 sec) 
Heartbeat CPU 3 instructions: 760000000 cycles: 1400867681 heartbeat IPC: 0.305186 cumulative IPC: 0.404055 (Simulation time: 3 hr 24 min 22 sec) 
Heartbeat CPU 1 instructions: 680000000 cycles: 1411114536 heartbeat IPC: 0.355468 cumulative IPC: 0.355127 (Simulation time: 3 hr 25 min 43 sec) 
Heartbeat CPU 0 instructions: 760000000 cycles: 1416458109 heartbeat IPC: 0.379452 cumulative IPC: 0.382725 (Simulation time: 3 hr 26 min 18 sec) 
Heartbeat CPU 3 instructions: 770000001 cycles: 1430919135 heartbeat IPC: 0.332763 cumulative IPC: 0.402385 (Simulation time: 3 hr 27 min 54 sec) 
Heartbeat CPU 0 instructions: 770000000 cycles: 1442592336 heartbeat IPC: 0.38264 cumulative IPC: 0.382723 (Simulation time: 3 hr 29 min 10 sec) 
Heartbeat CPU 1 instructions: 690000002 cycles: 1442611598 heartbeat IPC: 0.31749 cumulative IPC: 0.354211 (Simulation time: 3 hr 29 min 10 sec) 
Heartbeat CPU 2 instructions: 500000000 cycles: 1443676054 heartbeat IPC: 0.231434 cumulative IPC: 0.231643 (Simulation time: 3 hr 29 min 17 sec) 
Heartbeat CPU 3 instructions: 780000000 cycles: 1458453986 heartbeat IPC: 0.363176 cumulative IPC: 0.40156 (Simulation time: 3 hr 30 min 57 sec) 
Heartbeat CPU 0 instructions: 780000000 cycles: 1468885833 heartbeat IPC: 0.380322 cumulative IPC: 0.382676 (Simulation time: 3 hr 32 min 7 sec) 
Heartbeat CPU 1 instructions: 700000000 cycles: 1472477317 heartbeat IPC: 0.334832 cumulative IPC: 0.353774 (Simulation time: 3 hr 32 min 31 sec) 
Heartbeat CPU 3 instructions: 790000000 cycles: 1484064348 heartbeat IPC: 0.390467 cumulative IPC: 0.401348 (Simulation time: 3 hr 33 min 47 sec) 
Heartbeat CPU 2 instructions: 510000000 cycles: 1487802955 heartbeat IPC: 0.226619 cumulative IPC: 0.231478 (Simulation time: 3 hr 34 min 14 sec) 
Heartbeat CPU 0 instructions: 790000000 cycles: 1495209468 heartbeat IPC: 0.379887 cumulative IPC: 0.382621 (Simulation time: 3 hr 35 min 9 sec) 
Heartbeat CPU 3 instructions: 800000000 cycles: 1501737199 heartbeat IPC: 0.56584 cumulative IPC: 0.403496 (Simulation time: 3 hr 35 min 57 sec) 
Heartbeat CPU 1 instructions: 710000000 cycles: 1502779441 heartbeat IPC: 0.33001 cumulative IPC: 0.353242 (Simulation time: 3 hr 36 min 6 sec) 
Heartbeat CPU 0 instructions: 800000000 cycles: 1521425103 heartbeat IPC: 0.381452 cumulative IPC: 0.382599 (Simulation time: 3 hr 38 min 22 sec) 
Heartbeat CPU 3 instructions: 810000000 cycles: 1522884393 heartbeat IPC: 0.472876 cumulative IPC: 0.404564 (Simulation time: 3 hr 38 min 33 sec) 
Heartbeat CPU 2 instructions: 520000000 cycles: 1531671561 heartbeat IPC: 0.227953 cumulative IPC: 0.231366 (Simulation time: 3 hr 39 min 32 sec) 
Heartbeat CPU 1 instructions: 720000000 cycles: 1533461431 heartbeat IPC: 0.325924 cumulative IPC: 0.352637 (Simulation time: 3 hr 39 min 43 sec) 
Heartbeat CPU 0 instructions: 810000000 cycles: 1547785000 heartbeat IPC: 0.379364 cumulative IPC: 0.382538 (Simulation time: 3 hr 41 min 24 sec) 
Heartbeat CPU 3 instructions: 820000000 cycles: 1554162298 heartbeat IPC: 0.319715 cumulative IPC: 0.402676 (Simulation time: 3 hr 42 min 6 sec) 
Heartbeat CPU 1 instructions: 730000000 cycles: 1563498943 heartbeat IPC: 0.332917 cumulative IPC: 0.352218 (Simulation time: 3 hr 43 min 6 sec) 
Heartbeat CPU 0 instructions: 820000000 cycles: 1574058381 heartbeat IPC: 0.380613 cumulative IPC: 0.382502 (Simulation time: 3 hr 44 min 15 sec) 
Heartbeat CPU 2 instructions: 530000001 cycles: 1575171265 heartbeat IPC: 0.229887 cumulative IPC: 0.231321 (Simulation time: 3 hr 44 min 23 sec) 
Heartbeat CPU 3 instructions: 830000000 cycles: 1581996018 heartbeat IPC: 0.359276 cumulative IPC: 0.401833 (Simulation time: 3 hr 45 min 6 sec) 
Heartbeat CPU 1 instructions: 740000000 cycles: 1589741404 heartbeat IPC: 0.381062 cumulative IPC: 0.352744 (Simulation time: 3 hr 46 min 0 sec) 
Heartbeat CPU 0 instructions: 830000002 cycles: 1600486379 heartbeat IPC: 0.378387 cumulative IPC: 0.382427 (Simulation time: 3 hr 47 min 9 sec) 
Heartbeat CPU 1 instructions: 750000002 cycles: 1613254000 heartbeat IPC: 0.425304 cumulative IPC: 0.353908 (Simulation time: 3 hr 48 min 34 sec) 
Heartbeat CPU 3 instructions: 840000000 cycles: 1614607049 heartbeat IPC: 0.306645 cumulative IPC: 0.399715 (Simulation time: 3 hr 48 min 43 sec) 
Heartbeat CPU 2 instructions: 540000000 cycles: 1619357104 heartbeat IPC: 0.226317 cumulative IPC: 0.23117 (Simulation time: 3 hr 49 min 16 sec) 
Heartbeat CPU 0 instructions: 840000000 cycles: 1626494710 heartbeat IPC: 0.384492 cumulative IPC: 0.382464 (Simulation time: 3 hr 50 min 3 sec) 
Heartbeat CPU 1 instructions: 760000000 cycles: 1637752308 heartbeat IPC: 0.408191 cumulative IPC: 0.354801 (Simulation time: 3 hr 51 min 27 sec) 
Heartbeat CPU 3 instructions: 850000000 cycles: 1643662312 heartbeat IPC: 0.344172 cumulative IPC: 0.398636 (Simulation time: 3 hr 52 min 14 sec) 
Heartbeat CPU 0 instructions: 850000000 cycles: 1652668897 heartbeat IPC: 0.382056 cumulative IPC: 0.382457 (Simulation time: 3 hr 53 min 27 sec) 
Heartbeat CPU 2 instructions: 550000000 cycles: 1663100160 heartbeat IPC: 0.228608 cumulative IPC: 0.231096 (Simulation time: 3 hr 54 min 50 sec) 
Heartbeat CPU 1 instructions: 770000002 cycles: 1666648654 heartbeat IPC: 0.346065 cumulative IPC: 0.354635 (Simulation time: 3 hr 55 min 17 sec) 
Heartbeat CPU 3 instructions: 860000000 cycles: 1667747618 heartbeat IPC: 0.415191 cumulative IPC: 0.398898 (Simulation time: 3 hr 55 min 23 sec) 
Heartbeat CPU 0 instructions: 860000000 cycles: 1679086649 heartbeat IPC: 0.378533 cumulative IPC: 0.382389 (Simulation time: 3 hr 56 min 50 sec) 
Heartbeat CPU 1 instructions: 780000000 cycles: 1695379583 heartbeat IPC: 0.348057 cumulative IPC: 0.354513 (Simulation time: 3 hr 58 min 49 sec) 
Heartbeat CPU 3 instructions: 870000000 cycles: 1698734679 heartbeat IPC: 0.322715 cumulative IPC: 0.397376 (Simulation time: 3 hr 59 min 15 sec) 
Heartbeat CPU 0 instructions: 870000001 cycles: 1705074848 heartbeat IPC: 0.38479 cumulative IPC: 0.382429 (Simulation time: 4 hr 0 min 2 sec) 
Heartbeat CPU 2 instructions: 560000000 cycles: 1706748156 heartbeat IPC: 0.229106 cumulative IPC: 0.231041 (Simulation time: 4 hr 0 min 14 sec) 
Heartbeat CPU 1 instructions: 790000000 cycles: 1723999833 heartbeat IPC: 0.349403 cumulative IPC: 0.35442 (Simulation time: 4 hr 2 min 22 sec) 
Heartbeat CPU 3 instructions: 880000000 cycles: 1726620491 heartbeat IPC: 0.358605 cumulative IPC: 0.39669 (Simulation time: 4 hr 2 min 42 sec) 
Heartbeat CPU 0 instructions: 880000000 cycles: 1731230501 heartbeat IPC: 0.382326 cumulative IPC: 0.382427 (Simulation time: 4 hr 3 min 19 sec) 
Heartbeat CPU 3 instructions: 890000000 cycles: 1747774043 heartbeat IPC: 0.472734 cumulative IPC: 0.397696 (Simulation time: 4 hr 5 min 21 sec) 
Heartbeat CPU 2 instructions: 570000001 cycles: 1750755831 heartbeat IPC: 0.227233 cumulative IPC: 0.230936 (Simulation time: 4 hr 5 min 43 sec) 
Heartbeat CPU 1 instructions: 800000000 cycles: 1753358834 heartbeat IPC: 0.340611 cumulative IPC: 0.354167 (Simulation time: 4 hr 6 min 3 sec) 
Heartbeat CPU 0 instructions: 890000001 cycles: 1757652162 heartbeat IPC: 0.378477 cumulative IPC: 0.382362 (Simulation time: 4 hr 6 min 35 sec) 
Heartbeat CPU 3 instructions: 900000000 cycles: 1779949046 heartbeat IPC: 0.3108 cumulative IPC: 0.395983 (Simulation time: 4 hr 9 min 12 sec) 
Heartbeat CPU 1 instructions: 810000001 cycles: 1782790032 heartbeat IPC: 0.339776 cumulative IPC: 0.353908 (Simulation time: 4 hr 9 min 31 sec) 
Heartbeat CPU 0 instructions: 900000000 cycles: 1783745624 heartbeat IPC: 0.383238 cumulative IPC: 0.382376 (Simulation time: 4 hr 9 min 38 sec) 
Heartbeat CPU 2 instructions: 580000000 cycles: 1794302213 heartbeat IPC: 0.22964 cumulative IPC: 0.230902 (Simulation time: 4 hr 10 min 50 sec) 
Heartbeat CPU 1 instructions: 820000000 cycles: 1808431566 heartbeat IPC: 0.389992 cumulative IPC: 0.354466 (Simulation time: 4 hr 12 min 24 sec) 
Heartbeat CPU 0 instructions: 910000002 cycles: 1810167089 heartbeat IPC: 0.37848 cumulative IPC: 0.382314 (Simulation time: 4 hr 12 min 35 sec) 
Heartbeat CPU 3 instructions: 910000000 cycles: 1810240180 heartbeat IPC: 0.33013 cumulative IPC: 0.394782 (Simulation time: 4 hr 12 min 36 sec) 
Heartbeat CPU 1 instructions: 830000000 cycles: 1836095898 heartbeat IPC: 0.361476 cumulative IPC: 0.354581 (Simulation time: 4 hr 15 min 29 sec) 
Heartbeat CPU 0 instructions: 920000000 cycles: 1836455535 heartbeat IPC: 0.380395 cumulative IPC: 0.382285 (Simulation time: 4 hr 15 min 31 sec) 
Heartbeat CPU 3 instructions: 920000000 cycles: 1837849769 heartbeat IPC: 0.362193 cumulative IPC: 0.394249 (Simulation time: 4 hr 15 min 40 sec) 
Heartbeat CPU 2 instructions: 590000002 cycles: 1838441257 heartbeat IPC: 0.226557 cumulative IPC: 0.230788 (Simulation time: 4 hr 15 min 43 sec) 
Heartbeat CPU 3 instructions: 930000003 cycles: 1859195952 heartbeat IPC: 0.468468 cumulative IPC: 0.395176 (Simulation time: 4 hr 18 min 8 sec) 
Heartbeat CPU 0 instructions: 930000002 cycles: 1862890278 heartbeat IPC: 0.37829 cumulative IPC: 0.382223 (Simulation time: 4 hr 18 min 33 sec) 
Heartbeat CPU 1 instructions: 840000000 cycles: 1864992421 heartbeat IPC: 0.346062 cumulative IPC: 0.354437 (Simulation time: 4 hr 18 min 47 sec) 
Heartbeat CPU 2 instructions: 600000000 cycles: 1881909411 heartbeat IPC: 0.230053 cumulative IPC: 0.23077 (Simulation time: 4 hr 20 min 44 sec) 
Heartbeat CPU 3 instructions: 940000000 cycles: 1883635309 heartbeat IPC: 0.409176 cumulative IPC: 0.395373 (Simulation time: 4 hr 20 min 55 sec) 
Heartbeat CPU 1 instructions: 850000000 cycles: 1888602997 heartbeat IPC: 0.423539 cumulative IPC: 0.355375 (Simulation time: 4 hr 21 min 27 sec) 
Heartbeat CPU 0 instructions: 940000000 cycles: 1889330045 heartbeat IPC: 0.378218 cumulative IPC: 0.382162 (Simulation time: 4 hr 21 min 31 sec) 
Heartbeat CPU 3 instructions: 950000000 cycles: 1914527639 heartbeat IPC: 0.323705 cumulative IPC: 0.394119 (Simulation time: 4 hr 24 min 28 sec) 
Heartbeat CPU 1 instructions: 860000000 cycles: 1914530836 heartbeat IPC: 0.385686 cumulative IPC: 0.35582 (Simulation time: 4 hr 24 min 28 sec) 
Heartbeat CPU 0 instructions: 950000000 cycles: 1915507985 heartbeat IPC: 0.382001 cumulative IPC: 0.38216 (Simulation time: 4 hr 24 min 35 sec) 
Heartbeat CPU 2 instructions: 610000000 cycles: 1924912184 heartbeat IPC: 0.232543 cumulative IPC: 0.230813 (Simulation time: 4 hr 25 min 37 sec) 
Heartbeat CPU 1 instructions: 870000000 cycles: 1941789112 heartbeat IPC: 0.366861 cumulative IPC: 0.355988 (Simulation time: 4 hr 27 min 23 sec) 
Heartbeat CPU 0 instructions: 960000000 cycles: 1942056823 heartbeat IPC: 0.376664 cumulative IPC: 0.382078 (Simulation time: 4 hr 27 min 25 sec) 
Heartbeat CPU 3 instructions: 960000000 cycles: 1943339231 heartbeat IPC: 0.347083 cumulative IPC: 0.393364 (Simulation time: 4 hr 27 min 33 sec) 
Heartbeat CPU 1 instructions: 880000000 cycles: 1967251441 heartbeat IPC: 0.392737 cumulative IPC: 0.356502 (Simulation time: 4 hr 30 min 11 sec) 
Heartbeat CPU 0 instructions: 970000001 cycles: 1968435853 heartbeat IPC: 0.379089 cumulative IPC: 0.382035 (Simulation time: 4 hr 30 min 19 sec) 
Heartbeat CPU 2 instructions: 620000000 cycles: 1968767269 heartbeat IPC: 0.228024 cumulative IPC: 0.230746 (Simulation time: 4 hr 30 min 21 sec) 
Heartbeat CPU 3 instructions: 970000000 cycles: 1972917004 heartbeat IPC: 0.338092 cumulative IPC: 0.392468 (Simulation time: 4 hr 30 min 47 sec) 
Heartbeat CPU 1 instructions: 890000001 cycles: 1993549713 heartbeat IPC: 0.380253 cumulative IPC: 0.356841 (Simulation time: 4 hr 33 min 5 sec) 
Heartbeat CPU 0 instructions: 980000000 cycles: 1994879454 heartbeat IPC: 0.378163 cumulative IPC: 0.38198 (Simulation time: 4 hr 33 min 14 sec) 
Heartbeat CPU 3 instructions: 980000000 cycles: 2000054161 heartbeat IPC: 0.368498 cumulative IPC: 0.392117 (Simulation time: 4 hr 33 min 49 sec) 
Heartbeat CPU 2 instructions: 630000001 cycles: 2012039067 heartbeat IPC: 0.231097 cumulative IPC: 0.230754 (Simulation time: 4 hr 35 min 10 sec) 
Heartbeat CPU 1 instructions: 900000000 cycles: 2020495324 heartbeat IPC: 0.371118 cumulative IPC: 0.357046 (Simulation time: 4 hr 36 min 4 sec) 
Heartbeat CPU 0 instructions: 990000000 cycles: 2021611915 heartbeat IPC: 0.374077 cumulative IPC: 0.381867 (Simulation time: 4 hr 36 min 12 sec) 
Heartbeat CPU 3 instructions: 990000000 cycles: 2025641494 heartbeat IPC: 0.390818 cumulative IPC: 0.392099 (Simulation time: 4 hr 36 min 39 sec) 
Heartbeat CPU 3 instructions: 1000000000 cycles: 2044192383 heartbeat IPC: 0.539058 cumulative IPC: 0.393537 (Simulation time: 4 hr 38 min 50 sec) 
Heartbeat CPU 1 instructions: 910000001 cycles: 2045766640 heartbeat IPC: 0.395706 cumulative IPC: 0.357561 (Simulation time: 4 hr 39 min 0 sec) 
Heartbeat CPU 0 instructions: 1000000000 cycles: 2048143099 heartbeat IPC: 0.376915 cumulative IPC: 0.381798 (Simulation time: 4 hr 39 min 18 sec) 
Heartbeat CPU 2 instructions: 640000000 cycles: 2055770315 heartbeat IPC: 0.228669 cumulative IPC: 0.230706 (Simulation time: 4 hr 40 min 17 sec) 
Heartbeat CPU 3 instructions: 1010000000 cycles: 2062780051 heartbeat IPC: 0.537991 cumulative IPC: 0.39494 (Simulation time: 4 hr 41 min 6 sec) 
Heartbeat CPU 1 instructions: 920000000 cycles: 2073090001 heartbeat IPC: 0.365987 cumulative IPC: 0.357681 (Simulation time: 4 hr 42 min 17 sec) 
Heartbeat CPU 0 instructions: 1010000001 cycles: 2074434849 heartbeat IPC: 0.380347 cumulative IPC: 0.381778 (Simulation time: 4 hr 42 min 26 sec) 
Heartbeat CPU 3 instructions: 1020000000 cycles: 2088614915 heartbeat IPC: 0.387074 cumulative IPC: 0.394835 (Simulation time: 4 hr 43 min 57 sec) 
Heartbeat CPU 2 instructions: 650000000 cycles: 2099095732 heartbeat IPC: 0.230811 cumulative IPC: 0.230708 (Simulation time: 4 hr 45 min 7 sec) 
Heartbeat CPU 0 instructions: 1020000000 cycles: 2100876668 heartbeat IPC: 0.378189 cumulative IPC: 0.381729 (Simulation time: 4 hr 45 min 19 sec) 
Heartbeat CPU 1 instructions: 930000000 cycles: 2102580208 heartbeat IPC: 0.339096 cumulative IPC: 0.3574 (Simulation time: 4 hr 45 min 30 sec) 
Heartbeat CPU 3 instructions: 1030000003 cycles: 2119400427 heartbeat IPC: 0.324828 cumulative IPC: 0.393741 (Simulation time: 4 hr 47 min 22 sec) 
Heartbeat CPU 0 instructions: 1030000001 cycles: 2127111862 heartbeat IPC: 0.381167 cumulative IPC: 0.381722 (Simulation time: 4 hr 48 min 17 sec) 
Heartbeat CPU 1 instructions: 940000000 cycles: 2128656373 heartbeat IPC: 0.383492 cumulative IPC: 0.357744 (Simulation time: 4 hr 48 min 27 sec) 
Heartbeat CPU 2 instructions: 660000000 cycles: 2142413339 heartbeat IPC: 0.230853 cumulative IPC: 0.230711 (Simulation time: 4 hr 50 min 2 sec) 
Heartbeat CPU 3 instructions: 1040000000 cycles: 2146333149 heartbeat IPC: 0.371295 cumulative IPC: 0.393439 (Simulation time: 4 hr 50 min 29 sec) 
Heartbeat CPU 0 instructions: 1040000000 cycles: 2153242333 heartbeat IPC: 0.382695 cumulative IPC: 0.381734 (Simulation time: 4 hr 51 min 21 sec) 
Heartbeat CPU 1 instructions: 950000002 cycles: 2155732796 heartbeat IPC: 0.369325 cumulative IPC: 0.3579 (Simulation time: 4 hr 51 min 40 sec) 
Heartbeat CPU 3 instructions: 1050000000 cycles: 2169244616 heartbeat IPC: 0.436463 cumulative IPC: 0.393927 (Simulation time: 4 hr 53 min 10 sec) 
Heartbeat CPU 0 instructions: 1050000000 cycles: 2179807480 heartbeat IPC: 0.376433 cumulative IPC: 0.381665 (Simulation time: 4 hr 54 min 17 sec) 
Heartbeat CPU 1 instructions: 960000000 cycles: 2184318586 heartbeat IPC: 0.349824 cumulative IPC: 0.357787 (Simulation time: 4 hr 54 min 50 sec) 
Heartbeat CPU 2 instructions: 670000000 cycles: 2185517282 heartbeat IPC: 0.231997 cumulative IPC: 0.230739 (Simulation time: 4 hr 54 min 58 sec) 
Heartbeat CPU 3 instructions: 1060000000 cycles: 2200540398 heartbeat IPC: 0.319532 cumulative IPC: 0.392792 (Simulation time: 4 hr 56 min 41 sec) 
Heartbeat CPU 0 instructions: 1060000000 cycles: 2206065573 heartbeat IPC: 0.380835 cumulative IPC: 0.381655 (Simulation time: 4 hr 57 min 19 sec) 
Heartbeat CPU 1 instructions: 970000000 cycles: 2211053691 heartbeat IPC: 0.37404 cumulative IPC: 0.357998 (Simulation time: 4 hr 57 min 54 sec) 
Heartbeat CPU 3 instructions: 1070000002 cycles: 2228388891 heartbeat IPC: 0.359086 cumulative IPC: 0.392341 (Simulation time: 4 hr 59 min 57 sec) 
Heartbeat CPU 2 instructions: 680000000 cycles: 2228566892 heartbeat IPC: 0.23229 cumulative IPC: 0.230771 (Simulation time: 4 hr 59 min 59 sec) 
Heartbeat CPU 0 instructions: 1070000001 cycles: 2232254351 heartbeat IPC: 0.381843 cumulative IPC: 0.381657 (Simulation time: 5 hr 0 min 24 sec) 
Heartbeat CPU 1 instructions: 980000000 cycles: 2235564823 heartbeat IPC: 0.407978 cumulative IPC: 0.358584 (Simulation time: 5 hr 0 min 48 sec) 
Heartbeat CPU 3 instructions: 1080000000 cycles: 2249386029 heartbeat IPC: 0.476255 cumulative IPC: 0.393179 (Simulation time: 5 hr 2 min 32 sec) 
Heartbeat CPU 0 instructions: 1080000000 cycles: 2258496566 heartbeat IPC: 0.381065 cumulative IPC: 0.38165 (Simulation time: 5 hr 3 min 34 sec) 
Heartbeat CPU 1 instructions: 990000003 cycles: 2262902237 heartbeat IPC: 0.365799 cumulative IPC: 0.358678 (Simulation time: 5 hr 4 min 1 sec) 
Heartbeat CPU 2 instructions: 690000000 cycles: 2271426089 heartbeat IPC: 0.233322 cumulative IPC: 0.230822 (Simulation time: 5 hr 4 min 58 sec) 
Heartbeat CPU 3 instructions: 1090000000 cycles: 2278564555 heartbeat IPC: 0.342718 cumulative IPC: 0.392488 (Simulation time: 5 hr 5 min 44 sec) 
Heartbeat CPU 0 instructions: 1090000000 cycles: 2284881733 heartbeat IPC: 0.379001 cumulative IPC: 0.381617 (Simulation time: 5 hr 6 min 27 sec) 
Heartbeat CPU 1 instructions: 1000000000 cycles: 2286976081 heartbeat IPC: 0.415388 cumulative IPC: 0.359316 (Simulation time: 5 hr 6 min 41 sec) 
Heartbeat CPU 3 instructions: 1100000000 cycles: 2307724140 heartbeat IPC: 0.34294 cumulative IPC: 0.391819 (Simulation time: 5 hr 9 min 3 sec) 
Heartbeat CPU 0 instructions: 1100000000 cycles: 2311056392 heartbeat IPC: 0.382049 cumulative IPC: 0.381622 (Simulation time: 5 hr 9 min 26 sec) 
Heartbeat CPU 1 instructions: 1010000002 cycles: 2311700584 heartbeat IPC: 0.404457 cumulative IPC: 0.359832 (Simulation time: 5 hr 9 min 31 sec) 
Heartbeat CPU 2 instructions: 700000000 cycles: 2314211768 heartbeat IPC: 0.233723 cumulative IPC: 0.23088 (Simulation time: 5 hr 9 min 49 sec) 
Heartbeat CPU 3 instructions: 1110000002 cycles: 2332891538 heartbeat IPC: 0.39734 cumulative IPC: 0.391883 (Simulation time: 5 hr 11 min 53 sec) 
Heartbeat CPU 0 instructions: 1110000000 cycles: 2337379336 heartbeat IPC: 0.379897 cumulative IPC: 0.381601 (Simulation time: 5 hr 12 min 25 sec) 
Heartbeat CPU 1 instructions: 1020000000 cycles: 2339322020 heartbeat IPC: 0.362038 cumulative IPC: 0.35986 (Simulation time: 5 hr 12 min 39 sec) 
Heartbeat CPU 3 instructions: 1120000000 cycles: 2354373716 heartbeat IPC: 0.465502 cumulative IPC: 0.3926 (Simulation time: 5 hr 14 min 23 sec) 
Heartbeat CPU 2 instructions: 710000000 cycles: 2357340033 heartbeat IPC: 0.231867 cumulative IPC: 0.230899 (Simulation time: 5 hr 14 min 42 sec) 
Heartbeat CPU 1 instructions: 1030000000 cycles: 2362824070 heartbeat IPC: 0.425495 cumulative IPC: 0.360557 (Simulation time: 5 hr 15 min 17 sec) 
Heartbeat CPU 0 instructions: 1120000000 cycles: 2363901739 heartbeat IPC: 0.37704 cumulative IPC: 0.381547 (Simulation time: 5 hr 15 min 24 sec) 
Heartbeat CPU 3 instructions: 1130000002 cycles: 2385802930 heartbeat IPC: 0.318175 cumulative IPC: 0.391554 (Simulation time: 5 hr 17 min 47 sec) 
Heartbeat CPU 1 instructions: 1040000000 cycles: 2389452813 heartbeat IPC: 0.375534 cumulative IPC: 0.360735 (Simulation time: 5 hr 18 min 11 sec) 
Heartbeat CPU 0 instructions: 1130000001 cycles: 2390642309 heartbeat IPC: 0.373964 cumulative IPC: 0.381456 (Simulation time: 5 hr 18 min 19 sec) 
Heartbeat CPU 2 instructions: 720000000 cycles: 2400865083 heartbeat IPC: 0.229753 cumulative IPC: 0.230877 (Simulation time: 5 hr 19 min 27 sec) 
Heartbeat CPU 3 instructions: 1140000000 cycles: 2414027354 heartbeat IPC: 0.354303 cumulative IPC: 0.39109 (Simulation time: 5 hr 20 min 56 sec) 
Heartbeat CPU 1 instructions: 1050000001 cycles: 2414690797 heartbeat IPC: 0.396228 cumulative IPC: 0.36113 (Simulation time: 5 hr 21 min 0 sec) 
Heartbeat CPU 0 instructions: 1140000000 cycles: 2417192370 heartbeat IPC: 0.376647 cumulative IPC: 0.3814 (Simulation time: 5 hr 21 min 17 sec) 
Heartbeat CPU 3 instructions: 1150000000 cycles: 2440297692 heartbeat IPC: 0.380657 cumulative IPC: 0.39097 (Simulation time: 5 hr 24 min 0 sec) 
Heartbeat CPU 1 instructions: 1060000000 cycles: 2441757176 heartbeat IPC: 0.369462 cumulative IPC: 0.361228 (Simulation time: 5 hr 24 min 10 sec) 
Heartbeat CPU 2 instructions: 730000001 cycles: 2443694183 heartbeat IPC: 0.233486 cumulative IPC: 0.230925 (Simulation time: 5 hr 24 min 25 sec) 
Heartbeat CPU 0 instructions: 1150000001 cycles: 2443889818 heartbeat IPC: 0.374568 cumulative IPC: 0.381321 (Simulation time: 5 hr 24 min 26 sec) 
Heartbeat CPU 3 instructions: 1160000000 cycles: 2459443649 heartbeat IPC: 0.522303 cumulative IPC: 0.392058 (Simulation time: 5 hr 26 min 24 sec) 
Heartbeat CPU 1 instructions: 1070000003 cycles: 2465869218 heartbeat IPC: 0.414731 cumulative IPC: 0.361785 (Simulation time: 5 hr 27 min 21 sec) 
Heartbeat CPU 0 instructions: 1160000000 cycles: 2470325474 heartbeat IPC: 0.378277 cumulative IPC: 0.381286 (Simulation time: 5 hr 27 min 54 sec) 
Heartbeat CPU 3 instructions: 1170000000 cycles: 2480089489 heartbeat IPC: 0.484359 cumulative IPC: 0.392876 (Simulation time: 5 hr 29 min 5 sec) 
Heartbeat CPU 2 instructions: 740000000 cycles: 2486489760 heartbeat IPC: 0.233669 cumulative IPC: 0.230976 (Simulation time: 5 hr 29 min 57 sec) 
Heartbeat CPU 1 instructions: 1080000000 cycles: 2491763688 heartbeat IPC: 0.386183 cumulative IPC: 0.362055 (Simulation time: 5 hr 30 min 34 sec) 
Heartbeat CPU 0 instructions: 1170000002 cycles: 2497066489 heartbeat IPC: 0.373957 cumulative IPC: 0.381202 (Simulation time: 5 hr 31 min 11 sec) 
Heartbeat CPU 3 instructions: 1180000000 cycles: 2510703262 heartbeat IPC: 0.32665 cumulative IPC: 0.392017 (Simulation time: 5 hr 33 min 0 sec) 
Heartbeat CPU 1 instructions: 1090000000 cycles: 2520188813 heartbeat IPC: 0.351801 cumulative IPC: 0.361932 (Simulation time: 5 hr 34 min 12 sec) 
Heartbeat CPU 0 instructions: 1180000000 cycles: 2523536610 heartbeat IPC: 0.377784 cumulative IPC: 0.381164 (Simulation time: 5 hr 34 min 38 sec) 
Heartbeat CPU 2 instructions: 750000003 cycles: 2529513311 heartbeat IPC: 0.232431 cumulative IPC: 0.231002 (Simulation time: 5 hr 35 min 24 sec) 
Heartbeat CPU 3 instructions: 1190000000 cycles: 2539873534 heartbeat IPC: 0.342815 cumulative IPC: 0.391417 (Simulation time: 5 hr 36 min 42 sec) 
Heartbeat CPU 1 instructions: 1100000000 cycles: 2548309439 heartbeat IPC: 0.355611 cumulative IPC: 0.361858 (Simulation time: 5 hr 37 min 39 sec) 
Heartbeat CPU 0 instructions: 1190000003 cycles: 2550359188 heartbeat IPC: 0.37282 cumulative IPC: 0.381071 (Simulation time: 5 hr 37 min 53 sec) 
Heartbeat CPU 3 instructions: 1200000000 cycles: 2570146634 heartbeat IPC: 0.330326 cumulative IPC: 0.390654 (Simulation time: 5 hr 40 min 10 sec) 
Heartbeat CPU 2 instructions: 760000000 cycles: 2572569959 heartbeat IPC: 0.232252 cumulative IPC: 0.231024 (Simulation time: 5 hr 40 min 26 sec) 
Heartbeat CPU 1 instructions: 1110000001 cycles: 2576074377 heartbeat IPC: 0.360167 cumulative IPC: 0.361838 (Simulation time: 5 hr 40 min 50 sec) 
Heartbeat CPU 0 instructions: 1200000000 cycles: 2577017603 heartbeat IPC: 0.375116 cumulative IPC: 0.381006 (Simulation time: 5 hr 40 min 57 sec) 
Heartbeat CPU 3 instructions: 1210000001 cycles: 2597696705 heartbeat IPC: 0.362976 cumulative IPC: 0.390342 (Simulation time: 5 hr 43 min 18 sec) 
Heartbeat CPU 0 instructions: 1210000000 cycles: 2603571756 heartbeat IPC: 0.376589 cumulative IPC: 0.380958 (Simulation time: 5 hr 43 min 58 sec) 
Heartbeat CPU 1 instructions: 1120000000 cycles: 2603885956 heartbeat IPC: 0.359562 cumulative IPC: 0.361813 (Simulation time: 5 hr 44 min 1 sec) 
Heartbeat CPU 2 instructions: 770000001 cycles: 2615167968 heartbeat IPC: 0.234753 cumulative IPC: 0.231088 (Simulation time: 5 hr 45 min 20 sec) 
Heartbeat CPU 3 instructions: 1220000000 cycles: 2621106601 heartbeat IPC: 0.42717 cumulative IPC: 0.390691 (Simulation time: 5 hr 46 min 1 sec) 
Heartbeat CPU 0 instructions: 1220000000 cycles: 2630383661 heartbeat IPC: 0.372969 cumulative IPC: 0.380872 (Simulation time: 5 hr 47 min 7 sec) 
Heartbeat CPU 1 instructions: 1130000000 cycles: 2631865644 heartbeat IPC: 0.357402 cumulative IPC: 0.361763 (Simulation time: 5 hr 47 min 18 sec) 
Heartbeat CPU 3 instructions: 1230000000 cycles: 2640244899 heartbeat IPC: 0.522512 cumulative IPC: 0.391703 (Simulation time: 5 hr 48 min 18 sec) 
Heartbeat CPU 0 instructions: 1230000002 cycles: 2657098514 heartbeat IPC: 0.374324 cumulative IPC: 0.380802 (Simulation time: 5 hr 50 min 8 sec) 
Heartbeat CPU 2 instructions: 780000000 cycles: 2657943613 heartbeat IPC: 0.233778 cumulative IPC: 0.231134 (Simulation time: 5 hr 50 min 13 sec) 
Heartbeat CPU 1 instructions: 1140000000 cycles: 2659435698 heartbeat IPC: 0.362712 cumulative IPC: 0.361773 (Simulation time: 5 hr 50 min 23 sec) 
Heartbeat CPU 3 instructions: 1240000000 cycles: 2669150742 heartbeat IPC: 0.345951 cumulative IPC: 0.391179 (Simulation time: 5 hr 51 min 25 sec) 
Heartbeat CPU 0 instructions: 1240000000 cycles: 2684010515 heartbeat IPC: 0.371581 cumulative IPC: 0.380704 (Simulation time: 5 hr 52 min 57 sec) 
Heartbeat CPU 1 instructions: 1150000000 cycles: 2687820227 heartbeat IPC: 0.352305 cumulative IPC: 0.361667 (Simulation time: 5 hr 53 min 22 sec) 
Heartbeat CPU 3 instructions: 1250000000 cycles: 2698690773 heartbeat IPC: 0.338524 cumulative IPC: 0.390569 (Simulation time: 5 hr 54 min 34 sec) 
Heartbeat CPU 2 instructions: 790000001 cycles: 2701393377 heartbeat IPC: 0.230151 cumulative IPC: 0.231118 (Simulation time: 5 hr 54 min 50 sec) 
Finished CPU 3 instructions: 1000000002 cycles: 2561227798 cumulative IPC: 0.390438 (Simulation time: 5 hr 55 min 43 sec) 
Heartbeat CPU 0 instructions: 1250000003 cycles: 2710790660 heartbeat IPC: 0.373411 cumulative IPC: 0.380628 (Simulation time: 5 hr 55 min 49 sec) 
Heartbeat CPU 1 instructions: 1160000000 cycles: 2716012909 heartbeat IPC: 0.354702 cumulative IPC: 0.361591 (Simulation time: 5 hr 56 min 23 sec) 
Heartbeat CPU 3 instructions: 1260000000 cycles: 2725872354 heartbeat IPC: 0.367896 cumulative IPC: 0.39033 (Simulation time: 5 hr 57 min 26 sec) 
Heartbeat CPU 0 instructions: 1260000000 cycles: 2737671563 heartbeat IPC: 0.372011 cumulative IPC: 0.380538 (Simulation time: 5 hr 58 min 42 sec) 
Heartbeat CPU 2 instructions: 800000000 cycles: 2744174244 heartbeat IPC: 0.233749 cumulative IPC: 0.231161 (Simulation time: 5 hr 59 min 25 sec) 
Heartbeat CPU 1 instructions: 1170000000 cycles: 2744368652 heartbeat IPC: 0.352662 cumulative IPC: 0.361493 (Simulation time: 5 hr 59 min 27 sec) 
Heartbeat CPU 3 instructions: 1270000001 cycles: 2751503638 heartbeat IPC: 0.390148 cumulative IPC: 0.390328 (Simulation time: 6 hr 0 min 15 sec) 
Heartbeat CPU 0 instructions: 1270000000 cycles: 2764708778 heartbeat IPC: 0.369861 cumulative IPC: 0.380428 (Simulation time: 6 hr 1 min 43 sec) 
Heartbeat CPU 3 instructions: 1280000000 cycles: 2769330450 heartbeat IPC: 0.560953 cumulative IPC: 0.391488 (Simulation time: 6 hr 2 min 15 sec) 
Heartbeat CPU 1 instructions: 1180000000 cycles: 2772162304 heartbeat IPC: 0.359794 cumulative IPC: 0.361475 (Simulation time: 6 hr 2 min 36 sec) 
Finished CPU 0 instructions: 1000000001 cycles: 2628864557 cumulative IPC: 0.380392 (Simulation time: 6 hr 3 min 11 sec) 
Heartbeat CPU 2 instructions: 810000003 cycles: 2787414291 heartbeat IPC: 0.231267 cumulative IPC: 0.231163 (Simulation time: 6 hr 4 min 16 sec) 
Heartbeat CPU 3 instructions: 1290000002 cycles: 2788605897 heartbeat IPC: 0.518795 cumulative IPC: 0.392418 (Simulation time: 6 hr 4 min 24 sec) 
Heartbeat CPU 0 instructions: 1280000000 cycles: 2791514199 heartbeat IPC: 0.373059 cumulative IPC: 0.380353 (Simulation time: 6 hr 4 min 43 sec) 
Heartbeat CPU 1 instructions: 1190000001 cycles: 2800708006 heartbeat IPC: 0.350315 cumulative IPC: 0.361355 (Simulation time: 6 hr 5 min 43 sec) 
Heartbeat CPU 3 instructions: 1300000000 cycles: 2816792593 heartbeat IPC: 0.354777 cumulative IPC: 0.39202 (Simulation time: 6 hr 7 min 33 sec) 
Heartbeat CPU 0 instructions: 1290000002 cycles: 2818620481 heartbeat IPC: 0.368918 cumulative IPC: 0.380237 (Simulation time: 6 hr 7 min 46 sec) 
Heartbeat CPU 1 instructions: 1200000000 cycles: 2830027222 heartbeat IPC: 0.341073 cumulative IPC: 0.361133 (Simulation time: 6 hr 9 min 4 sec) 
Heartbeat CPU 2 instructions: 820000000 cycles: 2830581202 heartbeat IPC: 0.231659 cumulative IPC: 0.231171 (Simulation time: 6 hr 9 min 8 sec) 
Heartbeat CPU 0 instructions: 1300000000 cycles: 2845682314 heartbeat IPC: 0.369524 cumulative IPC: 0.38013 (Simulation time: 6 hr 10 min 48 sec) 
Heartbeat CPU 3 instructions: 1310000000 cycles: 2846472830 heartbeat IPC: 0.336925 cumulative IPC: 0.391414 (Simulation time: 6 hr 10 min 53 sec) 
Heartbeat CPU 1 instructions: 1210000002 cycles: 2858362893 heartbeat IPC: 0.352912 cumulative IPC: 0.361048 (Simulation time: 6 hr 12 min 12 sec) 
Heartbeat CPU 3 instructions: 1320000000 cycles: 2872049114 heartbeat IPC: 0.390987 cumulative IPC: 0.39141 (Simulation time: 6 hr 13 min 47 sec) 
Heartbeat CPU 0 instructions: 1310000000 cycles: 2872522620 heartbeat IPC: 0.372574 cumulative IPC: 0.380055 (Simulation time: 6 hr 13 min 50 sec) 
Heartbeat CPU 2 instructions: 830000000 cycles: 2873584796 heartbeat IPC: 0.232539 cumulative IPC: 0.231192 (Simulation time: 6 hr 13 min 57 sec) 
Heartbeat CPU 1 instructions: 1220000000 cycles: 2886651172 heartbeat IPC: 0.353503 cumulative IPC: 0.36097 (Simulation time: 6 hr 15 min 23 sec) 
Heartbeat CPU 3 instructions: 1330000002 cycles: 2895464328 heartbeat IPC: 0.427073 cumulative IPC: 0.391714 (Simulation time: 6 hr 16 min 18 sec) 
Heartbeat CPU 0 instructions: 1320000000 cycles: 2899622651 heartbeat IPC: 0.369003 cumulative IPC: 0.379946 (Simulation time: 6 hr 16 min 45 sec) 
Heartbeat CPU 1 instructions: 1230000000 cycles: 2914465321 heartbeat IPC: 0.359529 cumulative IPC: 0.360955 (Simulation time: 6 hr 18 min 15 sec) 
Heartbeat CPU 2 instructions: 840000000 cycles: 2916583814 heartbeat IPC: 0.232563 cumulative IPC: 0.231214 (Simulation time: 6 hr 18 min 28 sec) 
Finished CPU 1 instructions: 1000000000 cycles: 2770576867 cumulative IPC: 0.360936 (Simulation time: 6 hr 18 min 45 sec) 
Heartbeat CPU 0 instructions: 1330000002 cycles: 2926823488 heartbeat IPC: 0.367636 cumulative IPC: 0.379826 (Simulation time: 6 hr 19 min 32 sec) 
Heartbeat CPU 3 instructions: 1340000000 cycles: 2928382980 heartbeat IPC: 0.303779 cumulative IPC: 0.390673 (Simulation time: 6 hr 19 min 42 sec) 
Heartbeat CPU 1 instructions: 1240000000 cycles: 2943051589 heartbeat IPC: 0.349818 cumulative IPC: 0.360841 (Simulation time: 6 hr 21 min 13 sec) 
Heartbeat CPU 0 instructions: 1340000000 cycles: 2954028480 heartbeat IPC: 0.36758 cumulative IPC: 0.379707 (Simulation time: 6 hr 22 min 24 sec) 
Heartbeat CPU 2 instructions: 850000002 cycles: 2960028823 heartbeat IPC: 0.230176 cumulative IPC: 0.231198 (Simulation time: 6 hr 23 min 5 sec) 
Heartbeat CPU 3 instructions: 1350000000 cycles: 2960769995 heartbeat IPC: 0.308766 cumulative IPC: 0.38973 (Simulation time: 6 hr 23 min 10 sec) 
Heartbeat CPU 1 instructions: 1250000001 cycles: 2969450434 heartbeat IPC: 0.378804 cumulative IPC: 0.361009 (Simulation time: 6 hr 24 min 10 sec) 
Heartbeat CPU 0 instructions: 1350000002 cycles: 2980975366 heartbeat IPC: 0.3711 cumulative IPC: 0.379625 (Simulation time: 6 hr 25 min 28 sec) 
Heartbeat CPU 3 instructions: 1360000000 cycles: 2989506096 heartbeat IPC: 0.347994 cumulative IPC: 0.389307 (Simulation time: 6 hr 26 min 29 sec) 
Heartbeat CPU 1 instructions: 1260000000 cycles: 2996256799 heartbeat IPC: 0.373046 cumulative IPC: 0.361123 (Simulation time: 6 hr 27 min 13 sec) 
Heartbeat CPU 2 instructions: 860000000 cycles: 3003282714 heartbeat IPC: 0.231193 cumulative IPC: 0.231197 (Simulation time: 6 hr 28 min 2 sec) 
Heartbeat CPU 0 instructions: 1360000000 cycles: 3007995925 heartbeat IPC: 0.370088 cumulative IPC: 0.379535 (Simulation time: 6 hr 28 min 34 sec) 
Heartbeat CPU 3 instructions: 1370000000 cycles: 3016120620 heartbeat IPC: 0.375735 cumulative IPC: 0.389181 (Simulation time: 6 hr 29 min 29 sec) 
Heartbeat CPU 1 instructions: 1270000001 cycles: 3021495954 heartbeat IPC: 0.39621 cumulative IPC: 0.361431 (Simulation time: 6 hr 30 min 5 sec) 
Heartbeat CPU 0 instructions: 1370000001 cycles: 3035032002 heartbeat IPC: 0.369876 cumulative IPC: 0.379445 (Simulation time: 6 hr 31 min 41 sec) 
Heartbeat CPU 3 instructions: 1380000000 cycles: 3036480385 heartbeat IPC: 0.491165 cumulative IPC: 0.3899 (Simulation time: 6 hr 31 min 51 sec) 
Heartbeat CPU 2 instructions: 870000000 cycles: 3046433933 heartbeat IPC: 0.231743 cumulative IPC: 0.231206 (Simulation time: 6 hr 32 min 58 sec) 
Heartbeat CPU 1 instructions: 1280000000 cycles: 3048656465 heartbeat IPC: 0.368182 cumulative IPC: 0.361494 (Simulation time: 6 hr 33 min 13 sec) 
Heartbeat CPU 3 instructions: 1390000000 cycles: 3056258486 heartbeat IPC: 0.50561 cumulative IPC: 0.390687 (Simulation time: 6 hr 34 min 4 sec) 
Heartbeat CPU 0 instructions: 1380000000 cycles: 3062172380 heartbeat IPC: 0.368455 cumulative IPC: 0.379342 (Simulation time: 6 hr 34 min 43 sec) 
Heartbeat CPU 1 instructions: 1290000001 cycles: 3074507012 heartbeat IPC: 0.386839 cumulative IPC: 0.361718 (Simulation time: 6 hr 36 min 0 sec) 
Heartbeat CPU 3 instructions: 1400000000 cycles: 3085991887 heartbeat IPC: 0.336322 cumulative IPC: 0.390137 (Simulation time: 6 hr 37 min 11 sec) 
Heartbeat CPU 0 instructions: 1390000003 cycles: 3089551363 heartbeat IPC: 0.365244 cumulative IPC: 0.379211 (Simulation time: 6 hr 37 min 34 sec) 
Heartbeat CPU 2 instructions: 880000000 cycles: 3089765836 heartbeat IPC: 0.230777 cumulative IPC: 0.231199 (Simulation time: 6 hr 37 min 36 sec) 
Heartbeat CPU 1 instructions: 1300000000 cycles: 3101872402 heartbeat IPC: 0.365425 cumulative IPC: 0.361752 (Simulation time: 6 hr 38 min 54 sec) 
Heartbeat CPU 3 instructions: 1410000002 cycles: 3113795149 heartbeat IPC: 0.35967 cumulative IPC: 0.389852 (Simulation time: 6 hr 40 min 14 sec) 
Heartbeat CPU 0 instructions: 1400000000 cycles: 3116833642 heartbeat IPC: 0.366538 cumulative IPC: 0.379095 (Simulation time: 6 hr 40 min 33 sec) 
Heartbeat CPU 1 instructions: 1310000001 cycles: 3129453110 heartbeat IPC: 0.362572 cumulative IPC: 0.36176 (Simulation time: 6 hr 41 min 50 sec) 
Heartbeat CPU 2 instructions: 890000000 cycles: 3132749003 heartbeat IPC: 0.232649 cumulative IPC: 0.23122 (Simulation time: 6 hr 42 min 11 sec) 
Heartbeat CPU 3 instructions: 1420000000 cycles: 3143797204 heartbeat IPC: 0.33331 cumulative IPC: 0.389285 (Simulation time: 6 hr 43 min 22 sec) 
Heartbeat CPU 0 instructions: 1410000002 cycles: 3144296542 heartbeat IPC: 0.364128 cumulative IPC: 0.378957 (Simulation time: 6 hr 43 min 26 sec) 
Heartbeat CPU 1 instructions: 1320000000 cycles: 3155168752 heartbeat IPC: 0.388868 cumulative IPC: 0.361992 (Simulation time: 6 hr 44 min 36 sec) 
Heartbeat CPU 3 instructions: 1430000000 cycles: 3170795163 heartbeat IPC: 0.370398 cumulative IPC: 0.389116 (Simulation time: 6 hr 46 min 17 sec) 
Heartbeat CPU 0 instructions: 1420000000 cycles: 3171604337 heartbeat IPC: 0.366196 cumulative IPC: 0.378842 (Simulation time: 6 hr 46 min 22 sec) 
Heartbeat CPU 2 instructions: 900000000 cycles: 3175164943 heartbeat IPC: 0.23576 cumulative IPC: 0.231284 (Simulation time: 6 hr 46 min 46 sec) 
Heartbeat CPU 1 instructions: 1330000001 cycles: 3182166650 heartbeat IPC: 0.370399 cumulative IPC: 0.362067 (Simulation time: 6 hr 47 min 29 sec) 
Heartbeat CPU 0 instructions: 1430000001 cycles: 3199110498 heartbeat IPC: 0.363555 cumulative IPC: 0.378704 (Simulation time: 6 hr 49 min 17 sec) 
Heartbeat CPU 3 instructions: 1440000000 cycles: 3201398780 heartbeat IPC: 0.326759 cumulative IPC: 0.388491 (Simulation time: 6 hr 49 min 31 sec) 
Heartbeat CPU 1 instructions: 1340000000 cycles: 3209076941 heartbeat IPC: 0.371605 cumulative IPC: 0.36215 (Simulation time: 6 hr 50 min 19 sec) 
Heartbeat CPU 2 instructions: 910000002 cycles: 3218342846 heartbeat IPC: 0.2316 cumulative IPC: 0.231288 (Simulation time: 6 hr 51 min 18 sec) 
Heartbeat CPU 0 instructions: 1440000000 cycles: 3226278078 heartbeat IPC: 0.368086 cumulative IPC: 0.37861 (Simulation time: 6 hr 52 min 10 sec) 
Heartbeat CPU 3 instructions: 1450000000 cycles: 3228932822 heartbeat IPC: 0.363187 cumulative IPC: 0.388265 (Simulation time: 6 hr 52 min 26 sec) 
Heartbeat CPU 1 instructions: 1350000000 cycles: 3236179697 heartbeat IPC: 0.368966 cumulative IPC: 0.36221 (Simulation time: 6 hr 53 min 12 sec) 
Heartbeat CPU 0 instructions: 1450000000 cycles: 3253884571 heartbeat IPC: 0.362234 cumulative IPC: 0.378465 (Simulation time: 6 hr 55 min 1 sec) 
Heartbeat CPU 3 instructions: 1460000000 cycles: 3257067469 heartbeat IPC: 0.355434 cumulative IPC: 0.387968 (Simulation time: 6 hr 55 min 20 sec) 
Heartbeat CPU 2 instructions: 920000000 cycles: 3261746914 heartbeat IPC: 0.230393 cumulative IPC: 0.231276 (Simulation time: 6 hr 55 min 50 sec) 
Heartbeat CPU 1 instructions: 1360000000 cycles: 3261747216 heartbeat IPC: 0.391121 cumulative IPC: 0.362448 (Simulation time: 6 hr 55 min 50 sec) 
Heartbeat CPU 0 instructions: 1460000000 cycles: 3281387186 heartbeat IPC: 0.363602 cumulative IPC: 0.378334 (Simulation time: 6 hr 57 min 51 sec) 
Heartbeat CPU 3 instructions: 1470000000 cycles: 3288648608 heartbeat IPC: 0.316645 cumulative IPC: 0.387251 (Simulation time: 6 hr 58 min 37 sec) 
Heartbeat CPU 1 instructions: 1370000000 cycles: 3288963654 heartbeat IPC: 0.367425 cumulative IPC: 0.362491 (Simulation time: 6 hr 58 min 39 sec) 
Heartbeat CPU 2 instructions: 930000001 cycles: 3304468689 heartbeat IPC: 0.234073 cumulative IPC: 0.231314 (Simulation time: 7 hr 0 min 18 sec) 
Heartbeat CPU 0 instructions: 1470000003 cycles: 3308491645 heartbeat IPC: 0.368943 cumulative IPC: 0.378254 (Simulation time: 7 hr 0 min 43 sec) 
Heartbeat CPU 1 instructions: 1380000000 cycles: 3315933385 heartbeat IPC: 0.370786 cumulative IPC: 0.362561 (Simulation time: 7 hr 1 min 30 sec) 
Heartbeat CPU 3 instructions: 1480000000 cycles: 3316739007 heartbeat IPC: 0.355994 cumulative IPC: 0.386974 (Simulation time: 7 hr 1 min 35 sec) 
Heartbeat CPU 0 instructions: 1480000000 cycles: 3335918583 heartbeat IPC: 0.364605 cumulative IPC: 0.378136 (Simulation time: 7 hr 3 min 41 sec) 
Heartbeat CPU 3 instructions: 1490000000 cycles: 3338065900 heartbeat IPC: 0.468892 cumulative IPC: 0.387521 (Simulation time: 7 hr 3 min 56 sec) 
Heartbeat CPU 1 instructions: 1390000001 cycles: 3341014764 heartbeat IPC: 0.398702 cumulative IPC: 0.362845 (Simulation time: 7 hr 4 min 16 sec) 
Heartbeat CPU 2 instructions: 940000000 cycles: 3347221246 heartbeat IPC: 0.233904 cumulative IPC: 0.231348 (Simulation time: 7 hr 4 min 51 sec) 
Heartbeat CPU 0 instructions: 1490000001 cycles: 3363614296 heartbeat IPC: 0.361067 cumulative IPC: 0.377989 (Simulation time: 7 hr 6 min 33 sec) 
Heartbeat CPU 1 instructions: 1400000000 cycles: 3368270587 heartbeat IPC: 0.366894 cumulative IPC: 0.36288 (Simulation time: 7 hr 7 min 3 sec) 
Heartbeat CPU 3 instructions: 1500000000 cycles: 3370279674 heartbeat IPC: 0.310426 cumulative IPC: 0.38675 (Simulation time: 7 hr 7 min 16 sec) 
Heartbeat CPU 2 instructions: 950000000 cycles: 3390670515 heartbeat IPC: 0.230153 cumulative IPC: 0.231332 (Simulation time: 7 hr 9 min 26 sec) 
Heartbeat CPU 0 instructions: 1500000000 cycles: 3391145429 heartbeat IPC: 0.363225 cumulative IPC: 0.377864 (Simulation time: 7 hr 9 min 29 sec) 
Heartbeat CPU 1 instructions: 1410000000 cycles: 3395291794 heartbeat IPC: 0.37008 cumulative IPC: 0.36294 (Simulation time: 7 hr 9 min 56 sec) 
Heartbeat CPU 3 instructions: 1510000001 cycles: 3400251646 heartbeat IPC: 0.333645 cumulative IPC: 0.386261 (Simulation time: 7 hr 10 min 28 sec) 
[...]
Heartbeat CPU 2 instructions: 1130000001 cycles: 4165855326 heartbeat IPC: 0.232189 cumulative IPC: 0.2315 (Simulation time: 8 hr 31 min 54 sec) 
Heartbeat CPU 3 instructions: 1800000000 cycles: 4170153034 heartbeat IPC: 0.316948 cumulative IPC: 0.384425 (Simulation time: 8 hr 32 min 20 sec) 
Heartbeat CPU 0 instructions: 1780000000 cycles: 4172155107 heartbeat IPC: 0.35496 cumulative IPC: 0.374107 (Simulation time: 8 hr 32 min 32 sec) 
Heartbeat CPU 1 instructions: 1700000000 cycles: 4186948438 heartbeat IPC: 0.356378 cumulative IPC: 0.363602 (Simulation time: 8 hr 34 min 4 sec) 
Heartbeat CPU 3 instructions: 1810000000 cycles: 4196297657 heartbeat IPC: 0.382488 cumulative IPC: 0.384413 (Simulation time: 8 hr 35 min 3 sec) 
Heartbeat CPU 0 instructions: 1790000001 cycles: 4200634337 heartbeat IPC: 0.351133 cumulative IPC: 0.373946 (Simulation time: 8 hr 35 min 29 sec) 
Heartbeat CPU 2 instructions: 1140000000 cycles: 4208599022 heartbeat IPC: 0.233953 cumulative IPC: 0.231526 (Simulation time: 8 hr 36 min 17 sec) 
Heartbeat CPU 1 instructions: 1710000001 cycles: 4213650836 heartbeat IPC: 0.374498 cumulative IPC: 0.363674 (Simulation time: 8 hr 36 min 49 sec) 
Heartbeat CPU 3 instructions: 1820000000 cycles: 4227984538 heartbeat IPC: 0.315588 cumulative IPC: 0.383878 (Simulation time: 8 hr 38 min 22 sec) 
Heartbeat CPU 0 instructions: 1800000000 cycles: 4228354780 heartbeat IPC: 0.360745 cumulative IPC: 0.373856 (Simulation time: 8 hr 38 min 24 sec) 
Heartbeat CPU 1 instructions: 1720000000 cycles: 4241091996 heartbeat IPC: 0.364416 cumulative IPC: 0.363679 (Simulation time: 8 hr 39 min 39 sec) 
Heartbeat CPU 2 instructions: 1150000001 cycles: 4251092492 heartbeat IPC: 0.23533 cumulative IPC: 0.231565 (Simulation time: 8 hr 40 min 41 sec) 
Heartbeat CPU 0 instructions: 1810000000 cycles: 4256868904 heartbeat IPC: 0.350703 cumulative IPC: 0.373695 (Simulation time: 8 hr 41 min 15 sec) 
Heartbeat CPU 3 instructions: 1830000000 cycles: 4259435955 heartbeat IPC: 0.317951 cumulative IPC: 0.383374 (Simulation time: 8 hr 41 min 30 sec) 
Heartbeat CPU 1 instructions: 1730000002 cycles: 4269410275 heartbeat IPC: 0.353129 cumulative IPC: 0.363606 (Simulation time: 8 hr 42 min 29 sec) 
Heartbeat CPU 0 instructions: 1820000000 cycles: 4285247284 heartbeat IPC: 0.352381 cumulative IPC: 0.373549 (Simulation time: 8 hr 44 min 6 sec) 
Heartbeat CPU 3 instructions: 1840000000 cycles: 4289197354 heartbeat IPC: 0.336006 cumulative IPC: 0.383033 (Simulation time: 8 hr 44 min 29 sec) 
Heartbeat CPU 2 instructions: 1160000000 cycles: 4293800465 heartbeat IPC: 0.234148 cumulative IPC: 0.231592 (Simulation time: 8 hr 44 min 55 sec) 
Heartbeat CPU 1 instructions: 1740000000 cycles: 4297822797 heartbeat IPC: 0.351957 cumulative IPC: 0.363527 (Simulation time: 8 hr 45 min 20 sec) 
Heartbeat CPU 0 instructions: 1830000002 cycles: 4313856665 heartbeat IPC: 0.349536 cumulative IPC: 0.373384 (Simulation time: 8 hr 46 min 56 sec) 
Heartbeat CPU 3 instructions: 1850000000 cycles: 4320673576 heartbeat IPC: 0.3177 cumulative IPC: 0.38254 (Simulation time: 8 hr 47 min 37 sec) 
Heartbeat CPU 1 instructions: 1750000000 cycles: 4326397613 heartbeat IPC: 0.349959 cumulative IPC: 0.363434 (Simulation time: 8 hr 48 min 12 sec) 
Heartbeat CPU 2 instructions: 1170000000 cycles: 4337120952 heartbeat IPC: 0.230838 cumulative IPC: 0.231584 (Simulation time: 8 hr 49 min 15 sec) 
Heartbeat CPU 0 instructions: 1840000000 cycles: 4342141373 heartbeat IPC: 0.353548 cumulative IPC: 0.37325 (Simulation time: 8 hr 49 min 46 sec) 
Heartbeat CPU 3 instructions: 1860000000 cycles: 4347562857 heartbeat IPC: 0.371895 cumulative IPC: 0.382472 (Simulation time: 8 hr 50 min 20 sec) 
Heartbeat CPU 1 instructions: 1760000000 cycles: 4355894822 heartbeat IPC: 0.339015 cumulative IPC: 0.363263 (Simulation time: 8 hr 51 min 12 sec) 
Heartbeat CPU 0 instructions: 1850000000 cycles: 4370816261 heartbeat IPC: 0.348737 cumulative IPC: 0.373084 (Simulation time: 8 hr 52 min 43 sec) 
Heartbeat CPU 3 instructions: 1870000001 cycles: 4372167412 heartbeat IPC: 0.406429 cumulative IPC: 0.382612 (Simulation time: 8 hr 52 min 51 sec) 
Heartbeat CPU 2 instructions: 1180000000 cycles: 4379673651 heartbeat IPC: 0.235003 cumulative IPC: 0.231619 (Simulation time: 8 hr 53 min 36 sec) 
Heartbeat CPU 1 instructions: 1770000000 cycles: 4383832707 heartbeat IPC: 0.357937 cumulative IPC: 0.363228 (Simulation time: 8 hr 54 min 0 sec) 
Heartbeat CPU 0 instructions: 1860000000 cycles: 4399144276 heartbeat IPC: 0.353007 cumulative IPC: 0.37295 (Simulation time: 8 hr 55 min 34 sec) 
Heartbeat CPU 3 instructions: 1880000000 cycles: 4402791049 heartbeat IPC: 0.326545 cumulative IPC: 0.382208 (Simulation time: 8 hr 55 min 57 sec) 
Heartbeat CPU 1 instructions: 1780000000 cycles: 4411688714 heartbeat IPC: 0.358989 cumulative IPC: 0.3632 (Simulation time: 8 hr 56 min 50 sec) 
Heartbeat CPU 2 instructions: 1190000001 cycles: 4423117187 heartbeat IPC: 0.230184 cumulative IPC: 0.231604 (Simulation time: 8 hr 58 min 0 sec) 
Heartbeat CPU 0 instructions: 1870000002 cycles: 4427594029 heartbeat IPC: 0.351497 cumulative IPC: 0.372808 (Simulation time: 8 hr 58 min 28 sec) 
Heartbeat CPU 3 instructions: 1890000003 cycles: 4430533697 heartbeat IPC: 0.360456 cumulative IPC: 0.382067 (Simulation time: 8 hr 58 min 45 sec) 
Heartbeat CPU 1 instructions: 1790000002 cycles: 4441574541 heartbeat IPC: 0.334607 cumulative IPC: 0.363001 (Simulation time: 8 hr 59 min 51 sec) 
Heartbeat CPU 3 instructions: 1900000000 cycles: 4456071869 heartbeat IPC: 0.391571 cumulative IPC: 0.382123 (Simulation time: 9 hr 1 min 21 sec) 
Heartbeat CPU 0 instructions: 1880000000 cycles: 4456343093 heartbeat IPC: 0.347837 cumulative IPC: 0.372641 (Simulation time: 9 hr 1 min 23 sec) 
Heartbeat CPU 2 instructions: 1200000000 cycles: 4466024575 heartbeat IPC: 0.23306 cumulative IPC: 0.231619 (Simulation time: 9 hr 2 min 28 sec) 
Finished CPU 2 instructions: 1000000000 cycles: 4317444353 cumulative IPC: 0.231618 (Simulation time: 9 hr 2 min 28 sec) 

CPU 0 Branch Prediction Accuracy: 99.0892% MPKI: 1.63129

CPU 1 Branch Prediction Accuracy: 90.9777% MPKI: 16.0147

CPU 2 Branch Prediction Accuracy: 96.1636% MPKI: 5.73015

CPU 3 Branch Prediction Accuracy: 99.2718% MPKI: 1.77412

ChampSim completed all CPUs

Total Simulation Statistics (not including warmup)

CPU 0 cumulative IPC: 0.372598 instructions: 1608672228 cycles: 4317444353
L1D TOTAL     ACCESS:  630415603  HIT:  370578486  MISS:  259837117
L1D LOAD      ACCESS:  545370488  HIT:  286541116  MISS:  258829372
L1D RFO       ACCESS:   85045115  HIT:   84037370  MISS:    1007745
L1D PREFETCH  ACCESS:          0  HIT:          0  MISS:          0
L1D WRITEBACK ACCESS:          0  HIT:          0  MISS:          0
L1I TOTAL     ACCESS:  612756894  HIT:  612756878  MISS:         16
L1I LOAD      ACCESS:  612756894  HIT:  612756878  MISS:         16
L1I RFO       ACCESS:          0  HIT:          0  MISS:          0
L1I PREFETCH  ACCESS:          0  HIT:          0  MISS:          0
L1I WRITEBACK ACCESS:          0  HIT:          0  MISS:          0
L2C TOTAL     ACCESS:  295090543  HIT:   34638815  MISS:  260451728
L2C LOAD      ACCESS:  258829369  HIT:   27086381  MISS:  231742988
L2C RFO       ACCESS:    1007745  HIT:       8260  MISS:     999485
L2C PREFETCH  ACCESS:   33675988  HIT:    5976612  MISS:   27699376
L2C WRITEBACK ACCESS:    1577441  HIT:    1567562  MISS:       9879
LLC TOTAL     ACCESS:  643408181  HIT:  629909819  MISS:   13498362
LLC LOAD      ACCESS:  211962662  HIT:  208969602  MISS:    2993060
LLC RFO       ACCESS:     999295  HIT:      80509  MISS:     918786
LLC PREFETCH  ACCESS:  428879003  HIT:  419293048  MISS:    9585955
LLC WRITEBACK ACCESS:    1567221  HIT:    1566660  MISS:        561

CPU 1 cumulative IPC: 0.362972 instructions: 1567111717 cycles: 4317444353
L1D TOTAL     ACCESS:  546995331  HIT:  532924536  MISS:   14070795
L1D LOAD      ACCESS:  334311500  HIT:  322224018  MISS:   12087482
L1D RFO       ACCESS:  212683831  HIT:  210700518  MISS:    1983313
L1D PREFETCH  ACCESS:          0  HIT:          0  MISS:          0
L1D WRITEBACK ACCESS:          0  HIT:          0  MISS:          0
L1I TOTAL     ACCESS:  433280336  HIT:  425925964  MISS:    7354372
L1I LOAD      ACCESS:  433280336  HIT:  425925964  MISS:    7354372
L1I RFO       ACCESS:          0  HIT:          0  MISS:          0
L1I PREFETCH  ACCESS:          0  HIT:          0  MISS:          0
L1I WRITEBACK ACCESS:          0  HIT:          0  MISS:          0
L2C TOTAL     ACCESS:   45333603  HIT:   38824085  MISS:    6509518
L2C LOAD      ACCESS:   19441678  HIT:   14311320  MISS:    5130358
L2C RFO       ACCESS:    1983244  HIT:     872251  MISS:    1110993
L2C PREFETCH  ACCESS:   19993376  HIT:   19753282  MISS:     240094
L2C WRITEBACK ACCESS:    3915305  HIT:    3887232  MISS:      28073
LLC TOTAL     ACCESS:   19676229  HIT:   13634222  MISS:    6042007
LLC LOAD      ACCESS:    5085337  HIT:    3208322  MISS:    1877015
LLC RFO       ACCESS:    1110939  HIT:     447548  MISS:     663391
LLC PREFETCH  ACCESS:   11653691  HIT:    8500483  MISS:    3153208
LLC WRITEBACK ACCESS:    1826262  HIT:    1477869  MISS:     348393

CPU 2 cumulative IPC: 0.231618 instructions: 1000000000 cycles: 4317444353
L1D TOTAL     ACCESS:  448457488  HIT:  427859473  MISS:   20598015
L1D LOAD      ACCESS:  267171291  HIT:  249081315  MISS:   18089976
L1D RFO       ACCESS:  181286197  HIT:  178778158  MISS:    2508039
L1D PREFETCH  ACCESS:          0  HIT:          0  MISS:          0
L1D WRITEBACK ACCESS:          0  HIT:          0  MISS:          0
L1I TOTAL     ACCESS:  351179783  HIT:  350525362  MISS:     654421
L1I LOAD      ACCESS:  351179783  HIT:  350525362  MISS:     654421
L1I RFO       ACCESS:          0  HIT:          0  MISS:          0
L1I PREFETCH  ACCESS:          0  HIT:          0  MISS:          0
L1I WRITEBACK ACCESS:          0  HIT:          0  MISS:          0
L2C TOTAL     ACCESS:   35476750  HIT:   19996118  MISS:   15480632
L2C LOAD      ACCESS:   18743646  HIT:    5776891  MISS:   12966755
L2C RFO       ACCESS:    2507903  HIT:     433125  MISS:    2074778
L2C PREFETCH  ACCESS:    4457633  HIT:    4042956  MISS:     414677
L2C WRITEBACK ACCESS:    9767568  HIT:    9743146  MISS:      24422
LLC TOTAL     ACCESS:   41079707  HIT:   20284922  MISS:   20794785
LLC LOAD      ACCESS:   12964141  HIT:    4816796  MISS:    8147345
LLC RFO       ACCESS:    2074524  HIT:     972943  MISS:    1101581
LLC PREFETCH  ACCESS:   18612716  HIT:    7300417  MISS:   11312299
LLC WRITEBACK ACCESS:    7428326  HIT:    7194766  MISS:     233560

CPU 3 cumulative IPC: 0.382551 instructions: 1651644754 cycles: 4317444354
L1D TOTAL     ACCESS:  412022283  HIT:  324869183  MISS:   87153100
L1D LOAD      ACCESS:  296605695  HIT:  212030664  MISS:   84575031
L1D RFO       ACCESS:  115416588  HIT:  112838519  MISS:    2578069
L1D PREFETCH  ACCESS:          0  HIT:          0  MISS:          0
L1D WRITEBACK ACCESS:          0  HIT:          0  MISS:          0
L1I TOTAL     ACCESS:  718656640  HIT:  714543497  MISS:    4113143
L1I LOAD      ACCESS:  718656640  HIT:  714543497  MISS:    4113143
L1I RFO       ACCESS:          0  HIT:          0  MISS:          0
L1I PREFETCH  ACCESS:          0  HIT:          0  MISS:          0
L1I WRITEBACK ACCESS:          0  HIT:          0  MISS:          0
L2C TOTAL     ACCESS:  153847634  HIT:  120916183  MISS:   32931451
L2C LOAD      ACCESS:   88687687  HIT:   58695125  MISS:   29992562
L2C RFO       ACCESS:    2578019  HIT:     528928  MISS:    2049091
L2C PREFETCH  ACCESS:   58274112  HIT:   57384734  MISS:     889378
L2C WRITEBACK ACCESS:    4307816  HIT:    4307396  MISS:        420
LLC TOTAL     ACCESS:  105764037  HIT:  100287772  MISS:    5476265
LLC LOAD      ACCESS:   29543532  HIT:   28715644  MISS:     827888
LLC RFO       ACCESS:    2049058  HIT:     227416  MISS:    1821642
LLC PREFETCH  ACCESS:   71204880  HIT:   68498746  MISS:    2706134
LLC WRITEBACK ACCESS:    2966567  HIT:    2845966  MISS:     120601

Region of Interest Statistics

CPU 0 cumulative IPC: 0.380392 instructions: 1000000001 cycles: 2628864557
L1D TOTAL     ACCESS:  392012733  HIT:  232972207  MISS:  159040526
L1D LOAD      ACCESS:  335102047  HIT:  177059397  MISS:  158042650
L1D RFO       ACCESS:   56910686  HIT:   55912810  MISS:     997876
L1D PREFETCH  ACCESS:          0  HIT:          0  MISS:          0
L1D WRITEBACK ACCESS:          0  HIT:          0  MISS:          0
L1D PREFETCH  REQUESTED:          0  ISSUED:          0  USEFUL:          0  USELESS:          0
L1I TOTAL     ACCESS:  376483229  HIT:  376483213  MISS:         16
L1I LOAD      ACCESS:  376483229  HIT:  376483213  MISS:         16
L1I RFO       ACCESS:          0  HIT:          0  MISS:          0
L1I PREFETCH  ACCESS:          0  HIT:          0  MISS:          0
L1I WRITEBACK ACCESS:          0  HIT:          0  MISS:          0
L1I PREFETCH  REQUESTED:          0  ISSUED:          0  USEFUL:          0  USELESS:          0
L2C TOTAL     ACCESS:  181422273  HIT:   22001692  MISS:  159420581
L2C LOAD      ACCESS:  158042647  HIT:   16911384  MISS:  141131263
L2C RFO       ACCESS:     997876  HIT:       6650  MISS:     991226
L2C PREFETCH  ACCESS:   20822932  HIT:    3531774  MISS:   17291158
L2C WRITEBACK ACCESS:    1558818  HIT:    1551884  MISS:       6934
L2C PREFETCH  REQUESTED:  953278734  ISSUED:  953273896  USEFUL:   34377168  USELESS:     691576
LLC TOTAL     ACCESS:  397789827  HIT:  391292598  MISS:    6497229
LLC LOAD      ACCESS:  128749728  HIT:  127923642  MISS:     826086
LLC RFO       ACCESS:     991036  HIT:      72335  MISS:     918701
LLC PREFETCH  ACCESS:  266500387  HIT:  261748146  MISS:    4752241
LLC WRITEBACK ACCESS:    1548676  HIT:    1548475  MISS:        201
LLC PREFETCH  REQUESTED:          0  ISSUED:          0  USEFUL:    6248874  USELESS:   24824454
Major fault: 0 Minor fault: 47186

CPU 1 cumulative IPC: 0.360936 instructions: 1000000000 cycles: 2770576867
L1D TOTAL     ACCESS:  349352381  HIT:  339594918  MISS:    9757463
L1D LOAD      ACCESS:  214086548  HIT:  205537928  MISS:    8548620
L1D RFO       ACCESS:  135265833  HIT:  134056990  MISS:    1208843
L1D PREFETCH  ACCESS:          0  HIT:          0  MISS:          0
L1D WRITEBACK ACCESS:          0  HIT:          0  MISS:          0
L1D PREFETCH  REQUESTED:          0  ISSUED:          0  USEFUL:          0  USELESS:          0
L1I TOTAL     ACCESS:  272669477  HIT:  267922523  MISS:    4746954
L1I LOAD      ACCESS:  272669477  HIT:  267922523  MISS:    4746954
L1I RFO       ACCESS:          0  HIT:          0  MISS:          0
L1I PREFETCH  ACCESS:          0  HIT:          0  MISS:          0
L1I WRITEBACK ACCESS:          0  HIT:          0  MISS:          0
L1I PREFETCH  REQUESTED:          0  ISSUED:          0  USEFUL:          0  USELESS:          0
L2C TOTAL     ACCESS:   30052882  HIT:   25719446  MISS:    4333436
L2C LOAD      ACCESS:   13295454  HIT:    9851904  MISS:    3443550
L2C RFO       ACCESS:    1208793  HIT:     522088  MISS:     686705
L2C PREFETCH  ACCESS:   12998615  HIT:   12813888  MISS:     184727
L2C WRITEBACK ACCESS:    2550020  HIT:    2531566  MISS:      18454
L2C PREFETCH  REQUESTED:   41003578  ISSUED:   40991720  USEFUL:     191321  USELESS:     127557
LLC TOTAL     ACCESS:   13274531  HIT:    9677148  MISS:    3597383
LLC LOAD      ACCESS:    3406778  HIT:    2328681  MISS:    1078097
LLC RFO       ACCESS:     686660  HIT:     269991  MISS:     416669
LLC PREFETCH  ACCESS:    7975391  HIT:    6073738  MISS:    1901653
LLC WRITEBACK ACCESS:    1205702  HIT:    1004738  MISS:     200964
LLC PREFETCH  REQUESTED:          0  ISSUED:          0  USEFUL:    6248874  USELESS:   24824454
Major fault: 0 Minor fault: 31618

CPU 2 cumulative IPC: 0.231618 instructions: 1000000000 cycles: 4317444353
L1D TOTAL     ACCESS:  448457488  HIT:  427859473  MISS:   20598015
L1D LOAD      ACCESS:  267171291  HIT:  249081315  MISS:   18089976
L1D RFO       ACCESS:  181286197  HIT:  178778158  MISS:    2508039
L1D PREFETCH  ACCESS:          0  HIT:          0  MISS:          0
L1D WRITEBACK ACCESS:          0  HIT:          0  MISS:          0
L1D PREFETCH  REQUESTED:          0  ISSUED:          0  USEFUL:          0  USELESS:          0
L1I TOTAL     ACCESS:  351179783  HIT:  350525362  MISS:     654421
L1I LOAD      ACCESS:  351179783  HIT:  350525362  MISS:     654421
L1I RFO       ACCESS:          0  HIT:          0  MISS:          0
L1I PREFETCH  ACCESS:          0  HIT:          0  MISS:          0
L1I WRITEBACK ACCESS:          0  HIT:          0  MISS:          0
L1I PREFETCH  REQUESTED:          0  ISSUED:          0  USEFUL:          0  USELESS:          0
L2C TOTAL     ACCESS:   35476750  HIT:   19996118  MISS:   15480632
L2C LOAD      ACCESS:   18743646  HIT:    5776891  MISS:   12966755
L2C RFO       ACCESS:    2507903  HIT:     433125  MISS:    2074778
L2C PREFETCH  ACCESS:    4457633  HIT:    4042956  MISS:     414677
L2C WRITEBACK ACCESS:    9767568  HIT:    9743146  MISS:      24422
L2C PREFETCH  REQUESTED:   30612529  ISSUED:   30612523  USEFUL:     113044  USELESS:     395160
LLC TOTAL     ACCESS:   41079707  HIT:   20284922  MISS:   20794785
LLC LOAD      ACCESS:   12964141  HIT:    4816796  MISS:    8147345
LLC RFO       ACCESS:    2074524  HIT:     972943  MISS:    1101581
LLC PREFETCH  ACCESS:   18612716  HIT:    7300417  MISS:   11312299
LLC WRITEBACK ACCESS:    7428326  HIT:    7194766  MISS:     233560
LLC PREFETCH  REQUESTED:          0  ISSUED:          0  USEFUL:    6248874  USELESS:   24824454
Major fault: 0 Minor fault: 55545

CPU 3 cumulative IPC: 0.390438 instructions: 1000000002 cycles: 2561227798
L1D TOTAL     ACCESS:  242509666  HIT:  189869618  MISS:   52640048
L1D LOAD      ACCESS:  175588088  HIT:  124582995  MISS:   51005093
L1D RFO       ACCESS:   66921578  HIT:   65286623  MISS:    1634955
L1D PREFETCH  ACCESS:          0  HIT:          0  MISS:          0
L1D WRITEBACK ACCESS:          0  HIT:          0  MISS:          0
L1D PREFETCH  REQUESTED:          0  ISSUED:          0  USEFUL:          0  USELESS:          0
L1I TOTAL     ACCESS:  436787147  HIT:  434402616  MISS:    2384531
L1I LOAD      ACCESS:  436787147  HIT:  434402616  MISS:    2384531
L1I RFO       ACCESS:          0  HIT:          0  MISS:          0
L1I PREFETCH  ACCESS:          0  HIT:          0  MISS:          0
L1I WRITEBACK ACCESS:          0  HIT:          0  MISS:          0
L1I PREFETCH  REQUESTED:          0  ISSUED:          0  USEFUL:          0  USELESS:          0
L2C TOTAL     ACCESS:   95082151  HIT:   75295607  MISS:   19786544
L2C LOAD      ACCESS:   53389210  HIT:   35452215  MISS:   17936995
L2C RFO       ACCESS:    1634920  HIT:     338212  MISS:    1296708
L2C PREFETCH  ACCESS:   37353937  HIT:   36801354  MISS:     552583
L2C WRITEBACK ACCESS:    2704084  HIT:    2703826  MISS:        258
L2C PREFETCH  REQUESTED:  174862322  ISSUED:  174860145  USEFUL:     427834  USELESS:     683699
LLC TOTAL     ACCESS:   62462437  HIT:   59302928  MISS:    3159509
LLC LOAD      ACCESS:   17643796  HIT:   17190651  MISS:     453145
LLC RFO       ACCESS:    1296685  HIT:     136096  MISS:    1160589
LLC PREFETCH  ACCESS:   41684089  HIT:   40196458  MISS:    1487631
LLC WRITEBACK ACCESS:    1837867  HIT:    1779723  MISS:      58144
LLC PREFETCH  REQUESTED:          0  ISSUED:          0  USEFUL:    6248874  USELESS:   24824454
Major fault: 0 Minor fault: 6298

DRAM Statistics
 CHANNEL 0
 RQ ROW_BUFFER_HIT:    3625040  ROW_BUFFER_MISS:   18949346
 DBUS_CONGESTED:   19775345
 WQ ROW_BUFFER_HIT:     351093  ROW_BUFFER_MISS:    4817977  FULL:          0

 CHANNEL 1
 RQ ROW_BUFFER_HIT:    3629377  ROW_BUFFER_MISS:   18893264
 DBUS_CONGESTED:   19775345
 WQ ROW_BUFFER_HIT:     349961  ROW_BUFFER_MISS:    4811189  FULL:          0

 AVG_CONGESTED_CYCLE: 13
