Initialize SIGNATURE TABLE
ST_SET: 1
ST_WAY: 256
ST_TAG_BIT: 16
ST_TAG_MASK: ffff

Initialize PATTERN TABLE
PT_SET: 512
PT_WAY: 4
SIG_DELTA_BIT: 7
C_SIG_BIT: 4
C_DELTA_BIT: 4

Initialize PREFETCH FILTER
FILTER_SET: 1024

*** ChampSim Multicore Out-of-Order Simulator ***

Warmup Instructions: 200000000
Simulation Instructions: 1000000000
Number of CPUs: 4
LLC sets: 8192
LLC ways: 16
Off-chip DRAM Size: 8192 MB Channels: 2 Width: 64-bit Data Rate: 1600 MT/s

CPU 0 runs /scratch/user/djimenez/champsim-traces/speccpu2017/xz/654.roms_s/654.roms_s-523B.champsimtrace.xz
CPU 1 runs /scratch/user/djimenez/champsim-traces/speccpu2017/xz/605.mcf_s/605.mcf_s-782B.champsimtrace.xz
CPU 2 runs /scratch/user/djimenez/champsim-traces/speccpu2017/xz/603.bwaves_s/603.bwaves_s-891B.champsimtrace.xz
CPU 3 runs /scratch/user/djimenez/champsim-traces/speccpu2017/xz/654.roms_s/654.roms_s-1070B.champsimtrace.xz
Heartbeat CPU 2 instructions: 10000003 cycles: 3327885 heartbeat IPC: 3.00491 cumulative IPC: 3.00491 (Simulation time: 0 hr 1 min 20 sec) 
Heartbeat CPU 0 instructions: 10000001 cycles: 4633855 heartbeat IPC: 2.15803 cumulative IPC: 2.15803 (Simulation time: 0 hr 1 min 50 sec) 
Heartbeat CPU 3 instructions: 10000001 cycles: 4953338 heartbeat IPC: 2.01884 cumulative IPC: 2.01884 (Simulation time: 0 hr 1 min 57 sec) 
Heartbeat CPU 2 instructions: 20000000 cycles: 6600714 heartbeat IPC: 3.05546 cumulative IPC: 3.02998 (Simulation time: 0 hr 2 min 34 sec) 
Heartbeat CPU 1 instructions: 10000001 cycles: 6753689 heartbeat IPC: 1.48067 cumulative IPC: 1.48067 (Simulation time: 0 hr 2 min 38 sec) 
Heartbeat CPU 0 instructions: 20000000 cycles: 9053455 heartbeat IPC: 2.26265 cumulative IPC: 2.2091 (Simulation time: 0 hr 3 min 31 sec) 
Heartbeat CPU 3 instructions: 20000000 cycles: 10013811 heartbeat IPC: 1.9761 cumulative IPC: 1.99724 (Simulation time: 0 hr 3 min 53 sec) 
Heartbeat CPU 2 instructions: 30000003 cycles: 10054269 heartbeat IPC: 2.89557 cumulative IPC: 2.98381 (Simulation time: 0 hr 3 min 54 sec) 
Heartbeat CPU 2 instructions: 40000000 cycles: 13415119 heartbeat IPC: 2.97544 cumulative IPC: 2.98171 (Simulation time: 0 hr 5 min 14 sec) 
Heartbeat CPU 1 instructions: 20000000 cycles: 13827171 heartbeat IPC: 1.41373 cumulative IPC: 1.44643 (Simulation time: 0 hr 5 min 24 sec) 
Heartbeat CPU 0 instructions: 30000002 cycles: 14759968 heartbeat IPC: 1.75238 cumulative IPC: 2.03252 (Simulation time: 0 hr 5 min 46 sec) 
Heartbeat CPU 3 instructions: 30000002 cycles: 14945399 heartbeat IPC: 2.02774 cumulative IPC: 2.00731 (Simulation time: 0 hr 5 min 50 sec) 
Heartbeat CPU 2 instructions: 50000001 cycles: 16733737 heartbeat IPC: 3.0133 cumulative IPC: 2.98798 (Simulation time: 0 hr 6 min 28 sec) 
Heartbeat CPU 0 instructions: 40000000 cycles: 19496427 heartbeat IPC: 2.11128 cumulative IPC: 2.05166 (Simulation time: 0 hr 7 min 29 sec) 
Heartbeat CPU 3 instructions: 40000000 cycles: 20017180 heartbeat IPC: 1.97169 cumulative IPC: 1.99828 (Simulation time: 0 hr 7 min 40 sec) 
Heartbeat CPU 2 instructions: 60000000 cycles: 20035120 heartbeat IPC: 3.02903 cumulative IPC: 2.99474 (Simulation time: 0 hr 7 min 40 sec) 
Heartbeat CPU 1 instructions: 30000000 cycles: 20282898 heartbeat IPC: 1.54901 cumulative IPC: 1.47908 (Simulation time: 0 hr 7 min 46 sec) 
Heartbeat CPU 2 instructions: 70000000 cycles: 23338013 heartbeat IPC: 3.02765 cumulative IPC: 2.9994 (Simulation time: 0 hr 8 min 51 sec) 
Heartbeat CPU 0 instructions: 50000001 cycles: 24806011 heartbeat IPC: 1.88339 cumulative IPC: 2.01564 (Simulation time: 0 hr 9 min 23 sec) 
Heartbeat CPU 3 instructions: 50000000 cycles: 25048926 heartbeat IPC: 1.98738 cumulative IPC: 1.99609 (Simulation time: 0 hr 9 min 28 sec) 
Heartbeat CPU 1 instructions: 40000000 cycles: 26531932 heartbeat IPC: 1.60025 cumulative IPC: 1.50762 (Simulation time: 0 hr 10 min 1 sec) 
Heartbeat CPU 2 instructions: 80000000 cycles: 26640550 heartbeat IPC: 3.02798 cumulative IPC: 3.00294 (Simulation time: 0 hr 10 min 4 sec) 
Heartbeat CPU 2 instructions: 90000000 cycles: 29943635 heartbeat IPC: 3.02747 cumulative IPC: 3.00565 (Simulation time: 0 hr 11 min 14 sec) 
Heartbeat CPU 3 instructions: 60000000 cycles: 29997837 heartbeat IPC: 2.02065 cumulative IPC: 2.00014 (Simulation time: 0 hr 11 min 15 sec) 
Heartbeat CPU 0 instructions: 60000000 cycles: 30016700 heartbeat IPC: 1.91913 cumulative IPC: 1.99889 (Simulation time: 0 hr 11 min 16 sec) 
Heartbeat CPU 1 instructions: 50000000 cycles: 32748538 heartbeat IPC: 1.60859 cumulative IPC: 1.52679 (Simulation time: 0 hr 12 min 17 sec) 
Heartbeat CPU 2 instructions: 100000000 cycles: 33247746 heartbeat IPC: 3.02653 cumulative IPC: 3.00772 (Simulation time: 0 hr 12 min 28 sec) 
Heartbeat CPU 3 instructions: 70000003 cycles: 35050593 heartbeat IPC: 1.97912 cumulative IPC: 1.99711 (Simulation time: 0 hr 13 min 14 sec) 
Heartbeat CPU 0 instructions: 70000002 cycles: 35063832 heartbeat IPC: 1.98132 cumulative IPC: 1.99636 (Simulation time: 0 hr 13 min 14 sec) 
Heartbeat CPU 2 instructions: 110000002 cycles: 36550833 heartbeat IPC: 3.02747 cumulative IPC: 3.00951 (Simulation time: 0 hr 13 min 49 sec) 
Heartbeat CPU 1 instructions: 60000000 cycles: 38937034 heartbeat IPC: 1.6159 cumulative IPC: 1.54095 (Simulation time: 0 hr 14 min 44 sec) 
Heartbeat CPU 2 instructions: 120000000 cycles: 39853153 heartbeat IPC: 3.02817 cumulative IPC: 3.01105 (Simulation time: 0 hr 15 min 7 sec) 
Heartbeat CPU 3 instructions: 80000000 cycles: 39963337 heartbeat IPC: 2.03552 cumulative IPC: 2.00183 (Simulation time: 0 hr 15 min 10 sec) 
Heartbeat CPU 0 instructions: 80000000 cycles: 40181516 heartbeat IPC: 1.95401 cumulative IPC: 1.99097 (Simulation time: 0 hr 15 min 15 sec) 
Heartbeat CPU 2 instructions: 130000003 cycles: 43155599 heartbeat IPC: 3.02806 cumulative IPC: 3.01236 (Simulation time: 0 hr 16 min 31 sec) 
Heartbeat CPU 0 instructions: 90000002 cycles: 44820874 heartbeat IPC: 2.15547 cumulative IPC: 2.00799 (Simulation time: 0 hr 17 min 8 sec) 
Heartbeat CPU 3 instructions: 90000001 cycles: 45043167 heartbeat IPC: 1.96857 cumulative IPC: 1.99808 (Simulation time: 0 hr 17 min 13 sec) 
Heartbeat CPU 1 instructions: 70000001 cycles: 45137627 heartbeat IPC: 1.61275 cumulative IPC: 1.55081 (Simulation time: 0 hr 17 min 15 sec) 
Heartbeat CPU 2 instructions: 140000000 cycles: 46457761 heartbeat IPC: 3.02832 cumulative IPC: 3.01349 (Simulation time: 0 hr 17 min 44 sec) 
Heartbeat CPU 0 instructions: 100000000 cycles: 49113386 heartbeat IPC: 2.32964 cumulative IPC: 2.0361 (Simulation time: 0 hr 18 min 44 sec) 
Heartbeat CPU 2 instructions: 150000000 cycles: 49755369 heartbeat IPC: 3.0325 cumulative IPC: 3.01475 (Simulation time: 0 hr 18 min 59 sec) 
Heartbeat CPU 3 instructions: 100000000 cycles: 50078352 heartbeat IPC: 1.98602 cumulative IPC: 1.99687 (Simulation time: 0 hr 19 min 6 sec) 
Heartbeat CPU 1 instructions: 80000000 cycles: 51540303 heartbeat IPC: 1.56185 cumulative IPC: 1.55218 (Simulation time: 0 hr 19 min 42 sec) 
Heartbeat CPU 2 instructions: 160000000 cycles: 53049916 heartbeat IPC: 3.03532 cumulative IPC: 3.01603 (Simulation time: 0 hr 20 min 17 sec) 
Heartbeat CPU 0 instructions: 110000002 cycles: 54762782 heartbeat IPC: 1.7701 cumulative IPC: 2.00866 (Simulation time: 0 hr 20 min 56 sec) 
Heartbeat CPU 3 instructions: 110000001 cycles: 55036872 heartbeat IPC: 2.01673 cumulative IPC: 1.99866 (Simulation time: 0 hr 21 min 2 sec) 
Heartbeat CPU 2 instructions: 170000003 cycles: 56350029 heartbeat IPC: 3.0302 cumulative IPC: 3.01686 (Simulation time: 0 hr 21 min 32 sec) 
Heartbeat CPU 1 instructions: 90000003 cycles: 57951755 heartbeat IPC: 1.55971 cumulative IPC: 1.55302 (Simulation time: 0 hr 22 min 11 sec) 
Heartbeat CPU 0 instructions: 120000000 cycles: 59537428 heartbeat IPC: 2.0944 cumulative IPC: 2.01554 (Simulation time: 0 hr 22 min 48 sec) 
Heartbeat CPU 2 instructions: 180000000 cycles: 59646470 heartbeat IPC: 3.03357 cumulative IPC: 3.01778 (Simulation time: 0 hr 22 min 51 sec) 
Heartbeat CPU 3 instructions: 120000000 cycles: 60082838 heartbeat IPC: 1.98178 cumulative IPC: 1.99724 (Simulation time: 0 hr 23 min 1 sec) 
Heartbeat CPU 2 instructions: 190000002 cycles: 62921773 heartbeat IPC: 3.05315 cumulative IPC: 3.01962 (Simulation time: 0 hr 24 min 8 sec) 
Heartbeat CPU 1 instructions: 100000000 cycles: 64432747 heartbeat IPC: 1.54297 cumulative IPC: 1.55201 (Simulation time: 0 hr 24 min 48 sec) 
Heartbeat CPU 0 instructions: 130000001 cycles: 64832250 heartbeat IPC: 1.88864 cumulative IPC: 2.00517 (Simulation time: 0 hr 24 min 58 sec) 
Heartbeat CPU 3 instructions: 130000001 cycles: 65007604 heartbeat IPC: 2.03055 cumulative IPC: 1.99977 (Simulation time: 0 hr 25 min 2 sec) 
Heartbeat CPU 2 instructions: 200000000 cycles: 66152635 heartbeat IPC: 3.09515 cumulative IPC: 3.02331 (Simulation time: 0 hr 25 min 32 sec) 
Heartbeat CPU 2 instructions: 210000002 cycles: 69360991 heartbeat IPC: 3.11686 cumulative IPC: 0.144173 (Simulation time: 0 hr 26 min 49 sec) 
Heartbeat CPU 0 instructions: 140000000 cycles: 70034861 heartbeat IPC: 1.92211 cumulative IPC: 1.999 (Simulation time: 0 hr 27 min 4 sec) 
Heartbeat CPU 3 instructions: 140000000 cycles: 70073867 heartbeat IPC: 1.97384 cumulative IPC: 1.99789 (Simulation time: 0 hr 27 min 5 sec) 
Heartbeat CPU 1 instructions: 110000002 cycles: 70947034 heartbeat IPC: 1.53509 cumulative IPC: 1.55045 (Simulation time: 0 hr 27 min 25 sec) 
Heartbeat CPU 2 instructions: 220000000 cycles: 72578805 heartbeat IPC: 3.1077 cumulative IPC: 0.275563 (Simulation time: 0 hr 28 min 3 sec) 
Heartbeat CPU 3 instructions: 150000003 cycles: 75071015 heartbeat IPC: 2.00114 cumulative IPC: 1.99811 (Simulation time: 0 hr 29 min 4 sec) 
Heartbeat CPU 0 instructions: 150000003 cycles: 75127942 heartbeat IPC: 1.96345 cumulative IPC: 1.99659 (Simulation time: 0 hr 29 min 6 sec) 
Heartbeat CPU 2 instructions: 230000001 cycles: 75840064 heartbeat IPC: 3.0663 cumulative IPC: 0.395569 (Simulation time: 0 hr 29 min 23 sec) 
Heartbeat CPU 1 instructions: 120000000 cycles: 77539740 heartbeat IPC: 1.51683 cumulative IPC: 1.54759 (Simulation time: 0 hr 30 min 5 sec) 
Heartbeat CPU 2 instructions: 240000000 cycles: 79063790 heartbeat IPC: 3.102 cumulative IPC: 0.505921 (Simulation time: 0 hr 30 min 41 sec) 
Heartbeat CPU 3 instructions: 160000000 cycles: 80061381 heartbeat IPC: 2.00386 cumulative IPC: 1.99847 (Simulation time: 0 hr 31 min 5 sec) 
Heartbeat CPU 0 instructions: 160000000 cycles: 80231341 heartbeat IPC: 1.95948 cumulative IPC: 1.99423 (Simulation time: 0 hr 31 min 9 sec) 
Heartbeat CPU 2 instructions: 250000001 cycles: 82296879 heartbeat IPC: 3.09302 cumulative IPC: 0.607556 (Simulation time: 0 hr 32 min 0 sec) 
Heartbeat CPU 1 instructions: 130000002 cycles: 83969830 heartbeat IPC: 1.55519 cumulative IPC: 1.54818 (Simulation time: 0 hr 32 min 39 sec) 
Heartbeat CPU 0 instructions: 170000002 cycles: 84913435 heartbeat IPC: 2.1358 cumulative IPC: 2.00204 (Simulation time: 0 hr 33 min 7 sec) 
Heartbeat CPU 3 instructions: 170000001 cycles: 85110803 heartbeat IPC: 1.98042 cumulative IPC: 1.9974 (Simulation time: 0 hr 33 min 13 sec) 
Heartbeat CPU 2 instructions: 260000000 cycles: 85507403 heartbeat IPC: 3.11476 cumulative IPC: 0.701694 (Simulation time: 0 hr 33 min 23 sec) 
Heartbeat CPU 2 instructions: 270000001 cycles: 88767051 heartbeat IPC: 3.06782 cumulative IPC: 0.788581 (Simulation time: 0 hr 34 min 46 sec) 
Heartbeat CPU 0 instructions: 180000000 cycles: 89178421 heartbeat IPC: 2.34467 cumulative IPC: 2.01843 (Simulation time: 0 hr 34 min 57 sec) 
Heartbeat CPU 3 instructions: 180000000 cycles: 90044075 heartbeat IPC: 2.02705 cumulative IPC: 1.99902 (Simulation time: 0 hr 35 min 19 sec) 
Heartbeat CPU 1 instructions: 140000000 cycles: 90509677 heartbeat IPC: 1.52909 cumulative IPC: 1.5468 (Simulation time: 0 hr 35 min 31 sec) 
Heartbeat CPU 2 instructions: 280000000 cycles: 92160564 heartbeat IPC: 2.9468 cumulative IPC: 0.86805 (Simulation time: 0 hr 36 min 14 sec) 
Heartbeat CPU 0 instructions: 190000001 cycles: 94838073 heartbeat IPC: 1.76689 cumulative IPC: 2.00341 (Simulation time: 0 hr 37 min 24 sec) 
Heartbeat CPU 3 instructions: 190000000 cycles: 95099597 heartbeat IPC: 1.97804 cumulative IPC: 1.99791 (Simulation time: 0 hr 37 min 31 sec) 
Heartbeat CPU 2 instructions: 290000000 cycles: 95449279 heartbeat IPC: 3.0407 cumulative IPC: 0.942909 (Simulation time: 0 hr 37 min 40 sec) 
Heartbeat CPU 1 instructions: 150000003 cycles: 97089138 heartbeat IPC: 1.51988 cumulative IPC: 1.54497 (Simulation time: 0 hr 38 min 23 sec) 
Heartbeat CPU 2 instructions: 300000000 cycles: 98814903 heartbeat IPC: 2.97122 cumulative IPC: 1.01199 (Simulation time: 0 hr 39 min 9 sec) 
Heartbeat CPU 0 instructions: 200000000 cycles: 99692499 heartbeat IPC: 2.05998 cumulative IPC: 2.00617 (Simulation time: 0 hr 39 min 33 sec) 
Heartbeat CPU 3 instructions: 200000000 cycles: 100150065 heartbeat IPC: 1.98001 cumulative IPC: 1.997 (Simulation time: 0 hr 39 min 45 sec) 
Heartbeat CPU 2 instructions: 310000003 cycles: 102077538 heartbeat IPC: 3.06501 cumulative IPC: 1.07761 (Simulation time: 0 hr 40 min 36 sec) 
Heartbeat CPU 1 instructions: 160000000 cycles: 103686576 heartbeat IPC: 1.51574 cumulative IPC: 1.54311 (Simulation time: 0 hr 41 min 17 sec) 
Heartbeat CPU 0 instructions: 210000000 cycles: 104971874 heartbeat IPC: 1.89416 cumulative IPC: 0.0952636 (Simulation time: 0 hr 41 min 48 sec) 
Heartbeat CPU 3 instructions: 210000002 cycles: 105041982 heartbeat IPC: 2.04419 cumulative IPC: 0.0952 (Simulation time: 0 hr 41 min 50 sec) 
Heartbeat CPU 2 instructions: 320000000 cycles: 105282364 heartbeat IPC: 3.12029 cumulative IPC: 1.13979 (Simulation time: 0 hr 41 min 56 sec) 
Heartbeat CPU 2 instructions: 330000002 cycles: 108499339 heartbeat IPC: 3.10851 cumulative IPC: 1.19816 (Simulation time: 0 hr 43 min 16 sec) 
Heartbeat CPU 1 instructions: 170000000 cycles: 110074575 heartbeat IPC: 1.56544 cumulative IPC: 1.54441 (Simulation time: 0 hr 43 min 54 sec) 
Heartbeat CPU 3 instructions: 220000000 cycles: 110125079 heartbeat IPC: 1.9673 cumulative IPC: 0.181612 (Simulation time: 0 hr 43 min 55 sec) 
Heartbeat CPU 0 instructions: 220000000 cycles: 110156891 heartbeat IPC: 1.92863 cumulative IPC: 0.181559 (Simulation time: 0 hr 43 min 56 sec) 
Heartbeat CPU 2 instructions: 340000000 cycles: 111710386 heartbeat IPC: 3.11425 cumulative IPC: 1.25324 (Simulation time: 0 hr 44 min 34 sec) 
Heartbeat CPU 2 instructions: 350000002 cycles: 114971438 heartbeat IPC: 3.0665 cumulative IPC: 1.30467 (Simulation time: 0 hr 45 min 55 sec) 
Heartbeat CPU 3 instructions: 230000001 cycles: 115112285 heartbeat IPC: 2.00513 cumulative IPC: 0.260615 (Simulation time: 0 hr 45 min 58 sec) 
Heartbeat CPU 0 instructions: 230000003 cycles: 115274972 heartbeat IPC: 1.95386 cumulative IPC: 0.260247 (Simulation time: 0 hr 46 min 2 sec) 
Heartbeat CPU 1 instructions: 180000000 cycles: 116594894 heartbeat IPC: 1.53367 cumulative IPC: 1.54381 (Simulation time: 0 hr 46 min 35 sec) 
Heartbeat CPU 2 instructions: 360000000 cycles: 118298445 heartbeat IPC: 3.0057 cumulative IPC: 1.35251 (Simulation time: 0 hr 47 min 18 sec) 
Heartbeat CPU 3 instructions: 240000000 cycles: 120107597 heartbeat IPC: 2.00188 cumulative IPC: 0.333035 (Simulation time: 0 hr 48 min 3 sec) 
Heartbeat CPU 0 instructions: 240000000 cycles: 120358380 heartbeat IPC: 1.96718 cumulative IPC: 0.332341 (Simulation time: 0 hr 48 min 9 sec) 
Heartbeat CPU 2 instructions: 370000003 cycles: 121618689 heartbeat IPC: 3.01183 cumulative IPC: 1.39781 (Simulation time: 0 hr 48 min 40 sec) 
Heartbeat CPU 1 instructions: 190000002 cycles: 123205534 heartbeat IPC: 1.51271 cumulative IPC: 1.54214 (Simulation time: 0 hr 49 min 19 sec) 
Heartbeat CPU 2 instructions: 380000000 cycles: 124938196 heartbeat IPC: 3.01249 cumulative IPC: 1.44071 (Simulation time: 0 hr 49 min 59 sec) 
Heartbeat CPU 0 instructions: 250000000 cycles: 125063380 heartbeat IPC: 2.1254 cumulative IPC: 0.399797 (Simulation time: 0 hr 50 min 2 sec) 
Heartbeat CPU 3 instructions: 250000000 cycles: 125191507 heartbeat IPC: 1.96699 cumulative IPC: 0.399388 (Simulation time: 0 hr 50 min 5 sec) 
Heartbeat CPU 2 instructions: 390000001 cycles: 128277903 heartbeat IPC: 2.99427 cumulative IPC: 1.48116 (Simulation time: 0 hr 51 min 17 sec) 
Heartbeat CPU 0 instructions: 260000000 cycles: 129264798 heartbeat IPC: 2.38015 cumulative IPC: 0.464163 (Simulation time: 0 hr 51 min 40 sec) 
Heartbeat CPU 1 instructions: 200000000 cycles: 130058333 heartbeat IPC: 1.45926 cumulative IPC: 1.53777 (Simulation time: 0 hr 51 min 59 sec) 

Warmup complete CPU 0 instructions: 261409040 cycles: 130058334 (Simulation time: 0 hr 51 min 59 sec) 
Warmup complete CPU 1 instructions: 200000001 cycles: 130058334 (Simulation time: 0 hr 51 min 59 sec) 
Warmup complete CPU 2 instructions: 395020280 cycles: 130058333 (Simulation time: 0 hr 51 min 59 sec) 
Warmup complete CPU 3 instructions: 259943962 cycles: 130058333 (Simulation time: 0 hr 51 min 59 sec) 

Heartbeat CPU 3 instructions: 260000000 cycles: 130107359 heartbeat IPC: 2.03424 cumulative IPC: 1.14303 (Simulation time: 0 hr 52 min 0 sec) 
Heartbeat CPU 2 instructions: 400000000 cycles: 136790905 heartbeat IPC: 1.17467 cumulative IPC: 0.739646 (Simulation time: 0 hr 53 min 8 sec) 
Heartbeat CPU 3 instructions: 270000002 cycles: 139383731 heartbeat IPC: 1.07801 cumulative IPC: 1.07835 (Simulation time: 0 hr 53 min 35 sec) 
Heartbeat CPU 0 instructions: 270000000 cycles: 143128872 heartbeat IPC: 0.721289 cumulative IPC: 0.657277 (Simulation time: 0 hr 54 min 14 sec) 
Heartbeat CPU 2 instructions: 410000003 cycles: 151502311 heartbeat IPC: 0.679745 cumulative IPC: 0.698551 (Simulation time: 0 hr 55 min 27 sec) 
Heartbeat CPU 3 instructions: 280000000 cycles: 152904184 heartbeat IPC: 0.73962 cumulative IPC: 0.877885 (Simulation time: 0 hr 55 min 39 sec) 
Heartbeat CPU 0 instructions: 280000000 cycles: 159119475 heartbeat IPC: 0.625367 cumulative IPC: 0.639719 (Simulation time: 0 hr 56 min 32 sec) 
Heartbeat CPU 2 instructions: 420000000 cycles: 165128738 heartbeat IPC: 0.733868 cumulative IPC: 0.712273 (Simulation time: 0 hr 57 min 33 sec) 
Heartbeat CPU 3 instructions: 290000000 cycles: 165591834 heartbeat IPC: 0.788168 cumulative IPC: 0.845851 (Simulation time: 0 hr 57 min 38 sec) 
Heartbeat CPU 0 instructions: 290000002 cycles: 170709531 heartbeat IPC: 0.862809 cumulative IPC: 0.703324 (Simulation time: 0 hr 58 min 35 sec) 
Heartbeat CPU 3 instructions: 300000000 cycles: 174871866 heartbeat IPC: 1.07758 cumulative IPC: 0.893838 (Simulation time: 0 hr 59 min 18 sec) 
Heartbeat CPU 2 instructions: 430000000 cycles: 178533540 heartbeat IPC: 0.746001 cumulative IPC: 0.7216 (Simulation time: 0 hr 59 min 49 sec) 
Heartbeat CPU 0 instructions: 300000000 cycles: 184369062 heartbeat IPC: 0.732089 cumulative IPC: 0.710559 (Simulation time: 1 hr 0 min 46 sec) 
Heartbeat CPU 3 instructions: 310000001 cycles: 191478283 heartbeat IPC: 0.602177 cumulative IPC: 0.81498 (Simulation time: 1 hr 2 min 0 sec) 
Heartbeat CPU 2 instructions: 440000000 cycles: 191741060 heartbeat IPC: 0.757144 cumulative IPC: 0.729211 (Simulation time: 1 hr 2 min 2 sec) 
Heartbeat CPU 0 instructions: 310000001 cycles: 197108270 heartbeat IPC: 0.784978 cumulative IPC: 0.724698 (Simulation time: 1 hr 2 min 58 sec) 
Heartbeat CPU 3 instructions: 320000000 cycles: 201083336 heartbeat IPC: 1.04112 cumulative IPC: 0.845562 (Simulation time: 1 hr 3 min 43 sec) 
Heartbeat CPU 2 instructions: 450000003 cycles: 205054314 heartbeat IPC: 0.751131 cumulative IPC: 0.733102 (Simulation time: 1 hr 4 min 30 sec) 
Heartbeat CPU 0 instructions: 320000000 cycles: 207822404 heartbeat IPC: 0.933346 cumulative IPC: 0.753445 (Simulation time: 1 hr 5 min 0 sec) 
Heartbeat CPU 3 instructions: 330000003 cycles: 214082481 heartbeat IPC: 0.769282 cumulative IPC: 0.833761 (Simulation time: 1 hr 5 min 56 sec) 
Heartbeat CPU 0 instructions: 330000002 cycles: 219173990 heartbeat IPC: 0.880934 cumulative IPC: 0.769685 (Simulation time: 1 hr 6 min 47 sec) 
Heartbeat CPU 2 instructions: 460000000 cycles: 219508768 heartbeat IPC: 0.691828 cumulative IPC: 0.726433 (Simulation time: 1 hr 6 min 50 sec) 
Heartbeat CPU 1 instructions: 210000002 cycles: 221670899 heartbeat IPC: 0.109155 cumulative IPC: 0.109155 (Simulation time: 1 hr 7 min 13 sec) 
Heartbeat CPU 3 instructions: 340000000 cycles: 227092166 heartbeat IPC: 0.768658 cumulative IPC: 0.825032 (Simulation time: 1 hr 8 min 14 sec) 
Heartbeat CPU 0 instructions: 340000000 cycles: 228769401 heartbeat IPC: 1.04216 cumulative IPC: 0.796172 (Simulation time: 1 hr 8 min 33 sec) 
Heartbeat CPU 2 instructions: 470000001 cycles: 232472127 heartbeat IPC: 0.771405 cumulative IPC: 0.732125 (Simulation time: 1 hr 9 min 12 sec) 
Heartbeat CPU 3 instructions: 350000002 cycles: 236083547 heartbeat IPC: 1.11218 cumulative IPC: 0.849383 (Simulation time: 1 hr 9 min 51 sec) 
Heartbeat CPU 0 instructions: 350000001 cycles: 245057669 heartbeat IPC: 0.613939 cumulative IPC: 0.770361 (Simulation time: 1 hr 11 min 14 sec) 
Heartbeat CPU 2 instructions: 480000000 cycles: 247160000 heartbeat IPC: 0.680834 cumulative IPC: 0.725692 (Simulation time: 1 hr 11 min 34 sec) 
Heartbeat CPU 3 instructions: 360000000 cycles: 252395069 heartbeat IPC: 0.613063 cumulative IPC: 0.817874 (Simulation time: 1 hr 12 min 22 sec) 
Heartbeat CPU 0 instructions: 360000000 cycles: 260488074 heartbeat IPC: 0.648071 cumulative IPC: 0.755893 (Simulation time: 1 hr 13 min 45 sec) 
Heartbeat CPU 2 instructions: 490000001 cycles: 260554861 heartbeat IPC: 0.746555 cumulative IPC: 0.727833 (Simulation time: 1 hr 13 min 46 sec) 
Heartbeat CPU 3 instructions: 370000000 cycles: 262154206 heartbeat IPC: 1.02468 cumulative IPC: 0.833153 (Simulation time: 1 hr 14 min 3 sec) 
Heartbeat CPU 0 instructions: 370000000 cycles: 272324222 heartbeat IPC: 0.844869 cumulative IPC: 0.763296 (Simulation time: 1 hr 15 min 53 sec) 
Heartbeat CPU 3 instructions: 380000000 cycles: 273823426 heartbeat IPC: 0.856955 cumulative IPC: 0.835085 (Simulation time: 1 hr 16 min 7 sec) 
Heartbeat CPU 2 instructions: 500000000 cycles: 274635385 heartbeat IPC: 0.710201 cumulative IPC: 0.726116 (Simulation time: 1 hr 16 min 15 sec) 
Heartbeat CPU 0 instructions: 380000000 cycles: 285544793 heartbeat IPC: 0.756397 cumulative IPC: 0.762709 (Simulation time: 1 hr 18 min 0 sec) 
Heartbeat CPU 2 instructions: 510000000 cycles: 287755646 heartbeat IPC: 0.76218 cumulative IPC: 0.729117 (Simulation time: 1 hr 18 min 26 sec) 
Heartbeat CPU 3 instructions: 390000000 cycles: 287888917 heartbeat IPC: 0.71096 cumulative IPC: 0.824023 (Simulation time: 1 hr 18 min 28 sec) 
Heartbeat CPU 3 instructions: 400000000 cycles: 297143789 heartbeat IPC: 1.08051 cumulative IPC: 0.83823 (Simulation time: 1 hr 20 min 10 sec) 
Heartbeat CPU 0 instructions: 390000001 cycles: 298052945 heartbeat IPC: 0.799479 cumulative IPC: 0.765447 (Simulation time: 1 hr 20 min 19 sec) 
Heartbeat CPU 2 instructions: 520000000 cycles: 301191340 heartbeat IPC: 0.744286 cumulative IPC: 0.730308 (Simulation time: 1 hr 20 min 51 sec) 
Heartbeat CPU 0 instructions: 400000000 cycles: 309258071 heartbeat IPC: 0.892449 cumulative IPC: 0.773388 (Simulation time: 1 hr 22 min 12 sec) 
Heartbeat CPU 3 instructions: 410000002 cycles: 312385001 heartbeat IPC: 0.656116 cumulative IPC: 0.823007 (Simulation time: 1 hr 22 min 42 sec) 
Heartbeat CPU 1 instructions: 220000000 cycles: 313396604 heartbeat IPC: 0.109021 cumulative IPC: 0.109088 (Simulation time: 1 hr 22 min 52 sec) 
Heartbeat CPU 2 instructions: 530000000 cycles: 315335757 heartbeat IPC: 0.706993 cumulative IPC: 0.728528 (Simulation time: 1 hr 23 min 11 sec) 
Heartbeat CPU 0 instructions: 410000002 cycles: 320280965 heartbeat IPC: 0.907203 cumulative IPC: 0.781142 (Simulation time: 1 hr 24 min 7 sec) 
Heartbeat CPU 3 instructions: 420000000 cycles: 323299174 heartbeat IPC: 0.91624 cumulative IPC: 0.828272 (Simulation time: 1 hr 24 min 42 sec) 
Heartbeat CPU 2 instructions: 540000000 cycles: 328235213 heartbeat IPC: 0.775226 cumulative IPC: 0.731567 (Simulation time: 1 hr 25 min 40 sec) 
Heartbeat CPU 0 instructions: 420000000 cycles: 329564592 heartbeat IPC: 1.07717 cumulative IPC: 0.794917 (Simulation time: 1 hr 25 min 54 sec) 
Heartbeat CPU 3 instructions: 430000000 cycles: 334311374 heartbeat IPC: 0.908084 cumulative IPC: 0.832575 (Simulation time: 1 hr 26 min 37 sec) 
Heartbeat CPU 2 instructions: 550000003 cycles: 342290521 heartbeat IPC: 0.711475 cumulative IPC: 0.730237 (Simulation time: 1 hr 27 min 50 sec) 
Heartbeat CPU 0 instructions: 430000001 cycles: 346120779 heartbeat IPC: 0.604004 cumulative IPC: 0.780288 (Simulation time: 1 hr 28 min 27 sec) 
Heartbeat CPU 3 instructions: 440000000 cycles: 349313367 heartbeat IPC: 0.666578 cumulative IPC: 0.821217 (Simulation time: 1 hr 29 min 1 sec) 
Heartbeat CPU 2 instructions: 560000000 cycles: 355970643 heartbeat IPC: 0.730987 cumulative IPC: 0.730282 (Simulation time: 1 hr 30 min 12 sec) 
Heartbeat CPU 3 instructions: 450000000 cycles: 358302745 heartbeat IPC: 1.11242 cumulative IPC: 0.832686 (Simulation time: 1 hr 30 min 36 sec) 
Heartbeat CPU 0 instructions: 440000000 cycles: 361718965 heartbeat IPC: 0.6411 cumulative IPC: 0.770916 (Simulation time: 1 hr 31 min 12 sec) 
Heartbeat CPU 2 instructions: 570000000 cycles: 369676467 heartbeat IPC: 0.729617 cumulative IPC: 0.730244 (Simulation time: 1 hr 32 min 27 sec) 
Heartbeat CPU 3 instructions: 460000000 cycles: 372828977 heartbeat IPC: 0.68841 cumulative IPC: 0.824054 (Simulation time: 1 hr 33 min 4 sec) 
Heartbeat CPU 0 instructions: 450000001 cycles: 373861681 heartbeat IPC: 0.823539 cumulative IPC: 0.773537 (Simulation time: 1 hr 33 min 16 sec) 
Heartbeat CPU 2 instructions: 580000000 cycles: 378902284 heartbeat IPC: 1.08391 cumulative IPC: 0.743356 (Simulation time: 1 hr 34 min 14 sec) 
Heartbeat CPU 3 instructions: 470000002 cycles: 383842276 heartbeat IPC: 0.907993 cumulative IPC: 0.827696 (Simulation time: 1 hr 35 min 14 sec) 
Heartbeat CPU 0 instructions: 460000000 cycles: 386371637 heartbeat IPC: 0.799363 cumulative IPC: 0.774798 (Simulation time: 1 hr 35 min 48 sec) 
Heartbeat CPU 2 instructions: 590000001 cycles: 388034130 heartbeat IPC: 1.09507 cumulative IPC: 0.755806 (Simulation time: 1 hr 36 min 9 sec) 
Heartbeat CPU 3 instructions: 480000000 cycles: 393007393 heartbeat IPC: 1.09109 cumulative IPC: 0.836877 (Simulation time: 1 hr 37 min 11 sec) 
Heartbeat CPU 2 instructions: 600000000 cycles: 397336396 heartbeat IPC: 1.07501 cumulative IPC: 0.766916 (Simulation time: 1 hr 37 min 52 sec) 
Heartbeat CPU 1 instructions: 230000000 cycles: 398454828 heartbeat IPC: 0.117567 cumulative IPC: 0.111775 (Simulation time: 1 hr 38 min 3 sec) 
Heartbeat CPU 0 instructions: 470000003 cycles: 399070846 heartbeat IPC: 0.787451 cumulative IPC: 0.775395 (Simulation time: 1 hr 38 min 9 sec) 
Heartbeat CPU 2 instructions: 610000000 cycles: 406577368 heartbeat IPC: 1.08214 cumulative IPC: 0.77745 (Simulation time: 1 hr 39 min 31 sec) 
Heartbeat CPU 3 instructions: 490000000 cycles: 408292941 heartbeat IPC: 0.654213 cumulative IPC: 0.826842 (Simulation time: 1 hr 39 min 53 sec) 
Heartbeat CPU 0 instructions: 480000000 cycles: 409379591 heartbeat IPC: 0.97005 cumulative IPC: 0.782579 (Simulation time: 1 hr 40 min 7 sec) 
Heartbeat CPU 2 instructions: 620000000 cycles: 415969069 heartbeat IPC: 1.06477 cumulative IPC: 0.786888 (Simulation time: 1 hr 41 min 26 sec) 
Heartbeat CPU 3 instructions: 500000000 cycles: 417382135 heartbeat IPC: 1.10021 cumulative IPC: 0.83549 (Simulation time: 1 hr 41 min 43 sec) 
Heartbeat CPU 0 instructions: 490000003 cycles: 420010248 heartbeat IPC: 0.940676 cumulative IPC: 0.788375 (Simulation time: 1 hr 42 min 17 sec) 
Heartbeat CPU 2 instructions: 630000000 cycles: 425143535 heartbeat IPC: 1.08998 cumulative IPC: 0.796311 (Simulation time: 1 hr 43 min 15 sec) 
Heartbeat CPU 0 instructions: 500000000 cycles: 429084870 heartbeat IPC: 1.10197 cumulative IPC: 0.797892 (Simulation time: 1 hr 43 min 58 sec) 
Heartbeat CPU 3 instructions: 510000001 cycles: 429748466 heartbeat IPC: 0.808647 cumulative IPC: 0.834382 (Simulation time: 1 hr 44 min 4 sec) 
Heartbeat CPU 2 instructions: 640000000 cycles: 434486151 heartbeat IPC: 1.07036 cumulative IPC: 0.804722 (Simulation time: 1 hr 44 min 52 sec) 
Heartbeat CPU 3 instructions: 520000000 cycles: 441758309 heartbeat IPC: 0.83265 cumulative IPC: 0.834315 (Simulation time: 1 hr 46 min 14 sec) 
Heartbeat CPU 2 instructions: 650000002 cycles: 443857121 heartbeat IPC: 1.06713 cumulative IPC: 0.812558 (Simulation time: 1 hr 46 min 39 sec) 
Heartbeat CPU 0 instructions: 510000002 cycles: 444039564 heartbeat IPC: 0.668687 cumulative IPC: 0.791738 (Simulation time: 1 hr 46 min 42 sec) 
Heartbeat CPU 3 instructions: 530000000 cycles: 450740467 heartbeat IPC: 1.11332 cumulative IPC: 0.84213 (Simulation time: 1 hr 48 min 2 sec) 
Heartbeat CPU 2 instructions: 660000000 cycles: 453225812 heartbeat IPC: 1.06738 cumulative IPC: 0.819946 (Simulation time: 1 hr 48 min 26 sec) 
Heartbeat CPU 0 instructions: 520000000 cycles: 459389013 heartbeat IPC: 0.651489 cumulative IPC: 0.785202 (Simulation time: 1 hr 49 min 25 sec) 
Heartbeat CPU 2 instructions: 670000001 cycles: 462784029 heartbeat IPC: 1.04622 cumulative IPC: 0.826446 (Simulation time: 1 hr 50 min 0 sec) 
Heartbeat CPU 3 instructions: 540000000 cycles: 466586210 heartbeat IPC: 0.631084 cumulative IPC: 0.832193 (Simulation time: 1 hr 50 min 42 sec) 
Heartbeat CPU 0 instructions: 530000000 cycles: 470650575 heartbeat IPC: 0.887976 cumulative IPC: 0.7886 (Simulation time: 1 hr 51 min 34 sec) 
Heartbeat CPU 2 instructions: 680000000 cycles: 471992824 heartbeat IPC: 1.08592 cumulative IPC: 0.833434 (Simulation time: 1 hr 51 min 52 sec) 
Heartbeat CPU 3 instructions: 550000001 cycles: 475155707 heartbeat IPC: 1.16693 cumulative IPC: 0.840505 (Simulation time: 1 hr 52 min 30 sec) 
Heartbeat CPU 1 instructions: 240000000 cycles: 475589124 heartbeat IPC: 0.129644 cumulative IPC: 0.115764 (Simulation time: 1 hr 52 min 35 sec) 
Heartbeat CPU 2 instructions: 690000003 cycles: 481229857 heartbeat IPC: 1.0826 cumulative IPC: 0.839988 (Simulation time: 1 hr 53 min 40 sec) 
Heartbeat CPU 0 instructions: 540000000 cycles: 483047580 heartbeat IPC: 0.806646 cumulative IPC: 0.789234 (Simulation time: 1 hr 54 min 0 sec) 
Heartbeat CPU 3 instructions: 560000000 cycles: 486978338 heartbeat IPC: 0.845835 cumulative IPC: 0.840681 (Simulation time: 1 hr 54 min 43 sec) 
Heartbeat CPU 2 instructions: 700000000 cycles: 490589691 heartbeat IPC: 1.06839 cumulative IPC: 0.845917 (Simulation time: 1 hr 55 min 23 sec) 
Heartbeat CPU 0 instructions: 550000003 cycles: 495094817 heartbeat IPC: 0.830066 cumulative IPC: 0.790581 (Simulation time: 1 hr 56 min 8 sec) 
Heartbeat CPU 3 instructions: 570000000 cycles: 499720239 heartbeat IPC: 0.784812 cumulative IPC: 0.838756 (Simulation time: 1 hr 57 min 5 sec) 
Heartbeat CPU 2 instructions: 710000000 cycles: 499838697 heartbeat IPC: 1.0812 cumulative IPC: 0.851802 (Simulation time: 1 hr 57 min 6 sec) 
Heartbeat CPU 0 instructions: 560000000 cycles: 505498920 heartbeat IPC: 0.961159 cumulative IPC: 0.795308 (Simulation time: 1 hr 58 min 21 sec) 
Heartbeat CPU 3 instructions: 580000000 cycles: 508526569 heartbeat IPC: 1.13555 cumulative IPC: 0.845662 (Simulation time: 1 hr 59 min 0 sec) 
Heartbeat CPU 2 instructions: 720000000 cycles: 508999741 heartbeat IPC: 1.09158 cumulative IPC: 0.857599 (Simulation time: 1 hr 59 min 6 sec) 
Heartbeat CPU 0 instructions: 570000000 cycles: 516661191 heartbeat IPC: 0.895875 cumulative IPC: 0.798212 (Simulation time: 2 hr 0 min 32 sec) 
Heartbeat CPU 2 instructions: 730000003 cycles: 518788883 heartbeat IPC: 1.02154 cumulative IPC: 0.861727 (Simulation time: 2 hr 0 min 56 sec) 
Heartbeat CPU 3 instructions: 590000001 cycles: 524397217 heartbeat IPC: 0.630094 cumulative IPC: 0.836986 (Simulation time: 2 hr 2 min 1 sec) 
Heartbeat CPU 0 instructions: 580000000 cycles: 525354095 heartbeat IPC: 1.15036 cumulative IPC: 0.805956 (Simulation time: 2 hr 2 min 12 sec) 
Heartbeat CPU 2 instructions: 740000000 cycles: 527869579 heartbeat IPC: 1.10124 cumulative IPC: 0.867194 (Simulation time: 2 hr 2 min 43 sec) 
Heartbeat CPU 3 instructions: 600000000 cycles: 533616958 heartbeat IPC: 1.08463 cumulative IPC: 0.842643 (Simulation time: 2 hr 3 min 53 sec) 
Heartbeat CPU 2 instructions: 750000000 cycles: 537147436 heartbeat IPC: 1.07784 cumulative IPC: 0.871995 (Simulation time: 2 hr 4 min 37 sec) 
Heartbeat CPU 0 instructions: 590000003 cycles: 540248658 heartbeat IPC: 0.671386 cumulative IPC: 0.801069 (Simulation time: 2 hr 5 min 16 sec) 
Heartbeat CPU 3 instructions: 610000002 cycles: 545155902 heartbeat IPC: 0.866631 cumulative IPC: 0.84331 (Simulation time: 2 hr 6 min 8 sec) 
Heartbeat CPU 2 instructions: 760000000 cycles: 546858699 heartbeat IPC: 1.02973 cumulative IPC: 0.87567 (Simulation time: 2 hr 6 min 27 sec) 
Heartbeat CPU 1 instructions: 250000002 cycles: 551270469 heartbeat IPC: 0.132133 cumulative IPC: 0.118705 (Simulation time: 2 hr 7 min 13 sec) 
Heartbeat CPU 0 instructions: 600000000 cycles: 555163452 heartbeat IPC: 0.670475 cumulative IPC: 0.796488 (Simulation time: 2 hr 7 min 52 sec) 
Heartbeat CPU 2 instructions: 770000000 cycles: 556306457 heartbeat IPC: 1.05845 cumulative IPC: 0.879722 (Simulation time: 2 hr 8 min 5 sec) 
Heartbeat CPU 3 instructions: 620000000 cycles: 558869176 heartbeat IPC: 0.72922 cumulative IPC: 0.839662 (Simulation time: 2 hr 8 min 37 sec) 
Heartbeat CPU 2 instructions: 780000000 cycles: 565580386 heartbeat IPC: 1.07829 cumulative IPC: 0.88395 (Simulation time: 2 hr 10 min 5 sec) 
Heartbeat CPU 0 instructions: 610000002 cycles: 566609771 heartbeat IPC: 0.873643 cumulative IPC: 0.798511 (Simulation time: 2 hr 10 min 19 sec) 
Heartbeat CPU 3 instructions: 630000002 cycles: 567705302 heartbeat IPC: 1.13172 cumulative IPC: 0.845558 (Simulation time: 2 hr 10 min 34 sec) 
Heartbeat CPU 2 instructions: 790000001 cycles: 574974796 heartbeat IPC: 1.06446 cumulative IPC: 0.887762 (Simulation time: 2 hr 11 min 55 sec) 
Heartbeat CPU 0 instructions: 620000000 cycles: 579623967 heartbeat IPC: 0.768392 cumulative IPC: 0.797639 (Simulation time: 2 hr 12 min 47 sec) 
Heartbeat CPU 3 instructions: 640000000 cycles: 582299876 heartbeat IPC: 0.685186 cumulative IPC: 0.840383 (Simulation time: 2 hr 13 min 19 sec) 
Heartbeat CPU 2 instructions: 800000000 cycles: 584239363 heartbeat IPC: 1.07938 cumulative IPC: 0.89167 (Simulation time: 2 hr 13 min 42 sec) 
Heartbeat CPU 0 instructions: 630000001 cycles: 591266506 heartbeat IPC: 0.858919 cumulative IPC: 0.799186 (Simulation time: 2 hr 15 min 10 sec) 
Heartbeat CPU 3 instructions: 650000002 cycles: 592181860 heartbeat IPC: 1.01194 cumulative IPC: 0.844051 (Simulation time: 2 hr 15 min 21 sec) 
Heartbeat CPU 2 instructions: 810000000 cycles: 593480430 heartbeat IPC: 1.08213 cumulative IPC: 0.895468 (Simulation time: 2 hr 15 min 37 sec) 
Heartbeat CPU 0 instructions: 640000000 cycles: 602022782 heartbeat IPC: 0.92969 cumulative IPC: 0.80216 (Simulation time: 2 hr 17 min 27 sec) 
Heartbeat CPU 3 instructions: 660000000 cycles: 602330405 heartbeat IPC: 0.985363 cumulative IPC: 0.847088 (Simulation time: 2 hr 17 min 30 sec) 
Heartbeat CPU 2 instructions: 820000000 cycles: 602728189 heartbeat IPC: 1.08134 cumulative IPC: 0.899105 (Simulation time: 2 hr 17 min 35 sec) 
Heartbeat CPU 2 instructions: 830000001 cycles: 612382269 heartbeat IPC: 1.03583 cumulative IPC: 0.901841 (Simulation time: 2 hr 19 min 23 sec) 
Heartbeat CPU 0 instructions: 650000001 cycles: 612933160 heartbeat IPC: 0.916559 cumulative IPC: 0.804745 (Simulation time: 2 hr 19 min 30 sec) 
Heartbeat CPU 3 instructions: 670000002 cycles: 616761113 heartbeat IPC: 0.692967 cumulative IPC: 0.842518 (Simulation time: 2 hr 20 min 19 sec) 
Heartbeat CPU 2 instructions: 840000000 cycles: 621395264 heartbeat IPC: 1.10951 cumulative IPC: 0.905651 (Simulation time: 2 hr 21 min 22 sec) 
Heartbeat CPU 0 instructions: 660000000 cycles: 621498093 heartbeat IPC: 1.16755 cumulative IPC: 0.811068 (Simulation time: 2 hr 21 min 23 sec) 
Heartbeat CPU 3 instructions: 680000000 cycles: 625359373 heartbeat IPC: 1.16303 cumulative IPC: 0.848082 (Simulation time: 2 hr 22 min 11 sec) 
Heartbeat CPU 1 instructions: 260000000 cycles: 626020136 heartbeat IPC: 0.13378 cumulative IPC: 0.120977 (Simulation time: 2 hr 22 min 19 sec) 
Heartbeat CPU 2 instructions: 850000000 cycles: 630689205 heartbeat IPC: 1.07597 cumulative IPC: 0.908813 (Simulation time: 2 hr 23 min 12 sec) 
Heartbeat CPU 0 instructions: 670000000 cycles: 637018373 heartbeat IPC: 0.644318 cumulative IPC: 0.805963 (Simulation time: 2 hr 24 min 20 sec) 
Heartbeat CPU 3 instructions: 690000001 cycles: 639354160 heartbeat IPC: 0.714552 cumulative IPC: 0.844413 (Simulation time: 2 hr 24 min 46 sec) 
Heartbeat CPU 2 instructions: 860000000 cycles: 640280717 heartbeat IPC: 1.04259 cumulative IPC: 0.911328 (Simulation time: 2 hr 24 min 57 sec) 
Heartbeat CPU 2 instructions: 870000000 cycles: 649570089 heartbeat IPC: 1.0765 cumulative IPC: 0.914281 (Simulation time: 2 hr 26 min 44 sec) 
Heartbeat CPU 3 instructions: 700000000 cycles: 650356186 heartbeat IPC: 0.908923 cumulative IPC: 0.845777 (Simulation time: 2 hr 26 min 54 sec) 
Heartbeat CPU 0 instructions: 680000000 cycles: 651511268 heartbeat IPC: 0.689993 cumulative IPC: 0.80274 (Simulation time: 2 hr 27 min 8 sec) 
Heartbeat CPU 2 instructions: 880000000 cycles: 658950047 heartbeat IPC: 1.0661 cumulative IPC: 0.916974 (Simulation time: 2 hr 28 min 41 sec) 
Heartbeat CPU 3 instructions: 710000002 cycles: 660102777 heartbeat IPC: 1.026 cumulative IPC: 0.849091 (Simulation time: 2 hr 28 min 55 sec) 
Heartbeat CPU 0 instructions: 690000003 cycles: 663215915 heartbeat IPC: 0.854362 cumulative IPC: 0.803873 (Simulation time: 2 hr 29 min 30 sec) 
Heartbeat CPU 2 instructions: 890000003 cycles: 668402599 heartbeat IPC: 1.05792 cumulative IPC: 0.919448 (Simulation time: 2 hr 30 min 29 sec) 
Heartbeat CPU 3 instructions: 720000000 cycles: 675258285 heartbeat IPC: 0.659826 cumulative IPC: 0.84383 (Simulation time: 2 hr 31 min 46 sec) 
Heartbeat CPU 0 instructions: 700000000 cycles: 675688547 heartbeat IPC: 0.801755 cumulative IPC: 0.803825 (Simulation time: 2 hr 31 min 52 sec) 
Heartbeat CPU 2 instructions: 900000000 cycles: 677655264 heartbeat IPC: 1.08077 cumulative IPC: 0.922174 (Simulation time: 2 hr 32 min 18 sec) 
Heartbeat CPU 3 instructions: 730000002 cycles: 683904335 heartbeat IPC: 1.1566 cumulative IPC: 0.848713 (Simulation time: 2 hr 33 min 43 sec) 
Heartbeat CPU 2 instructions: 910000001 cycles: 686674855 heartbeat IPC: 1.1087 cumulative IPC: 0.925197 (Simulation time: 2 hr 34 min 16 sec) 
Heartbeat CPU 0 instructions: 710000002 cycles: 687152004 heartbeat IPC: 0.872337 cumulative IPC: 0.805234 (Simulation time: 2 hr 34 min 22 sec) 
Heartbeat CPU 2 instructions: 920000000 cycles: 696119936 heartbeat IPC: 1.05875 cumulative IPC: 0.927425 (Simulation time: 2 hr 36 min 5 sec) 
Heartbeat CPU 3 instructions: 740000000 cycles: 696872968 heartbeat IPC: 0.771091 cumulative IPC: 0.846937 (Simulation time: 2 hr 36 min 14 sec) 
Heartbeat CPU 0 instructions: 720000000 cycles: 698305147 heartbeat IPC: 0.896608 cumulative IPC: 0.807028 (Simulation time: 2 hr 36 min 31 sec) 
Heartbeat CPU 1 instructions: 270000001 cycles: 701916309 heartbeat IPC: 0.131759 cumulative IPC: 0.122408 (Simulation time: 2 hr 37 min 12 sec) 
Heartbeat CPU 2 instructions: 930000002 cycles: 705590737 heartbeat IPC: 1.05588 cumulative IPC: 0.929539 (Simulation time: 2 hr 37 min 57 sec) 
Heartbeat CPU 3 instructions: 750000000 cycles: 708787553 heartbeat IPC: 0.839307 cumulative IPC: 0.84678 (Simulation time: 2 hr 38 min 39 sec) 
Heartbeat CPU 0 instructions: 730000003 cycles: 709110643 heartbeat IPC: 0.925455 cumulative IPC: 0.809238 (Simulation time: 2 hr 38 min 44 sec) 
Heartbeat CPU 2 instructions: 940000000 cycles: 714612655 heartbeat IPC: 1.10841 cumulative IPC: 0.9323 (Simulation time: 2 hr 39 min 58 sec) 
Heartbeat CPU 3 instructions: 760000000 cycles: 717285764 heartbeat IPC: 1.17672 cumulative IPC: 0.851554 (Simulation time: 2 hr 40 min 34 sec) 
Heartbeat CPU 0 instructions: 740000000 cycles: 717714701 heartbeat IPC: 1.16224 cumulative IPC: 0.814406 (Simulation time: 2 hr 40 min 39 sec) 
Heartbeat CPU 2 instructions: 950000002 cycles: 724063774 heartbeat IPC: 1.05808 cumulative IPC: 0.934301 (Simulation time: 2 hr 41 min 45 sec) 
Heartbeat CPU 3 instructions: 770000002 cycles: 733062053 heartbeat IPC: 0.633863 cumulative IPC: 0.845859 (Simulation time: 2 hr 43 min 24 sec) 
Heartbeat CPU 0 instructions: 750000000 cycles: 733077175 heartbeat IPC: 0.650937 cumulative IPC: 0.810242 (Simulation time: 2 hr 43 min 24 sec) 
Heartbeat CPU 2 instructions: 960000000 cycles: 733515038 heartbeat IPC: 1.05806 cumulative IPC: 0.936239 (Simulation time: 2 hr 43 min 30 sec) 
Heartbeat CPU 3 instructions: 780000000 cycles: 741956856 heartbeat IPC: 1.12425 cumulative IPC: 0.849906 (Simulation time: 2 hr 45 min 17 sec) 
Heartbeat CPU 2 instructions: 970000000 cycles: 742789785 heartbeat IPC: 1.0782 cumulative IPC: 0.938388 (Simulation time: 2 hr 45 min 27 sec) 
Heartbeat CPU 0 instructions: 760000000 cycles: 747610682 heartbeat IPC: 0.688065 cumulative IPC: 0.807366 (Simulation time: 2 hr 46 min 24 sec) 
Heartbeat CPU 2 instructions: 980000000 cycles: 752498322 heartbeat IPC: 1.03002 cumulative IPC: 0.939817 (Simulation time: 2 hr 47 min 13 sec) 
Heartbeat CPU 3 instructions: 790000002 cycles: 753944959 heartbeat IPC: 0.834161 cumulative IPC: 0.849603 (Simulation time: 2 hr 47 min 28 sec) 
Heartbeat CPU 0 instructions: 770000002 cycles: 759489150 heartbeat IPC: 0.84186 cumulative IPC: 0.808017 (Simulation time: 2 hr 48 min 32 sec) 
Heartbeat CPU 2 instructions: 990000002 cycles: 761931931 heartbeat IPC: 1.06004 cumulative IPC: 0.941612 (Simulation time: 2 hr 49 min 2 sec) 
Heartbeat CPU 3 instructions: 800000000 cycles: 766632271 heartbeat IPC: 0.788189 cumulative IPC: 0.848379 (Simulation time: 2 hr 50 min 0 sec) 
Heartbeat CPU 2 instructions: 1000000000 cycles: 771138181 heartbeat IPC: 1.08622 cumulative IPC: 0.943689 (Simulation time: 2 hr 50 min 56 sec) 
Heartbeat CPU 0 instructions: 780000000 cycles: 771885725 heartbeat IPC: 0.806674 cumulative IPC: 0.807991 (Simulation time: 2 hr 51 min 6 sec) 
Heartbeat CPU 3 instructions: 810000000 cycles: 775467855 heartbeat IPC: 1.13179 cumulative IPC: 0.852259 (Simulation time: 2 hr 51 min 55 sec) 
Heartbeat CPU 1 instructions: 280000000 cycles: 778120797 heartbeat IPC: 0.131226 cumulative IPC: 0.123445 (Simulation time: 2 hr 52 min 28 sec) 
Heartbeat CPU 2 instructions: 1010000003 cycles: 780353086 heartbeat IPC: 1.0852 cumulative IPC: 0.945694 (Simulation time: 2 hr 52 min 53 sec) 
Heartbeat CPU 0 instructions: 790000002 cycles: 784071009 heartbeat IPC: 0.820662 cumulative IPC: 0.808227 (Simulation time: 2 hr 53 min 31 sec) 
Heartbeat CPU 2 instructions: 1020000000 cycles: 789697646 heartbeat IPC: 1.07014 cumulative IPC: 0.947457 (Simulation time: 2 hr 54 min 34 sec) 
Heartbeat CPU 3 instructions: 820000000 cycles: 790886993 heartbeat IPC: 0.648545 cumulative IPC: 0.847506 (Simulation time: 2 hr 54 min 48 sec) 
Heartbeat CPU 0 instructions: 800000000 cycles: 794876763 heartbeat IPC: 0.925433 cumulative IPC: 0.810132 (Simulation time: 2 hr 55 min 41 sec) 
Heartbeat CPU 2 instructions: 1030000001 cycles: 798923223 heartbeat IPC: 1.08394 cumulative IPC: 0.949339 (Simulation time: 2 hr 56 min 31 sec) 
Heartbeat CPU 3 instructions: 830000002 cycles: 800107035 heartbeat IPC: 1.08459 cumulative IPC: 0.850768 (Simulation time: 2 hr 56 min 45 sec) 
Heartbeat CPU 0 instructions: 810000000 cycles: 805519186 heartbeat IPC: 0.939636 cumulative IPC: 0.812173 (Simulation time: 2 hr 57 min 52 sec) 
Heartbeat CPU 2 instructions: 1040000000 cycles: 808205245 heartbeat IPC: 1.07735 cumulative IPC: 0.951091 (Simulation time: 2 hr 58 min 23 sec) 
Heartbeat CPU 3 instructions: 840000000 cycles: 811140885 heartbeat IPC: 0.906302 cumulative IPC: 0.851668 (Simulation time: 2 hr 58 min 54 sec) 
Heartbeat CPU 0 instructions: 820000000 cycles: 814417871 heartbeat IPC: 1.12376 cumulative IPC: 0.816224 (Simulation time: 2 hr 59 min 30 sec) 
Heartbeat CPU 2 instructions: 1050000002 cycles: 817508357 heartbeat IPC: 1.07491 cumulative IPC: 0.952767 (Simulation time: 3 hr 0 min 2 sec) 
Heartbeat CPU 3 instructions: 850000000 cycles: 824494830 heartbeat IPC: 0.748842 cumulative IPC: 0.84969 (Simulation time: 3 hr 1 min 17 sec) 
Heartbeat CPU 2 instructions: 1060000000 cycles: 826926558 heartbeat IPC: 1.06177 cumulative IPC: 0.95424 (Simulation time: 3 hr 1 min 46 sec) 
Heartbeat CPU 0 instructions: 830000000 cycles: 829070021 heartbeat IPC: 0.682494 cumulative IPC: 0.813421 (Simulation time: 3 hr 2 min 12 sec) 
Heartbeat CPU 3 instructions: 860000000 cycles: 833363575 heartbeat IPC: 1.12756 cumulative IPC: 0.853194 (Simulation time: 3 hr 3 min 5 sec) 
Heartbeat CPU 2 instructions: 1070000003 cycles: 836330704 heartbeat IPC: 1.06336 cumulative IPC: 0.955693 (Simulation time: 3 hr 3 min 40 sec) 
Heartbeat CPU 0 instructions: 840000000 cycles: 844489890 heartbeat IPC: 0.648514 cumulative IPC: 0.809862 (Simulation time: 3 hr 4 min 58 sec) 
Heartbeat CPU 2 instructions: 1080000000 cycles: 845872880 heartbeat IPC: 1.04798 cumulative IPC: 0.956923 (Simulation time: 3 hr 5 min 12 sec) 
Heartbeat CPU 3 instructions: 870000000 cycles: 848060778 heartbeat IPC: 0.680402 cumulative IPC: 0.849657 (Simulation time: 3 hr 5 min 34 sec) 
Heartbeat CPU 1 instructions: 290000001 cycles: 853199237 heartbeat IPC: 0.133194 cumulative IPC: 0.124457 (Simulation time: 3 hr 6 min 33 sec) 
Heartbeat CPU 2 instructions: 1090000003 cycles: 855230920 heartbeat IPC: 1.0686 cumulative IPC: 0.958365 (Simulation time: 3 hr 6 min 59 sec) 
Heartbeat CPU 0 instructions: 850000002 cycles: 856134375 heartbeat IPC: 0.858776 cumulative IPC: 0.810646 (Simulation time: 3 hr 7 min 11 sec) 
Heartbeat CPU 3 instructions: 880000000 cycles: 858011023 heartbeat IPC: 1.005 cumulative IPC: 0.851781 (Simulation time: 3 hr 7 min 35 sec) 
Heartbeat CPU 2 instructions: 1100000000 cycles: 864323136 heartbeat IPC: 1.09984 cumulative IPC: 0.960116 (Simulation time: 3 hr 8 min 50 sec) 
Heartbeat CPU 3 instructions: 890000000 cycles: 868467869 heartbeat IPC: 0.956311 cumulative IPC: 0.853261 (Simulation time: 3 hr 9 min 34 sec) 
Heartbeat CPU 0 instructions: 860000000 cycles: 868652528 heartbeat IPC: 0.79884 cumulative IPC: 0.810446 (Simulation time: 3 hr 9 min 36 sec) 
Heartbeat CPU 2 instructions: 1110000001 cycles: 873886988 heartbeat IPC: 1.0456 cumulative IPC: 0.961216 (Simulation time: 3 hr 10 min 38 sec) 
Heartbeat CPU 0 instructions: 870000003 cycles: 880269021 heartbeat IPC: 0.860845 cumulative IPC: 0.811227 (Simulation time: 3 hr 11 min 50 sec) 
Heartbeat CPU 3 instructions: 900000000 cycles: 882737821 heartbeat IPC: 0.700773 cumulative IPC: 0.85037 (Simulation time: 3 hr 12 min 19 sec) 
Heartbeat CPU 2 instructions: 1120000000 cycles: 883129325 heartbeat IPC: 1.08198 cumulative IPC: 0.962698 (Simulation time: 3 hr 12 min 24 sec) 
Heartbeat CPU 0 instructions: 880000000 cycles: 891088207 heartbeat IPC: 0.924284 cumulative IPC: 0.812834 (Simulation time: 3 hr 14 min 12 sec) 
Heartbeat CPU 3 instructions: 910000002 cycles: 891541486 heartbeat IPC: 1.13589 cumulative IPC: 0.853671 (Simulation time: 3 hr 14 min 18 sec) 
Heartbeat CPU 2 instructions: 1130000003 cycles: 892133670 heartbeat IPC: 1.11058 cumulative IPC: 0.964445 (Simulation time: 3 hr 14 min 26 sec) 
Heartbeat CPU 2 instructions: 1140000000 cycles: 901971570 heartbeat IPC: 1.01648 cumulative IPC: 0.965108 (Simulation time: 3 hr 16 min 19 sec) 
Heartbeat CPU 0 instructions: 890000002 cycles: 902454129 heartbeat IPC: 0.879823 cumulative IPC: 0.81382 (Simulation time: 3 hr 16 min 24 sec) 
Heartbeat CPU 3 instructions: 920000000 cycles: 905917204 heartbeat IPC: 0.695617 cumulative IPC: 0.850742 (Simulation time: 3 hr 17 min 4 sec) 
Heartbeat CPU 2 instructions: 1150000002 cycles: 911010725 heartbeat IPC: 1.1063 cumulative IPC: 0.966742 (Simulation time: 3 hr 18 min 5 sec) 
Heartbeat CPU 0 instructions: 900000000 cycles: 911167409 heartbeat IPC: 1.14767 cumulative IPC: 0.817544 (Simulation time: 3 hr 18 min 7 sec) 
Heartbeat CPU 3 instructions: 930000002 cycles: 916710331 heartbeat IPC: 0.926516 cumulative IPC: 0.851782 (Simulation time: 3 hr 19 min 16 sec) 
Heartbeat CPU 2 instructions: 1160000000 cycles: 920182894 heartbeat IPC: 1.09025 cumulative IPC: 0.968176 (Simulation time: 3 hr 19 min 59 sec) 
Heartbeat CPU 0 instructions: 910000001 cycles: 925252205 heartbeat IPC: 0.709985 cumulative IPC: 0.815639 (Simulation time: 3 hr 21 min 3 sec) 
Heartbeat CPU 1 instructions: 300000000 cycles: 925255558 heartbeat IPC: 0.13878 cumulative IPC: 0.125755 (Simulation time: 3 hr 21 min 3 sec) 
Heartbeat CPU 3 instructions: 940000000 cycles: 926398026 heartbeat IPC: 1.03224 cumulative IPC: 0.853977 (Simulation time: 3 hr 21 min 18 sec) 
Heartbeat CPU 2 instructions: 1170000000 cycles: 929960835 heartbeat IPC: 1.02271 cumulative IPC: 0.968843 (Simulation time: 3 hr 22 min 0 sec) 
Heartbeat CPU 2 instructions: 1180000000 cycles: 939309695 heartbeat IPC: 1.06965 cumulative IPC: 0.970007 (Simulation time: 3 hr 24 min 0 sec) 
Heartbeat CPU 0 instructions: 920000000 cycles: 940364256 heartbeat IPC: 0.661723 cumulative IPC: 0.812768 (Simulation time: 3 hr 24 min 13 sec) 
Heartbeat CPU 3 instructions: 950000000 cycles: 941722967 heartbeat IPC: 0.652531 cumulative IPC: 0.850174 (Simulation time: 3 hr 24 min 31 sec) 
Heartbeat CPU 2 instructions: 1190000001 cycles: 948738878 heartbeat IPC: 1.06054 cumulative IPC: 0.97105 (Simulation time: 3 hr 26 min 5 sec) 
Heartbeat CPU 3 instructions: 960000000 cycles: 950582083 heartbeat IPC: 1.12878 cumulative IPC: 0.853182 (Simulation time: 3 hr 26 min 30 sec) 
Heartbeat CPU 0 instructions: 930000000 cycles: 952303011 heartbeat IPC: 0.837608 cumulative IPC: 0.813129 (Simulation time: 3 hr 26 min 54 sec) 
Heartbeat CPU 2 instructions: 1200000000 cycles: 958079821 heartbeat IPC: 1.07056 cumulative IPC: 0.972172 (Simulation time: 3 hr 28 min 2 sec) 
Heartbeat CPU 3 instructions: 970000001 cycles: 963403191 heartbeat IPC: 0.779964 cumulative IPC: 0.852055 (Simulation time: 3 hr 28 min 57 sec) 
Heartbeat CPU 0 instructions: 940000000 cycles: 965387881 heartbeat IPC: 0.764241 cumulative IPC: 0.812363 (Simulation time: 3 hr 29 min 20 sec) 
Heartbeat CPU 2 instructions: 1210000003 cycles: 967449544 heartbeat IPC: 1.06727 cumulative IPC: 0.973237 (Simulation time: 3 hr 29 min 46 sec) 
Heartbeat CPU 3 instructions: 980000000 cycles: 975026457 heartbeat IPC: 0.860343 cumulative IPC: 0.852169 (Simulation time: 3 hr 31 min 23 sec) 
Heartbeat CPU 2 instructions: 1220000000 cycles: 976548170 heartbeat IPC: 1.09907 cumulative IPC: 0.974589 (Simulation time: 3 hr 31 min 42 sec) 
Heartbeat CPU 0 instructions: 950000003 cycles: 976609357 heartbeat IPC: 0.891149 cumulative IPC: 0.813408 (Simulation time: 3 hr 31 min 42 sec) 
Heartbeat CPU 3 instructions: 990000002 cycles: 983912783 heartbeat IPC: 1.12532 cumulative IPC: 0.855012 (Simulation time: 3 hr 33 min 16 sec) 
Heartbeat CPU 2 instructions: 1230000002 cycles: 985766276 heartbeat IPC: 1.08482 cumulative IPC: 0.975777 (Simulation time: 3 hr 33 min 38 sec) 
Heartbeat CPU 0 instructions: 960000000 cycles: 987901769 heartbeat IPC: 0.88555 cumulative IPC: 0.814357 (Simulation time: 3 hr 34 min 3 sec) 
Heartbeat CPU 2 instructions: 1240000000 cycles: 995405732 heartbeat IPC: 1.0374 cumulative IPC: 0.976463 (Simulation time: 3 hr 35 min 27 sec) 
Heartbeat CPU 0 instructions: 970000002 cycles: 998836955 heartbeat IPC: 0.914479 cumulative IPC: 0.815617 (Simulation time: 3 hr 36 min 6 sec) 
Heartbeat CPU 3 instructions: 1000000000 cycles: 999761170 heartbeat IPC: 0.630979 cumulative IPC: 0.85093 (Simulation time: 3 hr 36 min 18 sec) 
Heartbeat CPU 1 instructions: 310000001 cycles: 999988791 heartbeat IPC: 0.133809 cumulative IPC: 0.126447 (Simulation time: 3 hr 36 min 21 sec) 
Heartbeat CPU 2 instructions: 1250000002 cycles: 1004520445 heartbeat IPC: 1.09713 cumulative IPC: 0.977721 (Simulation time: 3 hr 37 min 22 sec) 
Heartbeat CPU 0 instructions: 980000000 cycles: 1007409054 heartbeat IPC: 1.16658 cumulative IPC: 0.819046 (Simulation time: 3 hr 38 min 0 sec) 
Heartbeat CPU 3 instructions: 1010000000 cycles: 1008433239 heartbeat IPC: 1.15313 cumulative IPC: 0.853913 (Simulation time: 3 hr 38 min 14 sec) 
Heartbeat CPU 2 instructions: 1260000000 cycles: 1013564016 heartbeat IPC: 1.10576 cumulative IPC: 0.979031 (Simulation time: 3 hr 39 min 23 sec) 
Heartbeat CPU 3 instructions: 1020000000 cycles: 1020688846 heartbeat IPC: 0.815953 cumulative IPC: 0.853391 (Simulation time: 3 hr 40 min 42 sec) 
Heartbeat CPU 0 instructions: 990000000 cycles: 1022402459 heartbeat IPC: 0.66696 cumulative IPC: 0.816491 (Simulation time: 3 hr 41 min 1 sec) 
Heartbeat CPU 2 instructions: 1270000003 cycles: 1023249861 heartbeat IPC: 1.03243 cumulative IPC: 0.97961 (Simulation time: 3 hr 41 min 10 sec) 
Heartbeat CPU 2 instructions: 1280000000 cycles: 1032551483 heartbeat IPC: 1.07508 cumulative IPC: 0.980594 (Simulation time: 3 hr 42 min 57 sec) 
Heartbeat CPU 3 instructions: 1030000000 cycles: 1033460279 heartbeat IPC: 0.782997 cumulative IPC: 0.852396 (Simulation time: 3 hr 43 min 8 sec) 
Heartbeat CPU 0 instructions: 1000000000 cycles: 1036854547 heartbeat IPC: 0.691942 cumulative IPC: 0.814506 (Simulation time: 3 hr 43 min 48 sec) 
Heartbeat CPU 2 instructions: 1290000003 cycles: 1041880460 heartbeat IPC: 1.07193 cumulative IPC: 0.981529 (Simulation time: 3 hr 44 min 50 sec) 
Heartbeat CPU 3 instructions: 1040000000 cycles: 1042536504 heartbeat IPC: 1.10178 cumulative IPC: 0.854876 (Simulation time: 3 hr 44 min 58 sec) 
Heartbeat CPU 0 instructions: 1010000003 cycles: 1049159757 heartbeat IPC: 0.812664 cumulative IPC: 0.814481 (Simulation time: 3 hr 46 min 13 sec) 
Heartbeat CPU 2 instructions: 1300000000 cycles: 1051438091 heartbeat IPC: 1.04628 cumulative IPC: 0.982201 (Simulation time: 3 hr 46 min 40 sec) 
Heartbeat CPU 3 instructions: 1050000000 cycles: 1058348040 heartbeat IPC: 0.63245 cumulative IPC: 0.851088 (Simulation time: 3 hr 47 min 55 sec) 
Heartbeat CPU 2 instructions: 1310000001 cycles: 1060742007 heartbeat IPC: 1.07482 cumulative IPC: 0.983126 (Simulation time: 3 hr 48 min 23 sec) 
Heartbeat CPU 0 instructions: 1020000000 cycles: 1061628131 heartbeat IPC: 0.802029 cumulative IPC: 0.814315 (Simulation time: 3 hr 48 min 35 sec) 
Heartbeat CPU 3 instructions: 1060000000 cycles: 1067226338 heartbeat IPC: 1.12634 cumulative IPC: 0.853695 (Simulation time: 3 hr 49 min 52 sec) 
Heartbeat CPU 2 instructions: 1320000000 cycles: 1069785505 heartbeat IPC: 1.10577 cumulative IPC: 0.984307 (Simulation time: 3 hr 50 min 27 sec) 
Heartbeat CPU 1 instructions: 320000000 cycles: 1071095515 heartbeat IPC: 0.140634 cumulative IPC: 0.127519 (Simulation time: 3 hr 50 min 43 sec) 
Heartbeat CPU 0 instructions: 1030000003 cycles: 1072748175 heartbeat IPC: 0.899277 cumulative IPC: 0.815317 (Simulation time: 3 hr 51 min 3 sec) 
Heartbeat CPU 3 instructions: 1070000000 cycles: 1078591418 heartbeat IPC: 0.879888 cumulative IPC: 0.854009 (Simulation time: 3 hr 52 min 7 sec) 
Heartbeat CPU 2 instructions: 1330000001 cycles: 1079249421 heartbeat IPC: 1.05665 cumulative IPC: 0.985028 (Simulation time: 3 hr 52 min 15 sec) 
Heartbeat CPU 0 instructions: 1040000000 cycles: 1084581762 heartbeat IPC: 0.845052 cumulative IPC: 0.815686 (Simulation time: 3 hr 53 min 24 sec) 
Heartbeat CPU 2 instructions: 1340000000 cycles: 1088399338 heartbeat IPC: 1.09291 cumulative IPC: 0.986058 (Simulation time: 3 hr 54 min 17 sec) 
Heartbeat CPU 3 instructions: 1080000000 cycles: 1092097310 heartbeat IPC: 0.740418 cumulative IPC: 0.852415 (Simulation time: 3 hr 55 min 5 sec) 
Heartbeat CPU 0 instructions: 1050000000 cycles: 1095504021 heartbeat IPC: 0.915561 cumulative IPC: 0.816815 (Simulation time: 3 hr 55 min 50 sec) 
Heartbeat CPU 2 instructions: 1350000000 cycles: 1097760573 heartbeat IPC: 1.06824 cumulative IPC: 0.986853 (Simulation time: 3 hr 56 min 20 sec) 
Heartbeat CPU 3 instructions: 1090000002 cycles: 1100827405 heartbeat IPC: 1.14546 cumulative IPC: 0.85505 (Simulation time: 3 hr 57 min 1 sec) 
Heartbeat CPU 0 instructions: 1060000000 cycles: 1104120815 heartbeat IPC: 1.16052 cumulative IPC: 0.819856 (Simulation time: 3 hr 57 min 47 sec) 
Heartbeat CPU 2 instructions: 1360000000 cycles: 1106983429 heartbeat IPC: 1.08426 cumulative IPC: 0.987772 (Simulation time: 3 hr 58 min 22 sec) 
Heartbeat CPU 3 instructions: 1100000000 cycles: 1115371929 heartbeat IPC: 0.687544 cumulative IPC: 0.852577 (Simulation time: 3 hr 59 min 58 sec) 
Heartbeat CPU 2 instructions: 1370000001 cycles: 1116451115 heartbeat IPC: 1.05622 cumulative IPC: 0.988429 (Simulation time: 4 hr 0 min 11 sec) 
Heartbeat CPU 0 instructions: 1070000002 cycles: 1118774303 heartbeat IPC: 0.682432 cumulative IPC: 0.817819 (Simulation time: 4 hr 0 min 41 sec) 
Heartbeat CPU 3 instructions: 1110000000 cycles: 1125504423 heartbeat IPC: 0.986924 cumulative IPC: 0.853945 (Simulation time: 4 hr 2 min 24 sec) 
Heartbeat CPU 2 instructions: 1380000000 cycles: 1125834110 heartbeat IPC: 1.06576 cumulative IPC: 0.989158 (Simulation time: 4 hr 2 min 28 sec) 
Heartbeat CPU 0 instructions: 1080000000 cycles: 1133155490 heartbeat IPC: 0.695353 cumulative IPC: 0.816063 (Simulation time: 4 hr 4 min 1 sec) 
Heartbeat CPU 2 instructions: 1390000002 cycles: 1135152034 heartbeat IPC: 1.0732 cumulative IPC: 0.989937 (Simulation time: 4 hr 4 min 24 sec) 
Heartbeat CPU 3 instructions: 1120000000 cycles: 1136122217 heartbeat IPC: 0.941815 cumulative IPC: 0.854872 (Simulation time: 4 hr 4 min 36 sec) 
Finished CPU 2 instructions: 1000000002 cycles: 1010004737 cumulative IPC: 0.990094 (Simulation time: 4 hr 5 min 21 sec) 
Heartbeat CPU 1 instructions: 330000001 cycles: 1144026061 heartbeat IPC: 0.137117 cumulative IPC: 0.128209 (Simulation time: 4 hr 6 min 8 sec) 
Heartbeat CPU 2 instructions: 1400000000 cycles: 1144750666 heartbeat IPC: 1.04181 cumulative IPC: 0.990428 (Simulation time: 4 hr 6 min 17 sec) 
Heartbeat CPU 0 instructions: 1090000000 cycles: 1145874799 heartbeat IPC: 0.786206 cumulative IPC: 0.81569 (Simulation time: 4 hr 6 min 33 sec) 
Heartbeat CPU 3 instructions: 1130000002 cycles: 1150574567 heartbeat IPC: 0.691929 cumulative IPC: 0.852565 (Simulation time: 4 hr 7 min 40 sec) 
Heartbeat CPU 2 instructions: 1410000003 cycles: 1153924427 heartbeat IPC: 1.09007 cumulative IPC: 0.991321 (Simulation time: 4 hr 8 min 24 sec) 
Heartbeat CPU 0 instructions: 1100000000 cycles: 1158035845 heartbeat IPC: 0.822298 cumulative IPC: 0.815768 (Simulation time: 4 hr 9 min 14 sec) 
Heartbeat CPU 3 instructions: 1140000000 cycles: 1159513697 heartbeat IPC: 1.11868 cumulative IPC: 0.854875 (Simulation time: 4 hr 9 min 34 sec) 
Heartbeat CPU 2 instructions: 1420000000 cycles: 1163058014 heartbeat IPC: 1.09486 cumulative IPC: 0.992236 (Simulation time: 4 hr 10 min 21 sec) 
Heartbeat CPU 0 instructions: 1110000000 cycles: 1169519891 heartbeat IPC: 0.870773 cumulative IPC: 0.816375 (Simulation time: 4 hr 11 min 33 sec) 
Heartbeat CPU 2 instructions: 1430000001 cycles: 1172550839 heartbeat IPC: 1.05343 cumulative IPC: 0.992793 (Simulation time: 4 hr 12 min 3 sec) 
Heartbeat CPU 3 instructions: 1150000000 cycles: 1173225417 heartbeat IPC: 0.729303 cumulative IPC: 0.853225 (Simulation time: 4 hr 12 min 10 sec) 
Heartbeat CPU 0 instructions: 1120000000 cycles: 1180599472 heartbeat IPC: 0.902561 cumulative IPC: 0.817284 (Simulation time: 4 hr 13 min 37 sec) 
Heartbeat CPU 2 instructions: 1440000000 cycles: 1182032186 heartbeat IPC: 1.0547 cumulative IPC: 0.993351 (Simulation time: 4 hr 13 min 56 sec) 
Heartbeat CPU 3 instructions: 1160000000 cycles: 1183943342 heartbeat IPC: 0.933016 cumulative IPC: 0.854036 (Simulation time: 4 hr 14 min 22 sec) 
Heartbeat CPU 0 instructions: 1130000003 cycles: 1191460270 heartbeat IPC: 0.920743 cumulative IPC: 0.818343 (Simulation time: 4 hr 15 min 59 sec) 
Heartbeat CPU 2 instructions: 1450000000 cycles: 1191461255 heartbeat IPC: 1.06055 cumulative IPC: 0.993948 (Simulation time: 4 hr 15 min 59 sec) 
Heartbeat CPU 3 instructions: 1170000000 cycles: 1193566032 heartbeat IPC: 1.03921 cumulative IPC: 0.855712 (Simulation time: 4 hr 16 min 24 sec) 
Heartbeat CPU 0 instructions: 1140000000 cycles: 1200404597 heartbeat IPC: 1.11803 cumulative IPC: 0.820847 (Simulation time: 4 hr 17 min 47 sec) 
Heartbeat CPU 2 instructions: 1460000000 cycles: 1200746998 heartbeat IPC: 1.07692 cumulative IPC: 0.994668 (Simulation time: 4 hr 17 min 51 sec) 
Heartbeat CPU 3 instructions: 1180000000 cycles: 1208509548 heartbeat IPC: 0.669187 cumulative IPC: 0.853127 (Simulation time: 4 hr 19 min 17 sec) 
Heartbeat CPU 2 instructions: 1470000000 cycles: 1210095143 heartbeat IPC: 1.06973 cumulative IPC: 0.995318 (Simulation time: 4 hr 19 min 36 sec) 
Heartbeat CPU 0 instructions: 1150000000 cycles: 1214394431 heartbeat IPC: 0.714805 cumulative IPC: 0.819479 (Simulation time: 4 hr 20 min 31 sec) 
Heartbeat CPU 3 instructions: 1190000000 cycles: 1217399053 heartbeat IPC: 1.12492 cumulative IPC: 0.855349 (Simulation time: 4 hr 21 min 8 sec) 
Heartbeat CPU 2 instructions: 1480000000 cycles: 1219379077 heartbeat IPC: 1.07713 cumulative IPC: 0.996015 (Simulation time: 4 hr 21 min 32 sec) 
Heartbeat CPU 1 instructions: 340000000 cycles: 1221094834 heartbeat IPC: 0.129754 cumulative IPC: 0.128318 (Simulation time: 4 hr 21 min 54 sec) 
Heartbeat CPU 2 instructions: 1490000000 cycles: 1228910474 heartbeat IPC: 1.04916 cumulative IPC: 0.996476 (Simulation time: 4 hr 23 min 15 sec) 
Heartbeat CPU 0 instructions: 1160000000 cycles: 1229498186 heartbeat IPC: 0.662087 cumulative IPC: 0.817317 (Simulation time: 4 hr 23 min 21 sec) 
Heartbeat CPU 3 instructions: 1200000000 cycles: 1230552703 heartbeat IPC: 0.760245 cumulative IPC: 0.854212 (Simulation time: 4 hr 23 min 32 sec) 
Heartbeat CPU 2 instructions: 1500000000 cycles: 1238349274 heartbeat IPC: 1.05946 cumulative IPC: 0.997012 (Simulation time: 4 hr 24 min 58 sec) 
Heartbeat CPU 0 instructions: 1170000000 cycles: 1241863972 heartbeat IPC: 0.808683 cumulative IPC: 0.817221 (Simulation time: 4 hr 25 min 45 sec) 
Heartbeat CPU 3 instructions: 1210000000 cycles: 1242403808 heartbeat IPC: 0.843803 cumulative IPC: 0.854102 (Simulation time: 4 hr 25 min 52 sec) 
Heartbeat CPU 2 instructions: 1510000000 cycles: 1247429855 heartbeat IPC: 1.10125 cumulative IPC: 0.997859 (Simulation time: 4 hr 26 min 56 sec) 
Heartbeat CPU 3 instructions: 1220000000 cycles: 1251306375 heartbeat IPC: 1.12327 cumulative IPC: 0.856239 (Simulation time: 4 hr 27 min 40 sec) 
Heartbeat CPU 0 instructions: 1180000000 cycles: 1254131994 heartbeat IPC: 0.815127 cumulative IPC: 0.817198 (Simulation time: 4 hr 28 min 9 sec) 
Heartbeat CPU 2 instructions: 1520000000 cycles: 1256912471 heartbeat IPC: 1.05456 cumulative IPC: 0.998337 (Simulation time: 4 hr 28 min 42 sec) 
Heartbeat CPU 3 instructions: 1230000002 cycles: 1264927269 heartbeat IPC: 0.734166 cumulative IPC: 0.854774 (Simulation time: 4 hr 30 min 15 sec) 
Heartbeat CPU 0 instructions: 1190000001 cycles: 1265737927 heartbeat IPC: 0.861628 cumulative IPC: 0.817652 (Simulation time: 4 hr 30 min 22 sec) 
Heartbeat CPU 2 instructions: 1530000000 cycles: 1266484393 heartbeat IPC: 1.04472 cumulative IPC: 0.998727 (Simulation time: 4 hr 30 min 28 sec) 
Heartbeat CPU 2 instructions: 1540000000 cycles: 1276379600 heartbeat IPC: 1.01059 cumulative IPC: 0.99883 (Simulation time: 4 hr 32 min 11 sec) 
Heartbeat CPU 0 instructions: 1200000000 cycles: 1278690645 heartbeat IPC: 0.772039 cumulative IPC: 0.817138 (Simulation time: 4 hr 32 min 38 sec) 
Heartbeat CPU 3 instructions: 1240000000 cycles: 1281373335 heartbeat IPC: 0.608048 cumulative IPC: 0.851249 (Simulation time: 4 hr 33 min 10 sec) 
Heartbeat CPU 2 instructions: 1550000000 cycles: 1286203466 heartbeat IPC: 1.01793 cumulative IPC: 0.998992 (Simulation time: 4 hr 34 min 0 sec) 
Heartbeat CPU 0 instructions: 1210000002 cycles: 1290327891 heartbeat IPC: 0.85931 cumulative IPC: 0.817561 (Simulation time: 4 hr 34 min 42 sec) 
Heartbeat CPU 2 instructions: 1560000000 cycles: 1295502171 heartbeat IPC: 1.07542 cumulative IPC: 0.999602 (Simulation time: 4 hr 35 min 45 sec) 
Heartbeat CPU 3 instructions: 1250000001 cycles: 1296059969 heartbeat IPC: 0.680891 cumulative IPC: 0.849103 (Simulation time: 4 hr 35 min 52 sec) 
Heartbeat CPU 1 instructions: 350000000 cycles: 1296788512 heartbeat IPC: 0.132111 cumulative IPC: 0.128564 (Simulation time: 4 hr 36 min 1 sec) 
Heartbeat CPU 0 instructions: 1220000000 cycles: 1298941470 heartbeat IPC: 1.16096 cumulative IPC: 0.820091 (Simulation time: 4 hr 36 min 26 sec) 
Heartbeat CPU 2 instructions: 1570000000 cycles: 1304552040 heartbeat IPC: 1.10499 cumulative IPC: 1.00041 (Simulation time: 4 hr 37 min 31 sec) 
Finished CPU 3 instructions: 1000000003 cycles: 1176206863 cumulative IPC: 0.850191 (Simulation time: 4 hr 37 min 50 sec) 
Heartbeat CPU 3 instructions: 1260000000 cycles: 1306314793 heartbeat IPC: 0.975151 cumulative IPC: 0.850202 (Simulation time: 4 hr 37 min 50 sec) 
Heartbeat CPU 0 instructions: 1230000003 cycles: 1312939382 heartbeat IPC: 0.714392 cumulative IPC: 0.818841 (Simulation time: 4 hr 39 min 5 sec) 
Heartbeat CPU 2 instructions: 1580000000 cycles: 1314080362 heartbeat IPC: 1.0495 cumulative IPC: 1.00081 (Simulation time: 4 hr 39 min 19 sec) 
Heartbeat CPU 3 instructions: 1270000001 cycles: 1314919294 heartbeat IPC: 1.16218 cumulative IPC: 0.852468 (Simulation time: 4 hr 39 min 30 sec) 
Heartbeat CPU 2 instructions: 1590000002 cycles: 1323599557 heartbeat IPC: 1.05051 cumulative IPC: 1.00121 (Simulation time: 4 hr 41 min 15 sec) 
Heartbeat CPU 3 instructions: 1280000000 cycles: 1324068562 heartbeat IPC: 1.09298 cumulative IPC: 0.854311 (Simulation time: 4 hr 41 min 20 sec) 
Heartbeat CPU 0 instructions: 1240000000 cycles: 1327538552 heartbeat IPC: 0.68497 cumulative IPC: 0.817208 (Simulation time: 4 hr 42 min 0 sec) 
Heartbeat CPU 2 instructions: 1600000000 cycles: 1333154744 heartbeat IPC: 1.04655 cumulative IPC: 1.00157 (Simulation time: 4 hr 43 min 1 sec) 
Heartbeat CPU 3 instructions: 1290000001 cycles: 1336404106 heartbeat IPC: 0.810666 cumulative IPC: 0.853865 (Simulation time: 4 hr 43 min 36 sec) 
Heartbeat CPU 0 instructions: 1250000001 cycles: 1340270317 heartbeat IPC: 0.785437 cumulative IPC: 0.816874 (Simulation time: 4 hr 44 min 21 sec) 
Heartbeat CPU 2 instructions: 1610000001 cycles: 1342794182 heartbeat IPC: 1.03741 cumulative IPC: 1.00185 (Simulation time: 4 hr 44 min 53 sec) 
Heartbeat CPU 3 instructions: 1300000000 cycles: 1351034885 heartbeat IPC: 0.683491 cumulative IPC: 0.851823 (Simulation time: 4 hr 46 min 26 sec) 
Heartbeat CPU 2 instructions: 1620000000 cycles: 1352394787 heartbeat IPC: 1.0416 cumulative IPC: 1.00216 (Simulation time: 4 hr 46 min 41 sec) 
Heartbeat CPU 0 instructions: 1260000000 cycles: 1353672438 heartbeat IPC: 0.74615 cumulative IPC: 0.8161 (Simulation time: 4 hr 46 min 55 sec) 
Finished CPU 0 instructions: 1000000003 cycles: 1225175723 cumulative IPC: 0.816209 (Simulation time: 4 hr 47 min 14 sec) 
Heartbeat CPU 2 instructions: 1630000001 cycles: 1362020657 heartbeat IPC: 1.03887 cumulative IPC: 1.00245 (Simulation time: 4 hr 48 min 33 sec) 
Heartbeat CPU 0 instructions: 1270000003 cycles: 1364663585 heartbeat IPC: 0.909823 cumulative IPC: 0.816934 (Simulation time: 4 hr 49 min 5 sec) 
Heartbeat CPU 3 instructions: 1310000001 cycles: 1365634221 heartbeat IPC: 0.684963 cumulative IPC: 0.849851 (Simulation time: 4 hr 49 min 16 sec) 
Heartbeat CPU 1 instructions: 360000000 cycles: 1370531594 heartbeat IPC: 0.135606 cumulative IPC: 0.128983 (Simulation time: 4 hr 50 min 13 sec) 
Heartbeat CPU 2 instructions: 1640000000 cycles: 1371259100 heartbeat IPC: 1.08243 cumulative IPC: 1.00304 (Simulation time: 4 hr 50 min 22 sec) 
Heartbeat CPU 0 instructions: 1280000000 cycles: 1376323109 heartbeat IPC: 0.857668 cumulative IPC: 0.817315 (Simulation time: 4 hr 51 min 28 sec) 
Heartbeat CPU 3 instructions: 1320000000 cycles: 1376595496 heartbeat IPC: 0.912303 cumulative IPC: 0.850401 (Simulation time: 4 hr 51 min 32 sec) 
Heartbeat CPU 2 instructions: 1650000000 cycles: 1380382616 heartbeat IPC: 1.09607 cumulative IPC: 1.00372 (Simulation time: 4 hr 52 min 21 sec) 
Heartbeat CPU 3 instructions: 1330000000 cycles: 1385418847 heartbeat IPC: 1.13336 cumulative IPC: 0.852389 (Simulation time: 4 hr 53 min 23 sec) 
Heartbeat CPU 0 instructions: 1290000001 cycles: 1387429229 heartbeat IPC: 0.900405 cumulative IPC: 0.818049 (Simulation time: 4 hr 53 min 48 sec) 
Heartbeat CPU 2 instructions: 1660000000 cycles: 1389938113 heartbeat IPC: 1.04652 cumulative IPC: 1.00405 (Simulation time: 4 hr 54 min 20 sec) 
Heartbeat CPU 3 instructions: 1340000000 cycles: 1394278421 heartbeat IPC: 1.12872 cumulative IPC: 0.854326 (Simulation time: 4 hr 55 min 16 sec) 
Heartbeat CPU 0 instructions: 1300000000 cycles: 1395947522 heartbeat IPC: 1.17394 cumulative IPC: 0.820444 (Simulation time: 4 hr 55 min 38 sec) 
Heartbeat CPU 2 instructions: 1670000002 cycles: 1399014990 heartbeat IPC: 1.1017 cumulative IPC: 1.00475 (Simulation time: 4 hr 56 min 17 sec) 
Heartbeat CPU 3 instructions: 1350000000 cycles: 1404541053 heartbeat IPC: 0.974409 cumulative IPC: 0.855293 (Simulation time: 4 hr 57 min 18 sec) 
Heartbeat CPU 2 instructions: 1680000000 cycles: 1408655107 heartbeat IPC: 1.03733 cumulative IPC: 1.00499 (Simulation time: 4 hr 58 min 2 sec) 
Heartbeat CPU 0 instructions: 1310000002 cycles: 1409798875 heartbeat IPC: 0.721951 cumulative IPC: 0.819378 (Simulation time: 4 hr 58 min 15 sec) 
Heartbeat CPU 2 instructions: 1690000000 cycles: 1418404181 heartbeat IPC: 1.02574 cumulative IPC: 1.00515 (Simulation time: 4 hr 59 min 52 sec) 
Heartbeat CPU 3 instructions: 1360000000 cycles: 1420253470 heartbeat IPC: 0.636439 cumulative IPC: 0.852628 (Simulation time: 5 hr 0 min 13 sec) 
Heartbeat CPU 0 instructions: 1320000000 cycles: 1425092855 heartbeat IPC: 0.653852 cumulative IPC: 0.817423 (Simulation time: 5 hr 1 min 5 sec) 
Heartbeat CPU 2 instructions: 1700000000 cycles: 1428221510 heartbeat IPC: 1.01861 cumulative IPC: 1.00525 (Simulation time: 5 hr 1 min 36 sec) 
Heartbeat CPU 3 instructions: 1370000003 cycles: 1435914674 heartbeat IPC: 0.638521 cumulative IPC: 0.85006 (Simulation time: 5 hr 2 min 59 sec) 
Heartbeat CPU 2 instructions: 1710000001 cycles: 1437865298 heartbeat IPC: 1.03694 cumulative IPC: 1.00548 (Simulation time: 5 hr 3 min 23 sec) 
Heartbeat CPU 0 instructions: 1330000000 cycles: 1438337818 heartbeat IPC: 0.755004 cumulative IPC: 0.816791 (Simulation time: 5 hr 3 min 30 sec) 
Heartbeat CPU 1 instructions: 370000001 cycles: 1443092630 heartbeat IPC: 0.137815 cumulative IPC: 0.129471 (Simulation time: 5 hr 4 min 28 sec) 
Heartbeat CPU 2 instructions: 1720000000 cycles: 1446984330 heartbeat IPC: 1.09661 cumulative IPC: 1.00612 (Simulation time: 5 hr 5 min 11 sec) 
Heartbeat CPU 3 instructions: 1380000000 cycles: 1447475041 heartbeat IPC: 0.865024 cumulative IPC: 0.850191 (Simulation time: 5 hr 5 min 16 sec) 
Heartbeat CPU 0 instructions: 1340000000 cycles: 1450529832 heartbeat IPC: 0.820209 cumulative IPC: 0.816823 (Simulation time: 5 hr 5 min 50 sec) 
Heartbeat CPU 3 instructions: 1390000002 cycles: 1456222741 heartbeat IPC: 1.14316 cumulative IPC: 0.852124 (Simulation time: 5 hr 6 min 59 sec) 
Heartbeat CPU 2 instructions: 1730000003 cycles: 1456322604 heartbeat IPC: 1.07086 cumulative IPC: 1.00657 (Simulation time: 5 hr 7 min 1 sec) 
Heartbeat CPU 0 instructions: 1350000003 cycles: 1461301584 heartbeat IPC: 0.928354 cumulative IPC: 0.817725 (Simulation time: 5 hr 8 min 0 sec) 
Heartbeat CPU 3 instructions: 1400000000 cycles: 1465048443 heartbeat IPC: 1.13305 cumulative IPC: 0.853981 (Simulation time: 5 hr 8 min 40 sec) 
Heartbeat CPU 2 instructions: 1740000000 cycles: 1465726040 heartbeat IPC: 1.06344 cumulative IPC: 1.00697 (Simulation time: 5 hr 8 min 48 sec) 
Heartbeat CPU 0 instructions: 1360000000 cycles: 1473363032 heartbeat IPC: 0.829088 cumulative IPC: 0.817827 (Simulation time: 5 hr 10 min 19 sec) 
Heartbeat CPU 3 instructions: 1410000000 cycles: 1474044124 heartbeat IPC: 1.11164 cumulative IPC: 0.855705 (Simulation time: 5 hr 10 min 28 sec) 
Heartbeat CPU 2 instructions: 1750000000 cycles: 1475079900 heartbeat IPC: 1.06908 cumulative IPC: 1.0074 (Simulation time: 5 hr 10 min 39 sec) 
Heartbeat CPU 0 instructions: 1370000002 cycles: 1484647516 heartbeat IPC: 0.886173 cumulative IPC: 0.818396 (Simulation time: 5 hr 12 min 22 sec) 
Heartbeat CPU 2 instructions: 1760000000 cycles: 1484899445 heartbeat IPC: 1.01838 cumulative IPC: 1.00748 (Simulation time: 5 hr 12 min 25 sec) 
Heartbeat CPU 3 instructions: 1420000000 cycles: 1490056151 heartbeat IPC: 0.624531 cumulative IPC: 0.852984 (Simulation time: 5 hr 13 min 24 sec) 
Heartbeat CPU 0 instructions: 1380000000 cycles: 1493473226 heartbeat IPC: 1.13305 cumulative IPC: 0.820433 (Simulation time: 5 hr 14 min 3 sec) 
Heartbeat CPU 2 instructions: 1770000000 cycles: 1494335467 heartbeat IPC: 1.05977 cumulative IPC: 1.00784 (Simulation time: 5 hr 14 min 13 sec) 
Heartbeat CPU 2 instructions: 1780000000 cycles: 1504191416 heartbeat IPC: 1.01462 cumulative IPC: 1.00789 (Simulation time: 5 hr 15 min 50 sec) 
Heartbeat CPU 3 instructions: 1430000000 cycles: 1505341968 heartbeat IPC: 0.654201 cumulative IPC: 0.850774 (Simulation time: 5 hr 16 min 2 sec) 
Heartbeat CPU 0 instructions: 1390000001 cycles: 1507899829 heartbeat IPC: 0.693164 cumulative IPC: 0.819101 (Simulation time: 5 hr 16 min 31 sec) 
Heartbeat CPU 2 instructions: 1790000002 cycles: 1513573797 heartbeat IPC: 1.06583 cumulative IPC: 1.00829 (Simulation time: 5 hr 17 min 36 sec) 
Heartbeat CPU 3 instructions: 1440000000 cycles: 1517063468 heartbeat IPC: 0.853133 cumulative IPC: 0.850794 (Simulation time: 5 hr 18 min 17 sec) 
Heartbeat CPU 1 instructions: 380000000 cycles: 1521290706 heartbeat IPC: 0.12788 cumulative IPC: 0.129382 (Simulation time: 5 hr 19 min 3 sec) 
Heartbeat CPU 0 instructions: 1400000000 cycles: 1522096699 heartbeat IPC: 0.704381 cumulative IPC: 0.817931 (Simulation time: 5 hr 19 min 11 sec) 
Heartbeat CPU 2 instructions: 1800000000 cycles: 1522925484 heartbeat IPC: 1.06933 cumulative IPC: 1.0087 (Simulation time: 5 hr 19 min 20 sec) 
Heartbeat CPU 3 instructions: 1450000000 cycles: 1526079435 heartbeat IPC: 1.10914 cumulative IPC: 0.852463 (Simulation time: 5 hr 19 min 54 sec) 
Heartbeat CPU 2 instructions: 1810000000 cycles: 1532531183 heartbeat IPC: 1.04105 cumulative IPC: 1.00892 (Simulation time: 5 hr 21 min 7 sec) 
Heartbeat CPU 0 instructions: 1410000002 cycles: 1535010669 heartbeat IPC: 0.774355 cumulative IPC: 0.81753 (Simulation time: 5 hr 21 min 40 sec) 
Heartbeat CPU 3 instructions: 1460000000 cycles: 1535156027 heartbeat IPC: 1.10174 cumulative IPC: 0.854073 (Simulation time: 5 hr 21 min 41 sec) 
Heartbeat CPU 2 instructions: 1820000000 cycles: 1541790934 heartbeat IPC: 1.07994 cumulative IPC: 1.00938 (Simulation time: 5 hr 23 min 7 sec) 
Heartbeat CPU 3 instructions: 1470000000 cycles: 1543964319 heartbeat IPC: 1.13529 cumulative IPC: 0.855825 (Simulation time: 5 hr 23 min 32 sec) 
Heartbeat CPU 0 instructions: 1420000000 cycles: 1547221886 heartbeat IPC: 0.818919 cumulative IPC: 0.817542 (Simulation time: 5 hr 24 min 8 sec) 
Heartbeat CPU 2 instructions: 1830000002 cycles: 1551353207 heartbeat IPC: 1.04578 cumulative IPC: 1.00963 (Simulation time: 5 hr 24 min 55 sec) 
Heartbeat CPU 0 instructions: 1430000000 cycles: 1558170455 heartbeat IPC: 0.913361 cumulative IPC: 0.818277 (Simulation time: 5 hr 26 min 17 sec) 
Heartbeat CPU 3 instructions: 1480000000 cycles: 1558890630 heartbeat IPC: 0.669958 cumulative IPC: 0.853883 (Simulation time: 5 hr 26 min 24 sec) 
Heartbeat CPU 2 instructions: 1840000000 cycles: 1560780469 heartbeat IPC: 1.06075 cumulative IPC: 1.00997 (Simulation time: 5 hr 26 min 44 sec) 
Heartbeat CPU 2 instructions: 1850000000 cycles: 1570477615 heartbeat IPC: 1.03123 cumulative IPC: 1.01011 (Simulation time: 5 hr 28 min 36 sec) 
Heartbeat CPU 0 instructions: 1440000000 cycles: 1570922462 heartbeat IPC: 0.78419 cumulative IPC: 0.817975 (Simulation time: 5 hr 28 min 41 sec) 
Heartbeat CPU 3 instructions: 1490000000 cycles: 1574280844 heartbeat IPC: 0.649764 cumulative IPC: 0.851708 (Simulation time: 5 hr 29 min 21 sec) 
Heartbeat CPU 2 instructions: 1860000000 cycles: 1580070946 heartbeat IPC: 1.04239 cumulative IPC: 1.01032 (Simulation time: 5 hr 30 min 32 sec) 
Heartbeat CPU 0 instructions: 1450000001 cycles: 1582030488 heartbeat IPC: 0.90025 cumulative IPC: 0.818605 (Simulation time: 5 hr 30 min 58 sec) 
Heartbeat CPU 3 instructions: 1500000000 cycles: 1586507682 heartbeat IPC: 0.817873 cumulative IPC: 0.851424 (Simulation time: 5 hr 32 min 1 sec) 
Heartbeat CPU 2 instructions: 1870000003 cycles: 1589191076 heartbeat IPC: 1.09648 cumulative IPC: 1.01086 (Simulation time: 5 hr 32 min 39 sec) 
Heartbeat CPU 0 instructions: 1460000000 cycles: 1590627145 heartbeat IPC: 1.16324 cumulative IPC: 0.820633 (Simulation time: 5 hr 32 min 59 sec) 
Heartbeat CPU 3 instructions: 1510000003 cycles: 1595626085 heartbeat IPC: 1.09668 cumulative IPC: 0.85295 (Simulation time: 5 hr 34 min 5 sec) 
Heartbeat CPU 1 instructions: 390000001 cycles: 1596663822 heartbeat IPC: 0.132673 cumulative IPC: 0.129551 (Simulation time: 5 hr 34 min 17 sec) 
Heartbeat CPU 2 instructions: 1880000000 cycles: 1598413960 heartbeat IPC: 1.08426 cumulative IPC: 1.01132 (Simulation time: 5 hr 34 min 37 sec) 
Heartbeat CPU 0 instructions: 1470000001 cycles: 1604052033 heartbeat IPC: 0.744885 cumulative IPC: 0.819943 (Simulation time: 5 hr 35 min 50 sec) 
Heartbeat CPU 3 instructions: 1520000000 cycles: 1604345429 heartbeat IPC: 1.14687 cumulative IPC: 0.854688 (Simulation time: 5 hr 35 min 53 sec) 
Heartbeat CPU 2 instructions: 1890000001 cycles: 1607977622 heartbeat IPC: 1.04562 cumulative IPC: 1.01154 (Simulation time: 5 hr 36 min 42 sec) 
Heartbeat CPU 3 instructions: 1530000001 cycles: 1613518444 heartbeat IPC: 1.09015 cumulative IPC: 0.856144 (Simulation time: 5 hr 37 min 58 sec) 
Heartbeat CPU 2 instructions: 1900000000 cycles: 1617446944 heartbeat IPC: 1.05604 cumulative IPC: 1.01183 (Simulation time: 5 hr 38 min 47 sec) 
Heartbeat CPU 0 instructions: 1480000000 cycles: 1618437688 heartbeat IPC: 0.695137 cumulative IPC: 0.818737 (Simulation time: 5 hr 38 min 57 sec) 
Heartbeat CPU 2 instructions: 1910000001 cycles: 1627171103 heartbeat IPC: 1.02837 cumulative IPC: 1.01193 (Simulation time: 5 hr 40 min 29 sec) 
Heartbeat CPU 3 instructions: 1540000000 cycles: 1628290625 heartbeat IPC: 0.676948 cumulative IPC: 0.854378 (Simulation time: 5 hr 40 min 42 sec) 
Heartbeat CPU 0 instructions: 1490000001 cycles: 1631918028 heartbeat IPC: 0.741821 cumulative IPC: 0.818046 (Simulation time: 5 hr 41 min 25 sec) 
Heartbeat CPU 2 instructions: 1920000000 cycles: 1636878919 heartbeat IPC: 1.0301 cumulative IPC: 1.01205 (Simulation time: 5 hr 42 min 26 sec) 
Heartbeat CPU 3 instructions: 1550000003 cycles: 1643015432 heartbeat IPC: 0.679126 cumulative IPC: 0.852672 (Simulation time: 5 hr 43 min 32 sec) 
Heartbeat CPU 0 instructions: 1500000000 cycles: 1644890244 heartbeat IPC: 0.770878 cumulative IPC: 0.817643 (Simulation time: 5 hr 43 min 51 sec) 
Heartbeat CPU 2 instructions: 1930000001 cycles: 1646699679 heartbeat IPC: 1.01825 cumulative IPC: 1.01209 (Simulation time: 5 hr 44 min 9 sec) 
Heartbeat CPU 0 instructions: 1510000003 cycles: 1655664958 heartbeat IPC: 0.928099 cumulative IPC: 0.818423 (Simulation time: 5 hr 46 min 4 sec) 
Heartbeat CPU 2 instructions: 1940000000 cycles: 1655872986 heartbeat IPC: 1.09012 cumulative IPC: 1.01256 (Simulation time: 5 hr 46 min 6 sec) 
[...]
Heartbeat CPU 0 instructions: 6450000000 cycles: 7612685762 heartbeat IPC: 0.891596 cumulative IPC: 0.827061 (Simulation time: 22 hr 26 min 26 sec) 
Heartbeat CPU 3 instructions: 6650000002 cycles: 7618279082 heartbeat IPC: 1.01324 cumulative IPC: 0.853348 (Simulation time: 22 hr 27 min 29 sec) 
Heartbeat CPU 2 instructions: 7550000000 cycles: 7619452317 heartbeat IPC: 1.08378 cumulative IPC: 0.955348 (Simulation time: 22 hr 27 min 41 sec) 
Heartbeat CPU 0 instructions: 6460000000 cycles: 7625078297 heartbeat IPC: 0.806937 cumulative IPC: 0.827028 (Simulation time: 22 hr 28 min 45 sec) 
Heartbeat CPU 3 instructions: 6660000000 cycles: 7628470942 heartbeat IPC: 0.981175 cumulative IPC: 0.853521 (Simulation time: 22 hr 29 min 21 sec) 
Heartbeat CPU 2 instructions: 7560000000 cycles: 7628845625 heartbeat IPC: 1.06459 cumulative IPC: 0.955485 (Simulation time: 22 hr 29 min 24 sec) 
Heartbeat CPU 0 instructions: 6470000003 cycles: 7637493610 heartbeat IPC: 0.805457 cumulative IPC: 0.826992 (Simulation time: 22 hr 30 min 47 sec) 
Heartbeat CPU 2 instructions: 7570000000 cycles: 7638246895 heartbeat IPC: 1.06369 cumulative IPC: 0.955621 (Simulation time: 22 hr 30 min 54 sec) 
Heartbeat CPU 3 instructions: 6670000002 cycles: 7642839209 heartbeat IPC: 0.695978 cumulative IPC: 0.85322 (Simulation time: 22 hr 31 min 45 sec) 
Heartbeat CPU 2 instructions: 7580000000 cycles: 7647473451 heartbeat IPC: 1.08383 cumulative IPC: 0.955778 (Simulation time: 22 hr 32 min 40 sec) 
Heartbeat CPU 0 instructions: 6480000000 cycles: 7647690621 heartbeat IPC: 0.980679 cumulative IPC: 0.827201 (Simulation time: 22 hr 32 min 43 sec) 
Heartbeat CPU 3 instructions: 6680000000 cycles: 7651771908 heartbeat IPC: 1.11948 cumulative IPC: 0.853536 (Simulation time: 22 hr 33 min 27 sec) 
Heartbeat CPU 2 instructions: 7590000002 cycles: 7657241235 heartbeat IPC: 1.02377 cumulative IPC: 0.955866 (Simulation time: 22 hr 34 min 26 sec) 
Heartbeat CPU 0 instructions: 6490000003 cycles: 7658553580 heartbeat IPC: 0.92056 cumulative IPC: 0.827335 (Simulation time: 22 hr 34 min 39 sec) 
Heartbeat CPU 1 instructions: 1190000002 cycles: 7665146311 heartbeat IPC: 0.134571 cumulative IPC: 0.131385 (Simulation time: 22 hr 35 min 45 sec) 
Heartbeat CPU 3 instructions: 6690000001 cycles: 7665775861 heartbeat IPC: 0.714084 cumulative IPC: 0.853277 (Simulation time: 22 hr 35 min 51 sec) 
Heartbeat CPU 2 instructions: 7600000000 cycles: 7666616696 heartbeat IPC: 1.06661 cumulative IPC: 0.956004 (Simulation time: 22 hr 36 min 0 sec) 
Heartbeat CPU 0 instructions: 6500000000 cycles: 7667593044 heartbeat IPC: 1.10626 cumulative IPC: 0.82767 (Simulation time: 22 hr 36 min 9 sec) 
Heartbeat CPU 2 instructions: 7610000001 cycles: 7676043533 heartbeat IPC: 1.0608 cumulative IPC: 0.956135 (Simulation time: 22 hr 37 min 34 sec) 
Heartbeat CPU 3 instructions: 6700000000 cycles: 7676844878 heartbeat IPC: 0.903422 cumulative IPC: 0.853351 (Simulation time: 22 hr 37 min 43 sec) 
Heartbeat CPU 0 instructions: 6510000002 cycles: 7682558282 heartbeat IPC: 0.668215 cumulative IPC: 0.827354 (Simulation time: 22 hr 38 min 47 sec) 
Heartbeat CPU 2 instructions: 7620000000 cycles: 7685398365 heartbeat IPC: 1.06897 cumulative IPC: 0.956275 (Simulation time: 22 hr 39 min 18 sec) 
Heartbeat CPU 3 instructions: 6710000002 cycles: 7686744982 heartbeat IPC: 1.01009 cumulative IPC: 0.853556 (Simulation time: 22 hr 39 min 31 sec) 
Heartbeat CPU 2 instructions: 7630000001 cycles: 7695077411 heartbeat IPC: 1.03316 cumulative IPC: 0.956373 (Simulation time: 22 hr 40 min 45 sec) 
Heartbeat CPU 0 instructions: 6520000000 cycles: 7698067989 heartbeat IPC: 0.644757 cumulative IPC: 0.82698 (Simulation time: 22 hr 41 min 12 sec) 
Heartbeat CPU 3 instructions: 6720000000 cycles: 7702159641 heartbeat IPC: 0.648733 cumulative IPC: 0.853139 (Simulation time: 22 hr 41 min 52 sec) 
Heartbeat CPU 2 instructions: 7640000000 cycles: 7704646496 heartbeat IPC: 1.04503 cumulative IPC: 0.956485 (Simulation time: 22 hr 42 min 20 sec) 
Heartbeat CPU 0 instructions: 6530000000 cycles: 7709365901 heartbeat IPC: 0.885119 cumulative IPC: 0.827066 (Simulation time: 22 hr 43 min 17 sec) 
Heartbeat CPU 3 instructions: 6730000002 cycles: 7711000396 heartbeat IPC: 1.13113 cumulative IPC: 0.853463 (Simulation time: 22 hr 43 min 36 sec) 
Heartbeat CPU 2 instructions: 7650000000 cycles: 7713721699 heartbeat IPC: 1.1019 cumulative IPC: 0.956659 (Simulation time: 22 hr 44 min 6 sec) 
Heartbeat CPU 0 instructions: 6540000000 cycles: 7722343674 heartbeat IPC: 0.770548 cumulative IPC: 0.82697 (Simulation time: 22 hr 45 min 28 sec) 
Heartbeat CPU 2 instructions: 7660000000 cycles: 7723273843 heartbeat IPC: 1.04689 cumulative IPC: 0.956773 (Simulation time: 22 hr 45 min 38 sec) 
Heartbeat CPU 3 instructions: 6740000000 cycles: 7724074033 heartbeat IPC: 0.764898 cumulative IPC: 0.853311 (Simulation time: 22 hr 45 min 46 sec) 
Heartbeat CPU 2 instructions: 7670000002 cycles: 7732451879 heartbeat IPC: 1.08956 cumulative IPC: 0.956933 (Simulation time: 22 hr 47 min 12 sec) 
Heartbeat CPU 0 instructions: 6550000003 cycles: 7734299438 heartbeat IPC: 0.836417 cumulative IPC: 0.826985 (Simulation time: 22 hr 47 min 32 sec) 
Heartbeat CPU 3 instructions: 6750000000 cycles: 7735834656 heartbeat IPC: 0.850295 cumulative IPC: 0.853306 (Simulation time: 22 hr 47 min 49 sec) 
Heartbeat CPU 2 instructions: 7680000000 cycles: 7741650815 heartbeat IPC: 1.08708 cumulative IPC: 0.95709 (Simulation time: 22 hr 48 min 57 sec) 
Heartbeat CPU 3 instructions: 6760000000 cycles: 7744546798 heartbeat IPC: 1.14782 cumulative IPC: 0.853643 (Simulation time: 22 hr 49 min 32 sec) 
Heartbeat CPU 0 instructions: 6560000000 cycles: 7744644210 heartbeat IPC: 0.966672 cumulative IPC: 0.827174 (Simulation time: 22 hr 49 min 33 sec) 
Heartbeat CPU 1 instructions: 1200000000 cycles: 7749831180 heartbeat IPC: 0.118085 cumulative IPC: 0.131238 (Simulation time: 22 hr 50 min 22 sec) 
Finished CPU 1 instructions: 1000000000 cycles: 7619772859 cumulative IPC: 0.131238 (Simulation time: 22 hr 50 min 22 sec) 

CPU 0 Branch Prediction Accuracy: 99.8413% MPKI: 0.103404

CPU 1 Branch Prediction Accuracy: 96.8196% MPKI: 9.50327

CPU 2 Branch Prediction Accuracy: 99.8995% MPKI: 0.0504852

CPU 3 Branch Prediction Accuracy: 99.8338% MPKI: 0.0758552

ChampSim completed all CPUs

Total Simulation Statistics (not including warmup)

CPU 0 cumulative IPC: 0.827127 instructions: 6302516844 cycles: 7619772859
L1D TOTAL     ACCESS: 1523121047  HIT: 1355331772  MISS:  167789275
L1D LOAD      ACCESS: 1340263751  HIT: 1206765564  MISS:  133498187
L1D RFO       ACCESS:  182857296  HIT:  148566208  MISS:   34291088
L1D PREFETCH  ACCESS:          0  HIT:          0  MISS:          0
L1D WRITEBACK ACCESS:          0  HIT:          0  MISS:          0
L1I TOTAL     ACCESS: 1624147051  HIT: 1624146934  MISS:        117
L1I LOAD      ACCESS: 1624147051  HIT: 1624146934  MISS:        117
L1I RFO       ACCESS:          0  HIT:          0  MISS:          0
L1I PREFETCH  ACCESS:          0  HIT:          0  MISS:          0
L1I WRITEBACK ACCESS:          0  HIT:          0  MISS:          0
L2C TOTAL     ACCESS:  379621154  HIT:  235728969  MISS:  143892185
L2C LOAD      ACCESS:  133498200  HIT:   75969689  MISS:   57528511
L2C RFO       ACCESS:   34291088  HIT:      21006  MISS:   34270082
L2C PREFETCH  ACCESS:  165267877  HIT:  113202395  MISS:   52065482
L2C WRITEBACK ACCESS:   46563989  HIT:   46535879  MISS:      28110
LLC TOTAL     ACCESS:  610325185  HIT:  472871417  MISS:  137453768
LLC LOAD      ACCESS:   42702479  HIT:   37585724  MISS:    5116755
LLC RFO       ACCESS:   34270083  HIT:    2891302  MISS:   31378781
LLC PREFETCH  ACCESS:  487111754  HIT:  386154901  MISS:  100956853
LLC WRITEBACK ACCESS:   46240869  HIT:   46239490  MISS:       1379

CPU 1 cumulative IPC: 0.131238 instructions: 1000000000 cycles: 7619772859
L1D TOTAL     ACCESS:  224239195  HIT:   67357628  MISS:  156881567
L1D LOAD      ACCESS:  208191683  HIT:   51629473  MISS:  156562210
L1D RFO       ACCESS:   16047512  HIT:   15728155  MISS:     319357
L1D PREFETCH  ACCESS:          0  HIT:          0  MISS:          0
L1D WRITEBACK ACCESS:          0  HIT:          0  MISS:          0
L1I TOTAL     ACCESS:  216294839  HIT:  216294839  MISS:          0
L1I LOAD      ACCESS:  216294839  HIT:  216294839  MISS:          0
L1I RFO       ACCESS:          0  HIT:          0  MISS:          0
L1I PREFETCH  ACCESS:          0  HIT:          0  MISS:          0
L1I WRITEBACK ACCESS:          0  HIT:          0  MISS:          0
L2C TOTAL     ACCESS:  176422544  HIT:   24297081  MISS:  152125463
L2C LOAD      ACCESS:  156561888  HIT:   17491920  MISS:  139069968
L2C RFO       ACCESS:     319357  HIT:      10659  MISS:     308698
L2C PREFETCH  ACCESS:   17247268  HIT:    4500622  MISS:   12746646
L2C WRITEBACK ACCESS:    2294031  HIT:    2293880  MISS:        151
LLC TOTAL     ACCESS:  295751468  HIT:  195048660  MISS:  100702808
LLC LOAD      ACCESS:  134546630  HIT:   98108245  MISS:   36438385
LLC RFO       ACCESS:     308697  HIT:     256788  MISS:      51909
LLC PREFETCH  ACCESS:  158707165  HIT:   94499756  MISS:   64207409
LLC WRITEBACK ACCESS:    2188976  HIT:    2183871  MISS:       5105

CPU 2 cumulative IPC: 0.957164 instructions: 7293370202 cycles: 7619772860
L1D TOTAL     ACCESS: 2221031054  HIT: 2061003718  MISS:  160027336
L1D LOAD      ACCESS: 1861652382  HIT: 1705088307  MISS:  156564075
L1D RFO       ACCESS:  359378672  HIT:  355915411  MISS:    3463261
L1D PREFETCH  ACCESS:          0  HIT:          0  MISS:          0
L1D WRITEBACK ACCESS:          0  HIT:          0  MISS:          0
L1I TOTAL     ACCESS: 1765300437  HIT: 1765300392  MISS:         45
L1I LOAD      ACCESS: 1765300437  HIT: 1765300392  MISS:         45
L1I RFO       ACCESS:          0  HIT:          0  MISS:          0
L1I PREFETCH  ACCESS:          0  HIT:          0  MISS:          0
L1I WRITEBACK ACCESS:          0  HIT:          0  MISS:          0
L2C TOTAL     ACCESS:  247110260  HIT:   95238691  MISS:  151871569
L2C LOAD      ACCESS:  156560974  HIT:   52027872  MISS:  104533102
L2C RFO       ACCESS:    3401443  HIT:     690273  MISS:    2711170
L2C PREFETCH  ACCESS:   73293524  HIT:   28668239  MISS:   44625285
L2C WRITEBACK ACCESS:   13854319  HIT:   13852307  MISS:       2012
LLC TOTAL     ACCESS:  558399435  HIT:  406584513  MISS:  151814922
LLC LOAD      ACCESS:   81998380  HIT:   74864734  MISS:    7133646
LLC RFO       ACCESS:    2711169  HIT:         35  MISS:    2711134
LLC PREFETCH  ACCESS:  460813288  HIT:  318846168  MISS:  141967120
LLC WRITEBACK ACCESS:   12876598  HIT:   12873576  MISS:       3022

CPU 3 cumulative IPC: 0.853458 instructions: 6503156459 cycles: 7619772860
L1D TOTAL     ACCESS: 1642936235  HIT: 1448110792  MISS:  194825443
L1D LOAD      ACCESS: 1554466879  HIT: 1397588542  MISS:  156878337
L1D RFO       ACCESS:   88469356  HIT:   50522250  MISS:   37947106
L1D PREFETCH  ACCESS:          0  HIT:          0  MISS:          0
L1D WRITEBACK ACCESS:          0  HIT:          0  MISS:          0
L1I TOTAL     ACCESS: 1658901167  HIT: 1658900895  MISS:        272
L1I LOAD      ACCESS: 1658901167  HIT: 1658900895  MISS:        272
L1I RFO       ACCESS:          0  HIT:          0  MISS:          0
L1I PREFETCH  ACCESS:          0  HIT:          0  MISS:          0
L1I WRITEBACK ACCESS:          0  HIT:          0  MISS:          0
L2C TOTAL     ACCESS:  520223799  HIT:  370001467  MISS:  150222332
L2C LOAD      ACCESS:  156877957  HIT:  105527201  MISS:   51350756
L2C RFO       ACCESS:   37947106  HIT:        153  MISS:   37946953
L2C PREFETCH  ACCESS:  285927427  HIT:  225003910  MISS:   60923517
L2C WRITEBACK ACCESS:   39471309  HIT:   39470203  MISS:       1106
LLC TOTAL     ACCESS:  689789334  HIT:  534363247  MISS:  155426087
LLC LOAD      ACCESS:   42890316  HIT:   38263467  MISS:    4626849
LLC RFO       ACCESS:   37946953  HIT:        139  MISS:   37946814
LLC PREFETCH  ACCESS:  569806575  HIT:  456955229  MISS:  112851346
LLC WRITEBACK ACCESS:   39145490  HIT:   39144412  MISS:       1078

Region of Interest Statistics

CPU 0 cumulative IPC: 0.816209 instructions: 1000000003 cycles: 1225175723
L1D TOTAL     ACCESS:  241666767  HIT:  215528065  MISS:   26138702
L1D LOAD      ACCESS:  219190416  HIT:  198862622  MISS:   20327794
L1D RFO       ACCESS:   22476351  HIT:   16665443  MISS:    5810908
L1D PREFETCH  ACCESS:          0  HIT:          0  MISS:          0
L1D WRITEBACK ACCESS:          0  HIT:          0  MISS:          0
L1D PREFETCH  REQUESTED:          0  ISSUED:          0  USEFUL:          0  USELESS:          0
L1I TOTAL     ACCESS:  255925615  HIT:  255925615  MISS:          0
L1I LOAD      ACCESS:  255925615  HIT:  255925615  MISS:          0
L1I RFO       ACCESS:          0  HIT:          0  MISS:          0
L1I PREFETCH  ACCESS:          0  HIT:          0  MISS:          0
L1I WRITEBACK ACCESS:          0  HIT:          0  MISS:          0
L1I PREFETCH  REQUESTED:          0  ISSUED:          0  USEFUL:          0  USELESS:          0
L2C TOTAL     ACCESS:   58516894  HIT:   35885399  MISS:   22631495
L2C LOAD      ACCESS:   20327786  HIT:   11820786  MISS:    8507000
L2C RFO       ACCESS:    5810908  HIT:         29  MISS:    5810879
L2C PREFETCH  ACCESS:   24815847  HIT:   16502551  MISS:    8313296
L2C WRITEBACK ACCESS:    7562353  HIT:    7562033  MISS:        320
L2C PREFETCH  REQUESTED:  803749020  ISSUED:  799159507  USEFUL:   53149599  USELESS:     810128
LLC TOTAL     ACCESS:   94825718  HIT:   71263045  MISS:   23562673
LLC LOAD      ACCESS:    6531457  HIT:    5687827  MISS:     843630
LLC RFO       ACCESS:    5810879  HIT:         12  MISS:    5810867
LLC PREFETCH  ACCESS:   74972094  HIT:   58064109  MISS:   16907985
LLC WRITEBACK ACCESS:    7511288  HIT:    7511097  MISS:        191
LLC PREFETCH  REQUESTED:          0  ISSUED:          0  USEFUL:  194591284  USELESS:  253975940
Major fault: 0 Minor fault: 209522

CPU 1 cumulative IPC: 0.131238 instructions: 1000000000 cycles: 7619772859
L1D TOTAL     ACCESS:  224239195  HIT:   67357628  MISS:  156881567
L1D LOAD      ACCESS:  208191683  HIT:   51629473  MISS:  156562210
L1D RFO       ACCESS:   16047512  HIT:   15728155  MISS:     319357
L1D PREFETCH  ACCESS:          0  HIT:          0  MISS:          0
L1D WRITEBACK ACCESS:          0  HIT:          0  MISS:          0
L1D PREFETCH  REQUESTED:          0  ISSUED:          0  USEFUL:          0  USELESS:          0
L1I TOTAL     ACCESS:  216294839  HIT:  216294839  MISS:          0
L1I LOAD      ACCESS:  216294839  HIT:  216294839  MISS:          0
L1I RFO       ACCESS:          0  HIT:          0  MISS:          0
L1I PREFETCH  ACCESS:          0  HIT:          0  MISS:          0
L1I WRITEBACK ACCESS:          0  HIT:          0  MISS:          0
L1I PREFETCH  REQUESTED:          0  ISSUED:          0  USEFUL:          0  USELESS:          0
L2C TOTAL     ACCESS:  176422544  HIT:   24297081  MISS:  152125463
L2C LOAD      ACCESS:  156561888  HIT:   17491920  MISS:  139069968
L2C RFO       ACCESS:     319357  HIT:      10659  MISS:     308698
L2C PREFETCH  ACCESS:   17247268  HIT:    4500622  MISS:   12746646
L2C WRITEBACK ACCESS:    2294031  HIT:    2293880  MISS:        151
L2C PREFETCH  REQUESTED:  469061355  ISSUED:  468617709  USEFUL:   11397003  USELESS:    4247385
LLC TOTAL     ACCESS:  295751468  HIT:  195048660  MISS:  100702808
LLC LOAD      ACCESS:  134546630  HIT:   98108245  MISS:   36438385
LLC RFO       ACCESS:     308697  HIT:     256788  MISS:      51909
LLC PREFETCH  ACCESS:  158707165  HIT:   94499756  MISS:   64207409
LLC WRITEBACK ACCESS:    2188976  HIT:    2183871  MISS:       5105
LLC PREFETCH  REQUESTED:          0  ISSUED:          0  USEFUL:  194591284  USELESS:  253975940
Major fault: 0 Minor fault: 443600

CPU 2 cumulative IPC: 0.990094 instructions: 1000000002 cycles: 1010004737
L1D TOTAL     ACCESS:  331496599  HIT:  309224966  MISS:   22271633
L1D LOAD      ACCESS:  277283772  HIT:  255547806  MISS:   21735966
L1D RFO       ACCESS:   54212827  HIT:   53677160  MISS:     535667
L1D PREFETCH  ACCESS:          0  HIT:          0  MISS:          0
L1D WRITEBACK ACCESS:          0  HIT:          0  MISS:          0
L1D PREFETCH  REQUESTED:          0  ISSUED:          0  USEFUL:          0  USELESS:          0
L1I TOTAL     ACCESS:  247185814  HIT:  247185769  MISS:         45
L1I LOAD      ACCESS:  247185814  HIT:  247185769  MISS:         45
L1I RFO       ACCESS:          0  HIT:          0  MISS:          0
L1I PREFETCH  ACCESS:          0  HIT:          0  MISS:          0
L1I WRITEBACK ACCESS:          0  HIT:          0  MISS:          0
L1I PREFETCH  REQUESTED:          0  ISSUED:          0  USEFUL:          0  USELESS:          0
L2C TOTAL     ACCESS:   35242847  HIT:   14216685  MISS:   21026162
L2C LOAD      ACCESS:   21735543  HIT:    7455854  MISS:   14279689
L2C RFO       ACCESS:     526267  HIT:     105290  MISS:     420977
L2C PREFETCH  ACCESS:   10657903  HIT:    4332549  MISS:    6325354
L2C WRITEBACK ACCESS:    2323134  HIT:    2322992  MISS:        142
L2C PREFETCH  REQUESTED:  995168274  ISSUED:  786276599  USEFUL:   48146293  USELESS:       1564
LLC TOTAL     ACCESS:   78768618  HIT:   57749582  MISS:   21019036
LLC LOAD      ACCESS:   11563974  HIT:   10590606  MISS:     973368
LLC RFO       ACCESS:     420976  HIT:          8  MISS:     420968
LLC PREFETCH  ACCESS:   64608707  HIT:   44984449  MISS:   19624258
LLC WRITEBACK ACCESS:    2174961  HIT:    2174519  MISS:        442
LLC PREFETCH  REQUESTED:          0  ISSUED:          0  USEFUL:  194591284  USELESS:  253975940
Major fault: 0 Minor fault: 529860

CPU 3 cumulative IPC: 0.850191 instructions: 1000000003 cycles: 1176206863
L1D TOTAL     ACCESS:  262126893  HIT:  232858132  MISS:   29268761
L1D LOAD      ACCESS:  247112851  HIT:  224421401  MISS:   22691450
L1D RFO       ACCESS:   15014042  HIT:    8436731  MISS:    6577311
L1D PREFETCH  ACCESS:          0  HIT:          0  MISS:          0
L1D WRITEBACK ACCESS:          0  HIT:          0  MISS:          0
L1D PREFETCH  REQUESTED:          0  ISSUED:          0  USEFUL:          0  USELESS:          0
L1I TOTAL     ACCESS:  251331081  HIT:  251330841  MISS:        240
L1I LOAD      ACCESS:  251331081  HIT:  251330841  MISS:        240
L1I RFO       ACCESS:          0  HIT:          0  MISS:          0
L1I PREFETCH  ACCESS:          0  HIT:          0  MISS:          0
L1I WRITEBACK ACCESS:          0  HIT:          0  MISS:          0
L1I PREFETCH  REQUESTED:          0  ISSUED:          0  USEFUL:          0  USELESS:          0
L2C TOTAL     ACCESS:   83844168  HIT:   62601695  MISS:   21242473
L2C LOAD      ACCESS:   22691542  HIT:   15880025  MISS:    6811517
L2C RFO       ACCESS:    6577311  HIT:          1  MISS:    6577310
L2C PREFETCH  ACCESS:   47955965  HIT:   40102542  MISS:    7853423
L2C WRITEBACK ACCESS:    6619350  HIT:    6619127  MISS:        223
L2C PREFETCH  REQUESTED:  940638462  ISSUED:  907138200  USEFUL:   62058523  USELESS:     667637
LLC TOTAL     ACCESS:   89754209  HIT:   67819243  MISS:   21934966
LLC LOAD      ACCESS:    5737501  HIT:    5087847  MISS:     649654
LLC RFO       ACCESS:    6577310  HIT:         10  MISS:    6577300
LLC PREFETCH  ACCESS:   70861745  HIT:   56153872  MISS:   14707873
LLC WRITEBACK ACCESS:    6577653  HIT:    6577514  MISS:        139
LLC PREFETCH  REQUESTED:          0  ISSUED:          0  USEFUL:  194591284  USELESS:  253975940
Major fault: 0 Minor fault: 232422

DRAM Statistics
 CHANNEL 0
 RQ ROW_BUFFER_HIT:   93133175  ROW_BUFFER_MISS:  179388063
 DBUS_CONGESTED:  490950278
 WQ ROW_BUFFER_HIT:    2606110  ROW_BUFFER_MISS:   45442514  FULL:          0

 CHANNEL 1
 RQ ROW_BUFFER_HIT:   92915672  ROW_BUFFER_MISS:  179945887
 DBUS_CONGESTED:  490950278
 WQ ROW_BUFFER_HIT:    2602951  ROW_BUFFER_MISS:   45449387  FULL:          0

 AVG_CONGESTED_CYCLE: 13
