Initialize SIGNATURE TABLE
ST_SET: 1
ST_WAY: 256
ST_TAG_BIT: 16
ST_TAG_MASK: ffff

Initialize PATTERN TABLE
PT_SET: 512
PT_WAY: 4
SIG_DELTA_BIT: 7
C_SIG_BIT: 4
C_DELTA_BIT: 4

Initialize PREFETCH FILTER
FILTER_SET: 1024

Initialize PERCEPTRON
PERC_ENTRIES: 4096
PERC_FEATURES: 9

*** ChampSim Multicore Out-of-Order Simulator ***

Warmup Instructions: 200000000
Simulation Instructions: 1000000000
Number of CPUs: 4
LLC sets: 8192
LLC ways: 16
Off-chip DRAM Size: 8192 MB Channels: 2 Width: 64-bit Data Rate: 1600 MT/s

CPU 0 runs /scratch/user/djimenez/champsim-traces/speccpu2006/xz//403.gcc-16B.champsimtrace.xz
CPU 1 runs /scratch/user/djimenez/champsim-traces/speccpu2006/xz//437.leslie3d-271B.champsimtrace.xz
CPU 2 runs /scratch/user/djimenez/champsim-traces/speccpu2006/xz//481.wrf-816B.champsimtrace.xz
CPU 3 runs /scratch/user/djimenez/champsim-traces/speccpu2006/xz//459.GemsFDTD-1320B.champsimtrace.xz
Heartbeat CPU 2 instructions: 10000002 cycles: 4856280 heartbeat IPC: 2.05919 cumulative IPC: 2.05919 (Simulation time: 0 hr 1 min 48 sec) 
Heartbeat CPU 1 instructions: 10000003 cycles: 5152291 heartbeat IPC: 1.94088 cumulative IPC: 1.94088 (Simulation time: 0 hr 1 min 55 sec) 
Heartbeat CPU 3 instructions: 10000000 cycles: 6687094 heartbeat IPC: 1.49542 cumulative IPC: 1.49542 (Simulation time: 0 hr 2 min 30 sec) 
Heartbeat CPU 0 instructions: 10000001 cycles: 8174600 heartbeat IPC: 1.2233 cumulative IPC: 1.2233 (Simulation time: 0 hr 3 min 4 sec) 
Heartbeat CPU 2 instructions: 20000000 cycles: 8796570 heartbeat IPC: 2.53788 cumulative IPC: 2.27361 (Simulation time: 0 hr 3 min 18 sec) 
Heartbeat CPU 1 instructions: 20000000 cycles: 10304182 heartbeat IPC: 1.94103 cumulative IPC: 1.94096 (Simulation time: 0 hr 3 min 52 sec) 
Heartbeat CPU 2 instructions: 30000001 cycles: 12452306 heartbeat IPC: 2.73543 cumulative IPC: 2.40919 (Simulation time: 0 hr 4 min 42 sec) 
Heartbeat CPU 3 instructions: 20000000 cycles: 13425640 heartbeat IPC: 1.484 cumulative IPC: 1.48969 (Simulation time: 0 hr 5 min 4 sec) 
Heartbeat CPU 1 instructions: 30000002 cycles: 15456120 heartbeat IPC: 1.94102 cumulative IPC: 1.94098 (Simulation time: 0 hr 5 min 51 sec) 
Heartbeat CPU 2 instructions: 40000000 cycles: 16031835 heartbeat IPC: 2.79366 cumulative IPC: 2.49504 (Simulation time: 0 hr 6 min 3 sec) 
Heartbeat CPU 0 instructions: 20000000 cycles: 16320915 heartbeat IPC: 1.22755 cumulative IPC: 1.22542 (Simulation time: 0 hr 6 min 10 sec) 
Heartbeat CPU 2 instructions: 50000002 cycles: 19687989 heartbeat IPC: 2.73512 cumulative IPC: 2.53962 (Simulation time: 0 hr 7 min 24 sec) 
Heartbeat CPU 3 instructions: 30000000 cycles: 20172537 heartbeat IPC: 1.48216 cumulative IPC: 1.48717 (Simulation time: 0 hr 7 min 34 sec) 
Heartbeat CPU 1 instructions: 40000000 cycles: 20608074 heartbeat IPC: 1.94101 cumulative IPC: 1.94099 (Simulation time: 0 hr 7 min 44 sec) 
Heartbeat CPU 2 instructions: 60000000 cycles: 23640117 heartbeat IPC: 2.53028 cumulative IPC: 2.53806 (Simulation time: 0 hr 8 min 49 sec) 
Heartbeat CPU 0 instructions: 30000003 cycles: 24466860 heartbeat IPC: 1.2276 cumulative IPC: 1.22615 (Simulation time: 0 hr 9 min 7 sec) 
Heartbeat CPU 1 instructions: 50000000 cycles: 25760842 heartbeat IPC: 1.9407 cumulative IPC: 1.94093 (Simulation time: 0 hr 9 min 34 sec) 
Heartbeat CPU 3 instructions: 40000000 cycles: 26894817 heartbeat IPC: 1.48759 cumulative IPC: 1.48728 (Simulation time: 0 hr 9 min 59 sec) 
Heartbeat CPU 2 instructions: 70000001 cycles: 28071842 heartbeat IPC: 2.25646 cumulative IPC: 2.4936 (Simulation time: 0 hr 10 min 24 sec) 
Heartbeat CPU 1 instructions: 60000000 cycles: 31002870 heartbeat IPC: 1.90766 cumulative IPC: 1.9353 (Simulation time: 0 hr 11 min 26 sec) 
Heartbeat CPU 0 instructions: 40000000 cycles: 32621958 heartbeat IPC: 1.22623 cumulative IPC: 1.22617 (Simulation time: 0 hr 12 min 1 sec) 
Heartbeat CPU 2 instructions: 80000000 cycles: 33439117 heartbeat IPC: 1.86314 cumulative IPC: 2.39241 (Simulation time: 0 hr 12 min 18 sec) 
Heartbeat CPU 3 instructions: 50000003 cycles: 33537482 heartbeat IPC: 1.50542 cumulative IPC: 1.49087 (Simulation time: 0 hr 12 min 21 sec) 
Heartbeat CPU 1 instructions: 70000000 cycles: 36370821 heartbeat IPC: 1.86291 cumulative IPC: 1.92462 (Simulation time: 0 hr 13 min 20 sec) 
Heartbeat CPU 2 instructions: 90000001 cycles: 39194069 heartbeat IPC: 1.73763 cumulative IPC: 2.29627 (Simulation time: 0 hr 14 min 20 sec) 
Heartbeat CPU 3 instructions: 60000000 cycles: 40112686 heartbeat IPC: 1.52086 cumulative IPC: 1.49579 (Simulation time: 0 hr 14 min 39 sec) 
Heartbeat CPU 0 instructions: 50000000 cycles: 40788890 heartbeat IPC: 1.22445 cumulative IPC: 1.22582 (Simulation time: 0 hr 14 min 53 sec) 
Heartbeat CPU 1 instructions: 80000000 cycles: 41774997 heartbeat IPC: 1.85042 cumulative IPC: 1.91502 (Simulation time: 0 hr 15 min 14 sec) 
Heartbeat CPU 2 instructions: 100000000 cycles: 43621227 heartbeat IPC: 2.25879 cumulative IPC: 2.29246 (Simulation time: 0 hr 15 min 56 sec) 
Heartbeat CPU 3 instructions: 70000003 cycles: 46688697 heartbeat IPC: 1.52068 cumulative IPC: 1.49929 (Simulation time: 0 hr 17 min 3 sec) 
Heartbeat CPU 1 instructions: 90000003 cycles: 47663633 heartbeat IPC: 1.69819 cumulative IPC: 1.88823 (Simulation time: 0 hr 17 min 25 sec) 
Heartbeat CPU 2 instructions: 110000003 cycles: 47931499 heartbeat IPC: 2.32004 cumulative IPC: 2.29494 (Simulation time: 0 hr 17 min 31 sec) 
Heartbeat CPU 0 instructions: 60000000 cycles: 48929556 heartbeat IPC: 1.2284 cumulative IPC: 1.22625 (Simulation time: 0 hr 17 min 53 sec) 
Heartbeat CPU 2 instructions: 120000000 cycles: 52177889 heartbeat IPC: 2.35494 cumulative IPC: 2.29982 (Simulation time: 0 hr 19 min 4 sec) 
Heartbeat CPU 3 instructions: 80000000 cycles: 53347243 heartbeat IPC: 1.50183 cumulative IPC: 1.49961 (Simulation time: 0 hr 19 min 29 sec) 
Heartbeat CPU 1 instructions: 100000000 cycles: 53686376 heartbeat IPC: 1.66037 cumulative IPC: 1.86267 (Simulation time: 0 hr 19 min 36 sec) 
Heartbeat CPU 0 instructions: 70000000 cycles: 57159521 heartbeat IPC: 1.21507 cumulative IPC: 1.22464 (Simulation time: 0 hr 20 min 52 sec) 
Heartbeat CPU 2 instructions: 130000003 cycles: 57215293 heartbeat IPC: 1.98515 cumulative IPC: 2.27212 (Simulation time: 0 hr 20 min 53 sec) 
Heartbeat CPU 1 instructions: 110000003 cycles: 59709768 heartbeat IPC: 1.66019 cumulative IPC: 1.84224 (Simulation time: 0 hr 21 min 46 sec) 
Heartbeat CPU 3 instructions: 90000001 cycles: 60038873 heartbeat IPC: 1.4944 cumulative IPC: 1.49903 (Simulation time: 0 hr 21 min 52 sec) 
Heartbeat CPU 2 instructions: 140000000 cycles: 61681362 heartbeat IPC: 2.2391 cumulative IPC: 2.26973 (Simulation time: 0 hr 22 min 27 sec) 
Heartbeat CPU 0 instructions: 80000000 cycles: 65261294 heartbeat IPC: 1.2343 cumulative IPC: 1.22584 (Simulation time: 0 hr 23 min 47 sec) 
Heartbeat CPU 2 instructions: 150000003 cycles: 65326576 heartbeat IPC: 2.74332 cumulative IPC: 2.29616 (Simulation time: 0 hr 23 min 48 sec) 
Heartbeat CPU 1 instructions: 120000000 cycles: 65732297 heartbeat IPC: 1.66043 cumulative IPC: 1.82559 (Simulation time: 0 hr 23 min 57 sec) 
Heartbeat CPU 3 instructions: 100000000 cycles: 66782587 heartbeat IPC: 1.48286 cumulative IPC: 1.4974 (Simulation time: 0 hr 24 min 21 sec) 
Heartbeat CPU 2 instructions: 160000000 cycles: 69126101 heartbeat IPC: 2.63191 cumulative IPC: 2.31461 (Simulation time: 0 hr 25 min 10 sec) 
Heartbeat CPU 1 instructions: 130000001 cycles: 70701112 heartbeat IPC: 2.01255 cumulative IPC: 1.83873 (Simulation time: 0 hr 25 min 46 sec) 
Heartbeat CPU 2 instructions: 170000002 cycles: 72623233 heartbeat IPC: 2.85949 cumulative IPC: 2.34085 (Simulation time: 0 hr 26 min 29 sec) 
Heartbeat CPU 0 instructions: 90000000 cycles: 73487477 heartbeat IPC: 1.21563 cumulative IPC: 1.2247 (Simulation time: 0 hr 26 min 49 sec) 
Heartbeat CPU 3 instructions: 110000001 cycles: 73526101 heartbeat IPC: 1.48291 cumulative IPC: 1.49607 (Simulation time: 0 hr 26 min 50 sec) 
Heartbeat CPU 1 instructions: 140000000 cycles: 75637399 heartbeat IPC: 2.02581 cumulative IPC: 1.85094 (Simulation time: 0 hr 27 min 37 sec) 
Heartbeat CPU 2 instructions: 180000000 cycles: 76531428 heartbeat IPC: 2.55873 cumulative IPC: 2.35197 (Simulation time: 0 hr 27 min 57 sec) 
Heartbeat CPU 3 instructions: 120000000 cycles: 80247877 heartbeat IPC: 1.4877 cumulative IPC: 1.49537 (Simulation time: 0 hr 29 min 17 sec) 
Heartbeat CPU 1 instructions: 150000001 cycles: 80574007 heartbeat IPC: 2.02568 cumulative IPC: 1.86164 (Simulation time: 0 hr 29 min 24 sec) 
Heartbeat CPU 0 instructions: 100000000 cycles: 81610827 heartbeat IPC: 1.23102 cumulative IPC: 1.22533 (Simulation time: 0 hr 29 min 46 sec) 
Heartbeat CPU 2 instructions: 190000002 cycles: 82142740 heartbeat IPC: 1.78211 cumulative IPC: 2.31305 (Simulation time: 0 hr 29 min 58 sec) 
Heartbeat CPU 3 instructions: 130000002 cycles: 84607720 heartbeat IPC: 2.29366 cumulative IPC: 1.5365 (Simulation time: 0 hr 30 min 55 sec) 
Heartbeat CPU 1 instructions: 160000000 cycles: 85508516 heartbeat IPC: 2.02654 cumulative IPC: 1.87116 (Simulation time: 0 hr 31 min 16 sec) 
Heartbeat CPU 2 instructions: 200000000 cycles: 87727806 heartbeat IPC: 1.79049 cumulative IPC: 2.27978 (Simulation time: 0 hr 32 min 7 sec) 
Heartbeat CPU 3 instructions: 140000000 cycles: 88303443 heartbeat IPC: 2.70583 cumulative IPC: 1.58544 (Simulation time: 0 hr 32 min 20 sec) 
Heartbeat CPU 0 instructions: 110000003 cycles: 89781999 heartbeat IPC: 1.22381 cumulative IPC: 1.22519 (Simulation time: 0 hr 32 min 54 sec) 
Heartbeat CPU 1 instructions: 170000000 cycles: 90447688 heartbeat IPC: 2.02463 cumulative IPC: 1.87954 (Simulation time: 0 hr 33 min 10 sec) 
Heartbeat CPU 3 instructions: 150000001 cycles: 91995176 heartbeat IPC: 2.70876 cumulative IPC: 1.63052 (Simulation time: 0 hr 33 min 45 sec) 
Heartbeat CPU 2 instructions: 210000000 cycles: 93286625 heartbeat IPC: 1.79894 cumulative IPC: 0.107197 (Simulation time: 0 hr 34 min 15 sec) 
Heartbeat CPU 1 instructions: 180000000 cycles: 95381968 heartbeat IPC: 2.02664 cumulative IPC: 1.88715 (Simulation time: 0 hr 35 min 3 sec) 
Heartbeat CPU 3 instructions: 160000000 cycles: 95688586 heartbeat IPC: 2.70752 cumulative IPC: 1.67209 (Simulation time: 0 hr 35 min 10 sec) 
Heartbeat CPU 0 instructions: 120000000 cycles: 97936110 heartbeat IPC: 1.22637 cumulative IPC: 1.22529 (Simulation time: 0 hr 36 min 2 sec) 
Heartbeat CPU 2 instructions: 220000000 cycles: 98897312 heartbeat IPC: 1.78231 cumulative IPC: 0.20223 (Simulation time: 0 hr 36 min 24 sec) 
Heartbeat CPU 3 instructions: 170000003 cycles: 99384075 heartbeat IPC: 2.706 cumulative IPC: 1.71054 (Simulation time: 0 hr 36 min 35 sec) 
Heartbeat CPU 1 instructions: 190000003 cycles: 100319516 heartbeat IPC: 2.0253 cumulative IPC: 1.89395 (Simulation time: 0 hr 36 min 57 sec) 
Heartbeat CPU 3 instructions: 180000000 cycles: 103076426 heartbeat IPC: 2.7083 cumulative IPC: 1.74628 (Simulation time: 0 hr 38 min 0 sec) 
Heartbeat CPU 2 instructions: 230000002 cycles: 104489562 heartbeat IPC: 1.78819 cumulative IPC: 0.28711 (Simulation time: 0 hr 38 min 33 sec) 
Heartbeat CPU 1 instructions: 200000000 cycles: 105256212 heartbeat IPC: 2.02565 cumulative IPC: 1.90013 (Simulation time: 0 hr 38 min 50 sec) 
Heartbeat CPU 0 instructions: 130000001 cycles: 106076059 heartbeat IPC: 1.22851 cumulative IPC: 1.22554 (Simulation time: 0 hr 39 min 8 sec) 
Heartbeat CPU 3 instructions: 190000001 cycles: 106768688 heartbeat IPC: 2.70837 cumulative IPC: 1.77955 (Simulation time: 0 hr 39 min 23 sec) 
Heartbeat CPU 2 instructions: 240000000 cycles: 109756668 heartbeat IPC: 1.89858 cumulative IPC: 0.364443 (Simulation time: 0 hr 40 min 31 sec) 
Heartbeat CPU 1 instructions: 210000003 cycles: 110191851 heartbeat IPC: 2.02608 cumulative IPC: 0.0907508 (Simulation time: 0 hr 40 min 42 sec) 
Heartbeat CPU 3 instructions: 200000000 cycles: 110461568 heartbeat IPC: 2.70791 cumulative IPC: 1.81058 (Simulation time: 0 hr 40 min 48 sec) 
Heartbeat CPU 2 instructions: 250000001 cycles: 113832621 heartbeat IPC: 2.45341 cumulative IPC: 0.439241 (Simulation time: 0 hr 42 min 7 sec) 
Heartbeat CPU 3 instructions: 210000000 cycles: 114157889 heartbeat IPC: 2.70539 cumulative IPC: 0.087598 (Simulation time: 0 hr 42 min 15 sec) 
Heartbeat CPU 0 instructions: 140000000 cycles: 114235013 heartbeat IPC: 1.22565 cumulative IPC: 1.22554 (Simulation time: 0 hr 42 min 16 sec) 
Heartbeat CPU 1 instructions: 220000000 cycles: 115128794 heartbeat IPC: 2.02554 cumulative IPC: 0.173718 (Simulation time: 0 hr 42 min 37 sec) 
Heartbeat CPU 3 instructions: 220000000 cycles: 117848790 heartbeat IPC: 2.70937 cumulative IPC: 0.169709 (Simulation time: 0 hr 43 min 40 sec) 
Heartbeat CPU 2 instructions: 260000000 cycles: 117908270 heartbeat IPC: 2.4536 cumulative IPC: 0.50887 (Simulation time: 0 hr 43 min 41 sec) 
Heartbeat CPU 1 instructions: 230000001 cycles: 120065882 heartbeat IPC: 2.02549 cumulative IPC: 0.249863 (Simulation time: 0 hr 44 min 32 sec) 
Heartbeat CPU 3 instructions: 230000002 cycles: 121542152 heartbeat IPC: 2.70756 cumulative IPC: 0.246828 (Simulation time: 0 hr 45 min 7 sec) 
Heartbeat CPU 2 instructions: 270000003 cycles: 121987123 heartbeat IPC: 2.45167 cumulative IPC: 0.573831 (Simulation time: 0 hr 45 min 17 sec) 
Heartbeat CPU 0 instructions: 150000003 cycles: 122379843 heartbeat IPC: 1.22777 cumulative IPC: 1.22569 (Simulation time: 0 hr 45 min 26 sec) 
Heartbeat CPU 1 instructions: 240000000 cycles: 125000436 heartbeat IPC: 2.02653 cumulative IPC: 0.319999 (Simulation time: 0 hr 46 min 28 sec) 
Heartbeat CPU 3 instructions: 240000000 cycles: 125235554 heartbeat IPC: 2.70753 cumulative IPC: 0.319398 (Simulation time: 0 hr 46 min 34 sec) 
Heartbeat CPU 2 instructions: 280000000 cycles: 126067974 heartbeat IPC: 2.45047 cumulative IPC: 0.634578 (Simulation time: 0 hr 46 min 54 sec) 
Heartbeat CPU 3 instructions: 250000001 cycles: 128929950 heartbeat IPC: 2.7068 cumulative IPC: 0.387807 (Simulation time: 0 hr 48 min 1 sec) 
Heartbeat CPU 1 instructions: 250000003 cycles: 129937670 heartbeat IPC: 2.02543 cumulative IPC: 0.3848 (Simulation time: 0 hr 48 min 24 sec) 
Heartbeat CPU 0 instructions: 160000000 cycles: 130440866 heartbeat IPC: 1.24054 cumulative IPC: 1.22661 (Simulation time: 0 hr 48 min 36 sec) 
Heartbeat CPU 2 instructions: 290000000 cycles: 130990468 heartbeat IPC: 2.03149 cumulative IPC: 0.687073 (Simulation time: 0 hr 48 min 49 sec) 
Heartbeat CPU 3 instructions: 260000000 cycles: 132621172 heartbeat IPC: 2.70913 cumulative IPC: 0.452416 (Simulation time: 0 hr 49 min 27 sec) 
Heartbeat CPU 1 instructions: 260000000 cycles: 134876425 heartbeat IPC: 2.0248 cumulative IPC: 0.444852 (Simulation time: 0 hr 50 min 19 sec) 
Heartbeat CPU 3 instructions: 270000002 cycles: 136313965 heartbeat IPC: 2.70798 cumulative IPC: 0.51352 (Simulation time: 0 hr 50 min 53 sec) 
Heartbeat CPU 2 instructions: 300000000 cycles: 136314938 heartbeat IPC: 1.87812 cumulative IPC: 0.733595 (Simulation time: 0 hr 50 min 53 sec) 
Heartbeat CPU 0 instructions: 170000001 cycles: 138583951 heartbeat IPC: 1.22804 cumulative IPC: 1.22669 (Simulation time: 0 hr 51 min 45 sec) 
Heartbeat CPU 1 instructions: 270000003 cycles: 139781560 heartbeat IPC: 2.03868 cumulative IPC: 0.500781 (Simulation time: 0 hr 52 min 13 sec) 
Heartbeat CPU 3 instructions: 280000000 cycles: 140011067 heartbeat IPC: 2.70482 cumulative IPC: 0.571383 (Simulation time: 0 hr 52 min 18 sec) 
Heartbeat CPU 2 instructions: 310000002 cycles: 141639628 heartbeat IPC: 1.87804 cumulative IPC: 0.776619 (Simulation time: 0 hr 52 min 56 sec) 
Heartbeat CPU 3 instructions: 290000000 cycles: 143702019 heartbeat IPC: 2.70933 cumulative IPC: 0.626296 (Simulation time: 0 hr 53 min 44 sec) 
Heartbeat CPU 1 instructions: 280000000 cycles: 144811225 heartbeat IPC: 1.9882 cumulative IPC: 0.552443 (Simulation time: 0 hr 54 min 10 sec) 
Heartbeat CPU 0 instructions: 180000000 cycles: 146748667 heartbeat IPC: 1.22478 cumulative IPC: 1.22659 (Simulation time: 0 hr 54 min 55 sec) 
Heartbeat CPU 2 instructions: 320000000 cycles: 146822433 heartbeat IPC: 1.92946 cumulative IPC: 0.817314 (Simulation time: 0 hr 54 min 57 sec) 
Heartbeat CPU 3 instructions: 300000000 cycles: 147394623 heartbeat IPC: 2.70812 cumulative IPC: 0.678451 (Simulation time: 0 hr 55 min 10 sec) 
Heartbeat CPU 1 instructions: 290000000 cycles: 149840060 heartbeat IPC: 1.98853 cumulative IPC: 0.60064 (Simulation time: 0 hr 56 min 8 sec) 
Heartbeat CPU 2 instructions: 330000002 cycles: 150496936 heartbeat IPC: 2.72146 cumulative IPC: 0.863805 (Simulation time: 0 hr 56 min 24 sec) 
Heartbeat CPU 3 instructions: 310000000 cycles: 151089098 heartbeat IPC: 2.70674 cumulative IPC: 0.728047 (Simulation time: 0 hr 56 min 38 sec) 
Heartbeat CPU 2 instructions: 340000000 cycles: 154102489 heartbeat IPC: 2.7735 cumulative IPC: 0.908486 (Simulation time: 0 hr 57 min 50 sec) 
Heartbeat CPU 3 instructions: 320000000 cycles: 154783570 heartbeat IPC: 2.70675 cumulative IPC: 0.775276 (Simulation time: 0 hr 58 min 7 sec) 
Heartbeat CPU 0 instructions: 190000000 cycles: 154812105 heartbeat IPC: 1.24017 cumulative IPC: 1.22729 (Simulation time: 0 hr 58 min 7 sec) 
Heartbeat CPU 1 instructions: 300000000 cycles: 154869802 heartbeat IPC: 1.98817 cumulative IPC: 0.645704 (Simulation time: 0 hr 58 min 9 sec) 
Heartbeat CPU 2 instructions: 350000001 cycles: 157707826 heartbeat IPC: 2.77367 cumulative IPC: 0.951126 (Simulation time: 0 hr 59 min 17 sec) 
Heartbeat CPU 3 instructions: 330000001 cycles: 158474531 heartbeat IPC: 2.70932 cumulative IPC: 0.820321 (Simulation time: 0 hr 59 min 34 sec) 
Heartbeat CPU 1 instructions: 310000003 cycles: 159898193 heartbeat IPC: 1.98871 cumulative IPC: 0.687938 (Simulation time: 1 hr 0 min 4 sec) 
Heartbeat CPU 3 instructions: 340000000 cycles: 162168837 heartbeat IPC: 2.70687 cumulative IPC: 0.863298 (Simulation time: 1 hr 0 min 56 sec) 
Heartbeat CPU 2 instructions: 360000000 cycles: 162570511 heartbeat IPC: 2.05648 cumulative IPC: 0.984188 (Simulation time: 1 hr 1 min 5 sec) 
Heartbeat CPU 0 instructions: 200000000 cycles: 162879184 heartbeat IPC: 1.23961 cumulative IPC: 1.2279 (Simulation time: 1 hr 1 min 13 sec) 

Warmup complete CPU 0 instructions: 200000004 cycles: 162879210 (Simulation time: 1 hr 1 min 13 sec) 
Warmup complete CPU 1 instructions: 315926535 cycles: 162879209 (Simulation time: 1 hr 1 min 13 sec) 
Warmup complete CPU 2 instructions: 360866576 cycles: 162879209 (Simulation time: 1 hr 1 min 13 sec) 
Warmup complete CPU 3 instructions: 341918067 cycles: 162879209 (Simulation time: 1 hr 1 min 13 sec) 

Heartbeat CPU 1 instructions: 320000000 cycles: 166824360 heartbeat IPC: 1.4438 cumulative IPC: 1.03252 (Simulation time: 1 hr 2 min 10 sec) 
Heartbeat CPU 3 instructions: 350000003 cycles: 169420281 heartbeat IPC: 1.37904 cumulative IPC: 1.23557 (Simulation time: 1 hr 2 min 49 sec) 
Heartbeat CPU 2 instructions: 370000003 cycles: 172089094 heartbeat IPC: 1.05058 cumulative IPC: 0.991698 (Simulation time: 1 hr 3 min 32 sec) 
Heartbeat CPU 0 instructions: 210000000 cycles: 173245614 heartbeat IPC: 0.964652 cumulative IPC: 0.964654 (Simulation time: 1 hr 3 min 50 sec) 
Heartbeat CPU 1 instructions: 330000000 cycles: 176443932 heartbeat IPC: 1.03955 cumulative IPC: 1.0375 (Simulation time: 1 hr 4 min 42 sec) 
Heartbeat CPU 3 instructions: 360000000 cycles: 177324348 heartbeat IPC: 1.26517 cumulative IPC: 1.25177 (Simulation time: 1 hr 4 min 56 sec) 
Heartbeat CPU 2 instructions: 380000000 cycles: 181247303 heartbeat IPC: 1.09192 cumulative IPC: 1.04167 (Simulation time: 1 hr 5 min 58 sec) 
Heartbeat CPU 0 instructions: 220000000 cycles: 183326007 heartbeat IPC: 0.992025 cumulative IPC: 0.978148 (Simulation time: 1 hr 6 min 32 sec) 
Heartbeat CPU 1 instructions: 340000000 cycles: 185247331 heartbeat IPC: 1.13592 cumulative IPC: 1.07624 (Simulation time: 1 hr 7 min 2 sec) 
Heartbeat CPU 3 instructions: 370000001 cycles: 185433172 heartbeat IPC: 1.23322 cumulative IPC: 1.2451 (Simulation time: 1 hr 7 min 5 sec) 
Heartbeat CPU 2 instructions: 390000000 cycles: 190461426 heartbeat IPC: 1.08529 cumulative IPC: 1.05624 (Simulation time: 1 hr 8 min 26 sec) 
Heartbeat CPU 0 instructions: 230000002 cycles: 192886885 heartbeat IPC: 1.04593 cumulative IPC: 0.999744 (Simulation time: 1 hr 9 min 5 sec) 
Heartbeat CPU 3 instructions: 380000000 cycles: 193602611 heartbeat IPC: 1.22407 cumulative IPC: 1.23951 (Simulation time: 1 hr 9 min 16 sec) 
Heartbeat CPU 1 instructions: 350000003 cycles: 194083613 heartbeat IPC: 1.1317 cumulative IPC: 1.09194 (Simulation time: 1 hr 9 min 24 sec) 
Heartbeat CPU 2 instructions: 400000000 cycles: 199603682 heartbeat IPC: 1.09382 cumulative IPC: 1.0656 (Simulation time: 1 hr 10 min 54 sec) 
Heartbeat CPU 3 instructions: 390000000 cycles: 201669287 heartbeat IPC: 1.23967 cumulative IPC: 1.23954 (Simulation time: 1 hr 11 min 26 sec) 
Heartbeat CPU 0 instructions: 240000000 cycles: 202547180 heartbeat IPC: 1.03516 cumulative IPC: 1.00837 (Simulation time: 1 hr 11 min 39 sec) 
Heartbeat CPU 1 instructions: 360000000 cycles: 204084903 heartbeat IPC: 0.999871 cumulative IPC: 1.0696 (Simulation time: 1 hr 12 min 4 sec) 
Heartbeat CPU 2 instructions: 410000001 cycles: 208721881 heartbeat IPC: 1.09671 cumulative IPC: 1.07178 (Simulation time: 1 hr 13 min 17 sec) 
Heartbeat CPU 3 instructions: 400000000 cycles: 209692574 heartbeat IPC: 1.24637 cumulative IPC: 1.24071 (Simulation time: 1 hr 13 min 32 sec) 
Heartbeat CPU 0 instructions: 250000001 cycles: 212176753 heartbeat IPC: 1.03847 cumulative IPC: 1.01425 (Simulation time: 1 hr 14 min 10 sec) 
Heartbeat CPU 1 instructions: 370000002 cycles: 215759080 heartbeat IPC: 0.856592 cumulative IPC: 1.02257 (Simulation time: 1 hr 15 min 6 sec) 
Heartbeat CPU 3 instructions: 410000002 cycles: 217758546 heartbeat IPC: 1.23978 cumulative IPC: 1.24058 (Simulation time: 1 hr 15 min 37 sec) 
Heartbeat CPU 2 instructions: 420000000 cycles: 217868007 heartbeat IPC: 1.09336 cumulative IPC: 1.07537 (Simulation time: 1 hr 15 min 39 sec) 
Heartbeat CPU 0 instructions: 260000000 cycles: 221839501 heartbeat IPC: 1.0349 cumulative IPC: 1.01763 (Simulation time: 1 hr 16 min 41 sec) 
Heartbeat CPU 3 instructions: 420000000 cycles: 225951096 heartbeat IPC: 1.22062 cumulative IPC: 1.23798 (Simulation time: 1 hr 17 min 45 sec) 
Heartbeat CPU 2 instructions: 430000001 cycles: 226985135 heartbeat IPC: 1.09684 cumulative IPC: 1.07842 (Simulation time: 1 hr 18 min 1 sec) 
Heartbeat CPU 1 instructions: 380000000 cycles: 227439865 heartbeat IPC: 0.856107 cumulative IPC: 0.992454 (Simulation time: 1 hr 18 min 8 sec) 
Heartbeat CPU 0 instructions: 270000002 cycles: 231395129 heartbeat IPC: 1.0465 cumulative IPC: 1.02166 (Simulation time: 1 hr 19 min 9 sec) 
Heartbeat CPU 3 instructions: 430000002 cycles: 234151764 heartbeat IPC: 1.21941 cumulative IPC: 1.23585 (Simulation time: 1 hr 19 min 52 sec) 
Heartbeat CPU 2 instructions: 440000000 cycles: 236065736 heartbeat IPC: 1.10125 cumulative IPC: 1.08126 (Simulation time: 1 hr 20 min 22 sec) 
Heartbeat CPU 1 instructions: 390000002 cycles: 239033069 heartbeat IPC: 0.862574 cumulative IPC: 0.972682 (Simulation time: 1 hr 21 min 9 sec) 
Heartbeat CPU 0 instructions: 280000000 cycles: 241155827 heartbeat IPC: 1.02452 cumulative IPC: 1.02202 (Simulation time: 1 hr 21 min 42 sec) 
Heartbeat CPU 3 instructions: 440000000 cycles: 242205354 heartbeat IPC: 1.24168 cumulative IPC: 1.23644 (Simulation time: 1 hr 21 min 59 sec) 
Heartbeat CPU 2 instructions: 450000003 cycles: 245218831 heartbeat IPC: 1.09253 cumulative IPC: 1.08251 (Simulation time: 1 hr 22 min 47 sec) 
Heartbeat CPU 1 instructions: 400000000 cycles: 249086460 heartbeat IPC: 0.994689 cumulative IPC: 0.975248 (Simulation time: 1 hr 23 min 50 sec) 
Heartbeat CPU 3 instructions: 450000002 cycles: 250301021 heartbeat IPC: 1.23523 cumulative IPC: 1.23633 (Simulation time: 1 hr 24 min 8 sec) 
Heartbeat CPU 0 instructions: 290000002 cycles: 250774527 heartbeat IPC: 1.03964 cumulative IPC: 1.02395 (Simulation time: 1 hr 24 min 14 sec) 
Heartbeat CPU 2 instructions: 460000000 cycles: 254740193 heartbeat IPC: 1.05027 cumulative IPC: 1.07917 (Simulation time: 1 hr 25 min 17 sec) 
Heartbeat CPU 1 instructions: 410000003 cycles: 258548963 heartbeat IPC: 1.0568 cumulative IPC: 0.983315 (Simulation time: 1 hr 26 min 20 sec) 
Heartbeat CPU 3 instructions: 460000000 cycles: 258898431 heartbeat IPC: 1.16314 cumulative IPC: 1.22977 (Simulation time: 1 hr 26 min 25 sec) 
Heartbeat CPU 0 instructions: 300000000 cycles: 260295096 heartbeat IPC: 1.05036 cumulative IPC: 1.02653 (Simulation time: 1 hr 26 min 49 sec) 
Heartbeat CPU 2 instructions: 470000001 cycles: 261966991 heartbeat IPC: 1.38374 cumulative IPC: 1.10138 (Simulation time: 1 hr 27 min 16 sec) 
Heartbeat CPU 3 instructions: 470000001 cycles: 267324453 heartbeat IPC: 1.1868 cumulative IPC: 1.22631 (Simulation time: 1 hr 28 min 41 sec) 
Heartbeat CPU 1 instructions: 420000000 cycles: 267901785 heartbeat IPC: 1.0692 cumulative IPC: 0.990963 (Simulation time: 1 hr 28 min 50 sec) 
Heartbeat CPU 0 instructions: 310000000 cycles: 269885505 heartbeat IPC: 1.04271 cumulative IPC: 1.02798 (Simulation time: 1 hr 29 min 19 sec) 
Heartbeat CPU 2 instructions: 480000000 cycles: 271351567 heartbeat IPC: 1.06558 cumulative IPC: 1.09828 (Simulation time: 1 hr 29 min 43 sec) 
Heartbeat CPU 3 instructions: 480000000 cycles: 275454733 heartbeat IPC: 1.22997 cumulative IPC: 1.22657 (Simulation time: 1 hr 30 min 51 sec) 
Heartbeat CPU 1 instructions: 430000003 cycles: 277144442 heartbeat IPC: 1.08194 cumulative IPC: 0.998322 (Simulation time: 1 hr 31 min 18 sec) 
Heartbeat CPU 0 instructions: 320000000 cycles: 279743213 heartbeat IPC: 1.01443 cumulative IPC: 1.02683 (Simulation time: 1 hr 32 min 1 sec) 
Heartbeat CPU 2 instructions: 490000000 cycles: 280282444 heartbeat IPC: 1.11971 cumulative IPC: 1.09991 (Simulation time: 1 hr 32 min 9 sec) 
Heartbeat CPU 3 instructions: 490000000 cycles: 283353313 heartbeat IPC: 1.26605 cumulative IPC: 1.22916 (Simulation time: 1 hr 33 min 0 sec) 
Heartbeat CPU 1 instructions: 440000000 cycles: 286268857 heartbeat IPC: 1.09596 cumulative IPC: 1.00554 (Simulation time: 1 hr 33 min 47 sec) 
Heartbeat CPU 2 instructions: 500000000 cycles: 289235256 heartbeat IPC: 1.11697 cumulative IPC: 1.10112 (Simulation time: 1 hr 34 min 36 sec) 
Heartbeat CPU 0 instructions: 330000001 cycles: 289617805 heartbeat IPC: 1.0127 cumulative IPC: 1.02573 (Simulation time: 1 hr 34 min 42 sec) 
Heartbeat CPU 3 instructions: 500000000 cycles: 291305589 heartbeat IPC: 1.2575 cumulative IPC: 1.23091 (Simulation time: 1 hr 35 min 10 sec) 
Heartbeat CPU 1 instructions: 450000000 cycles: 295424281 heartbeat IPC: 1.09225 cumulative IPC: 1.01153 (Simulation time: 1 hr 36 min 17 sec) 
Heartbeat CPU 2 instructions: 510000000 cycles: 298159722 heartbeat IPC: 1.12052 cumulative IPC: 1.1024 (Simulation time: 1 hr 37 min 2 sec) 
Heartbeat CPU 3 instructions: 510000002 cycles: 299164440 heartbeat IPC: 1.27245 cumulative IPC: 1.23331 (Simulation time: 1 hr 37 min 19 sec) 
Heartbeat CPU 0 instructions: 340000000 cycles: 299488460 heartbeat IPC: 1.0131 cumulative IPC: 1.02482 (Simulation time: 1 hr 37 min 24 sec) 
Heartbeat CPU 1 instructions: 460000000 cycles: 304583366 heartbeat IPC: 1.09181 cumulative IPC: 1.01672 (Simulation time: 1 hr 38 min 49 sec) 
Heartbeat CPU 3 instructions: 520000000 cycles: 307040779 heartbeat IPC: 1.26963 cumulative IPC: 1.23529 (Simulation time: 1 hr 39 min 29 sec) 
Heartbeat CPU 2 instructions: 520000000 cycles: 307091785 heartbeat IPC: 1.11956 cumulative IPC: 1.10346 (Simulation time: 1 hr 39 min 30 sec) 
Heartbeat CPU 0 instructions: 350000003 cycles: 309107086 heartbeat IPC: 1.03965 cumulative IPC: 1.0258 (Simulation time: 1 hr 40 min 3 sec) 
Heartbeat CPU 1 instructions: 470000003 cycles: 313728940 heartbeat IPC: 1.09343 cumulative IPC: 1.02137 (Simulation time: 1 hr 41 min 20 sec) 
Heartbeat CPU 3 instructions: 530000003 cycles: 314849689 heartbeat IPC: 1.28059 cumulative IPC: 1.23762 (Simulation time: 1 hr 41 min 39 sec) 
Heartbeat CPU 2 instructions: 530000001 cycles: 315997153 heartbeat IPC: 1.12292 cumulative IPC: 1.1046 (Simulation time: 1 hr 41 min 58 sec) 
Heartbeat CPU 0 instructions: 360000000 cycles: 318721796 heartbeat IPC: 1.04007 cumulative IPC: 1.02668 (Simulation time: 1 hr 42 min 39 sec) 
Heartbeat CPU 1 instructions: 480000000 cycles: 322714375 heartbeat IPC: 1.11291 cumulative IPC: 1.02652 (Simulation time: 1 hr 43 min 39 sec) 
Heartbeat CPU 2 instructions: 540000000 cycles: 324579586 heartbeat IPC: 1.16517 cumulative IPC: 1.10781 (Simulation time: 1 hr 44 min 7 sec) 
Heartbeat CPU 0 instructions: 370000001 cycles: 328302293 heartbeat IPC: 1.04379 cumulative IPC: 1.02767 (Simulation time: 1 hr 45 min 4 sec) 
Heartbeat CPU 3 instructions: 540000000 cycles: 329932583 heartbeat IPC: 0.663003 cumulative IPC: 1.18574 (Simulation time: 1 hr 45 min 29 sec) 
Heartbeat CPU 1 instructions: 490000001 cycles: 331643564 heartbeat IPC: 1.11992 cumulative IPC: 1.03146 (Simulation time: 1 hr 45 min 55 sec) 
Heartbeat CPU 2 instructions: 550000000 cycles: 332369986 heartbeat IPC: 1.28363 cumulative IPC: 1.11589 (Simulation time: 1 hr 46 min 6 sec) 
Heartbeat CPU 0 instructions: 380000000 cycles: 337988769 heartbeat IPC: 1.03237 cumulative IPC: 1.02793 (Simulation time: 1 hr 47 min 31 sec) 
Heartbeat CPU 2 instructions: 560000000 cycles: 340191292 heartbeat IPC: 1.27856 cumulative IPC: 1.12307 (Simulation time: 1 hr 48 min 4 sec) 
Heartbeat CPU 1 instructions: 500000000 cycles: 340595770 heartbeat IPC: 1.11704 cumulative IPC: 1.03577 (Simulation time: 1 hr 48 min 10 sec) 
Heartbeat CPU 3 instructions: 550000000 cycles: 346912329 heartbeat IPC: 0.588937 cumulative IPC: 1.13068 (Simulation time: 1 hr 49 min 46 sec) 
Heartbeat CPU 0 instructions: 390000003 cycles: 347535234 heartbeat IPC: 1.04751 cumulative IPC: 1.02894 (Simulation time: 1 hr 49 min 56 sec) 
Heartbeat CPU 2 instructions: 570000003 cycles: 348018584 heartbeat IPC: 1.27758 cumulative IPC: 1.1296 (Simulation time: 1 hr 50 min 3 sec) 
Heartbeat CPU 1 instructions: 510000000 cycles: 349522931 heartbeat IPC: 1.12018 cumulative IPC: 1.03981 (Simulation time: 1 hr 50 min 26 sec) 
Heartbeat CPU 2 instructions: 580000000 cycles: 355833237 heartbeat IPC: 1.27965 cumulative IPC: 1.13568 (Simulation time: 1 hr 52 min 1 sec) 
Heartbeat CPU 0 instructions: 400000000 cycles: 357235404 heartbeat IPC: 1.03091 cumulative IPC: 1.02904 (Simulation time: 1 hr 52 min 22 sec) 
Heartbeat CPU 1 instructions: 520000000 cycles: 358484674 heartbeat IPC: 1.11585 cumulative IPC: 1.04329 (Simulation time: 1 hr 52 min 39 sec) 
Heartbeat CPU 3 instructions: 560000000 cycles: 364184315 heartbeat IPC: 0.578972 cumulative IPC: 1.08334 (Simulation time: 1 hr 54 min 0 sec) 
Heartbeat CPU 2 instructions: 590000003 cycles: 366815138 heartbeat IPC: 0.910589 cumulative IPC: 1.12356 (Simulation time: 1 hr 54 min 38 sec) 
Heartbeat CPU 0 instructions: 410000000 cycles: 366851893 heartbeat IPC: 1.03988 cumulative IPC: 1.02955 (Simulation time: 1 hr 54 min 38 sec) 
Heartbeat CPU 1 instructions: 530000002 cycles: 367423694 heartbeat IPC: 1.11869 cumulative IPC: 1.04659 (Simulation time: 1 hr 54 min 47 sec) 
Heartbeat CPU 1 instructions: 540000000 cycles: 376453466 heartbeat IPC: 1.10745 cumulative IPC: 1.04916 (Simulation time: 1 hr 56 min 38 sec) 
Heartbeat CPU 2 instructions: 600000000 cycles: 378026676 heartbeat IPC: 0.891938 cumulative IPC: 1.11149 (Simulation time: 1 hr 56 min 56 sec) 
Heartbeat CPU 3 instructions: 570000002 cycles: 381662180 heartbeat IPC: 0.572152 cumulative IPC: 1.0425 (Simulation time: 1 hr 57 min 39 sec) 
Heartbeat CPU 1 instructions: 550000000 cycles: 386261069 heartbeat IPC: 1.01962 cumulative IPC: 1.04786 (Simulation time: 1 hr 58 min 35 sec) 
Heartbeat CPU 2 instructions: 610000001 cycles: 389288471 heartbeat IPC: 0.887958 cumulative IPC: 1.10037 (Simulation time: 1 hr 59 min 9 sec) 
Heartbeat CPU 1 instructions: 560000000 cycles: 396121738 heartbeat IPC: 1.01413 cumulative IPC: 1.04644 (Simulation time: 2 hr 0 min 23 sec) 
Heartbeat CPU 3 instructions: 580000000 cycles: 399398549 heartbeat IPC: 0.563813 cumulative IPC: 1.00661 (Simulation time: 2 hr 0 min 59 sec) 
Heartbeat CPU 0 instructions: 420000000 cycles: 399447990 heartbeat IPC: 0.306785 cumulative IPC: 0.929962 (Simulation time: 2 hr 0 min 59 sec) 
Heartbeat CPU 2 instructions: 620000000 cycles: 400015821 heartbeat IPC: 0.932197 cumulative IPC: 1.09276 (Simulation time: 2 hr 1 min 6 sec) 
Heartbeat CPU 1 instructions: 570000003 cycles: 405952560 heartbeat IPC: 1.01721 cumulative IPC: 1.04525 (Simulation time: 2 hr 2 min 17 sec) 
Heartbeat CPU 2 instructions: 630000001 cycles: 407297070 heartbeat IPC: 1.37339 cumulative IPC: 1.10112 (Simulation time: 2 hr 2 min 33 sec) 
Heartbeat CPU 2 instructions: 640000000 cycles: 414303515 heartbeat IPC: 1.42726 cumulative IPC: 1.11021 (Simulation time: 2 hr 3 min 59 sec) 
Heartbeat CPU 1 instructions: 580000000 cycles: 415783393 heartbeat IPC: 1.01721 cumulative IPC: 1.04416 (Simulation time: 2 hr 4 min 19 sec) 
Heartbeat CPU 3 instructions: 590000002 cycles: 416877606 heartbeat IPC: 0.572113 cumulative IPC: 0.976707 (Simulation time: 2 hr 4 min 34 sec) 
Heartbeat CPU 2 instructions: 650000002 cycles: 421404114 heartbeat IPC: 1.40833 cumulative IPC: 1.1184 (Simulation time: 2 hr 5 min 34 sec) 
Heartbeat CPU 1 instructions: 590000000 cycles: 425652611 heartbeat IPC: 1.01325 cumulative IPC: 1.043 (Simulation time: 2 hr 6 min 23 sec) 
Heartbeat CPU 0 instructions: 430000000 cycles: 428849150 heartbeat IPC: 0.340123 cumulative IPC: 0.864759 (Simulation time: 2 hr 7 min 0 sec) 
Heartbeat CPU 2 instructions: 660000000 cycles: 431914754 heartbeat IPC: 0.951417 cumulative IPC: 1.11187 (Simulation time: 2 hr 7 min 34 sec) 
Heartbeat CPU 1 instructions: 600000000 cycles: 434836851 heartbeat IPC: 1.08882 cumulative IPC: 1.04455 (Simulation time: 2 hr 8 min 5 sec) 
Heartbeat CPU 3 instructions: 600000000 cycles: 434935016 heartbeat IPC: 0.553789 cumulative IPC: 0.948636 (Simulation time: 2 hr 8 min 7 sec) 
Heartbeat CPU 2 instructions: 670000000 cycles: 441128605 heartbeat IPC: 1.08532 cumulative IPC: 1.11099 (Simulation time: 2 hr 9 min 19 sec) 
Heartbeat CPU 1 instructions: 610000001 cycles: 443589979 heartbeat IPC: 1.14245 cumulative IPC: 1.0476 (Simulation time: 2 hr 9 min 46 sec) 
Heartbeat CPU 2 instructions: 680000000 cycles: 450066136 heartbeat IPC: 1.11888 cumulative IPC: 1.11124 (Simulation time: 2 hr 10 min 59 sec) 
Heartbeat CPU 3 instructions: 610000002 cycles: 452771406 heartbeat IPC: 0.560652 cumulative IPC: 0.924764 (Simulation time: 2 hr 11 min 30 sec) 
Heartbeat CPU 1 instructions: 620000000 cycles: 453733265 heartbeat IPC: 0.985874 cumulative IPC: 1.04545 (Simulation time: 2 hr 11 min 41 sec) 
Heartbeat CPU 2 instructions: 690000001 cycles: 458957263 heartbeat IPC: 1.12472 cumulative IPC: 1.11164 (Simulation time: 2 hr 12 min 41 sec) 
Heartbeat CPU 1 instructions: 630000000 cycles: 464898445 heartbeat IPC: 0.895642 cumulative IPC: 1.03991 (Simulation time: 2 hr 13 min 49 sec) 
Heartbeat CPU 2 instructions: 700000000 cycles: 467903399 heartbeat IPC: 1.1178 cumulative IPC: 1.11182 (Simulation time: 2 hr 14 min 27 sec) 
Heartbeat CPU 3 instructions: 620000000 cycles: 470051145 heartbeat IPC: 0.578712 cumulative IPC: 0.905297 (Simulation time: 2 hr 14 min 53 sec) 
Heartbeat CPU 0 instructions: 440000000 cycles: 470369501 heartbeat IPC: 0.240846 cumulative IPC: 0.780512 (Simulation time: 2 hr 14 min 57 sec) 
Heartbeat CPU 1 instructions: 640000000 cycles: 476667995 heartbeat IPC: 0.84965 cumulative IPC: 1.03278 (Simulation time: 2 hr 16 min 15 sec) 
Heartbeat CPU 2 instructions: 710000000 cycles: 476948642 heartbeat IPC: 1.10555 cumulative IPC: 1.11164 (Simulation time: 2 hr 16 min 19 sec) 
Heartbeat CPU 2 instructions: 720000000 cycles: 485931722 heartbeat IPC: 1.1132 cumulative IPC: 1.11169 (Simulation time: 2 hr 18 min 5 sec) 
Heartbeat CPU 1 instructions: 650000001 cycles: 487302770 heartbeat IPC: 0.940311 cumulative IPC: 1.02974 (Simulation time: 2 hr 18 min 23 sec) 
Heartbeat CPU 3 instructions: 630000000 cycles: 487829156 heartbeat IPC: 0.562493 cumulative IPC: 0.886542 (Simulation time: 2 hr 18 min 30 sec) 
Heartbeat CPU 2 instructions: 730000000 cycles: 494949751 heartbeat IPC: 1.10889 cumulative IPC: 1.11161 (Simulation time: 2 hr 19 min 52 sec) 
Heartbeat CPU 1 instructions: 660000000 cycles: 496335980 heartbeat IPC: 1.10703 cumulative IPC: 1.03184 (Simulation time: 2 hr 20 min 8 sec) 
Heartbeat CPU 2 instructions: 740000000 cycles: 503775567 heartbeat IPC: 1.13304 cumulative IPC: 1.11217 (Simulation time: 2 hr 21 min 37 sec) 
Heartbeat CPU 3 instructions: 640000000 cycles: 504774430 heartbeat IPC: 0.590135 cumulative IPC: 0.871852 (Simulation time: 2 hr 21 min 49 sec) 
Heartbeat CPU 1 instructions: 670000000 cycles: 505303309 heartbeat IPC: 1.11516 cumulative IPC: 1.03402 (Simulation time: 2 hr 21 min 55 sec) 
Heartbeat CPU 0 instructions: 450000000 cycles: 506742593 heartbeat IPC: 0.274929 cumulative IPC: 0.727033 (Simulation time: 2 hr 22 min 12 sec) 
Heartbeat CPU 2 instructions: 750000003 cycles: 512559484 heartbeat IPC: 1.13844 cumulative IPC: 1.11283 (Simulation time: 2 hr 23 min 23 sec) 
Heartbeat CPU 1 instructions: 680000000 cycles: 514291428 heartbeat IPC: 1.11258 cumulative IPC: 1.03603 (Simulation time: 2 hr 23 min 41 sec) 
Heartbeat CPU 2 instructions: 760000000 cycles: 520977106 heartbeat IPC: 1.18798 cumulative IPC: 1.11459 (Simulation time: 2 hr 25 min 10 sec) 
Heartbeat CPU 3 instructions: 650000000 cycles: 521893689 heartbeat IPC: 0.584137 cumulative IPC: 0.858132 (Simulation time: 2 hr 25 min 23 sec) 
Heartbeat CPU 1 instructions: 690000001 cycles: 523391394 heartbeat IPC: 1.09891 cumulative IPC: 1.03762 (Simulation time: 2 hr 25 min 43 sec) 
Heartbeat CPU 2 instructions: 770000001 cycles: 528514612 heartbeat IPC: 1.3267 cumulative IPC: 1.11897 (Simulation time: 2 hr 26 min 50 sec) 
Heartbeat CPU 1 instructions: 700000000 cycles: 532439895 heartbeat IPC: 1.10516 cumulative IPC: 1.03927 (Simulation time: 2 hr 27 min 34 sec) 
Heartbeat CPU 0 instructions: 460000000 cycles: 535062786 heartbeat IPC: 0.353105 cumulative IPC: 0.69858 (Simulation time: 2 hr 28 min 6 sec) 
Heartbeat CPU 2 instructions: 780000000 cycles: 537713903 heartbeat IPC: 1.08704 cumulative IPC: 1.11818 (Simulation time: 2 hr 28 min 41 sec) 
Heartbeat CPU 3 instructions: 660000000 cycles: 539351388 heartbeat IPC: 0.572813 cumulative IPC: 0.844902 (Simulation time: 2 hr 29 min 0 sec) 
Heartbeat CPU 1 instructions: 710000002 cycles: 541557149 heartbeat IPC: 1.09682 cumulative IPC: 1.04066 (Simulation time: 2 hr 29 min 25 sec) 
Heartbeat CPU 2 instructions: 790000002 cycles: 546567133 heartbeat IPC: 1.12953 cumulative IPC: 1.11844 (Simulation time: 2 hr 30 min 24 sec) 
Heartbeat CPU 1 instructions: 720000000 cycles: 550550447 heartbeat IPC: 1.11194 cumulative IPC: 1.04231 (Simulation time: 2 hr 31 min 12 sec) 
Heartbeat CPU 2 instructions: 800000000 cycles: 555312760 heartbeat IPC: 1.14343 cumulative IPC: 1.119 (Simulation time: 2 hr 32 min 10 sec) 
Heartbeat CPU 3 instructions: 670000001 cycles: 555930430 heartbeat IPC: 0.603171 cumulative IPC: 0.834705 (Simulation time: 2 hr 32 min 17 sec) 
Heartbeat CPU 1 instructions: 730000002 cycles: 559519073 heartbeat IPC: 1.115 cumulative IPC: 1.04395 (Simulation time: 2 hr 33 min 1 sec) 
Heartbeat CPU 2 instructions: 810000001 cycles: 564056927 heartbeat IPC: 1.14362 cumulative IPC: 1.11954 (Simulation time: 2 hr 33 min 57 sec) 
Heartbeat CPU 1 instructions: 740000000 cycles: 568546686 heartbeat IPC: 1.10771 cumulative IPC: 1.04537 (Simulation time: 2 hr 34 min 51 sec) 
Heartbeat CPU 0 instructions: 470000002 cycles: 571546173 heartbeat IPC: 0.274097 cumulative IPC: 0.660685 (Simulation time: 2 hr 35 min 24 sec) 
Heartbeat CPU 2 instructions: 820000000 cycles: 572944824 heartbeat IPC: 1.12513 cumulative IPC: 1.11966 (Simulation time: 2 hr 35 min 40 sec) 
Heartbeat CPU 1 instructions: 750000001 cycles: 577562449 heartbeat IPC: 1.10917 cumulative IPC: 1.04676 (Simulation time: 2 hr 36 min 32 sec) 
Heartbeat CPU 2 instructions: 830000003 cycles: 581804530 heartbeat IPC: 1.12871 cumulative IPC: 1.11985 (Simulation time: 2 hr 37 min 15 sec) 
Heartbeat CPU 3 instructions: 680000000 cycles: 585347617 heartbeat IPC: 0.339937 cumulative IPC: 0.800254 (Simulation time: 2 hr 37 min 58 sec) 
Heartbeat CPU 1 instructions: 760000000 cycles: 586650071 heartbeat IPC: 1.1004 cumulative IPC: 1.04791 (Simulation time: 2 hr 38 min 14 sec) 
Heartbeat CPU 2 instructions: 840000000 cycles: 590081953 heartbeat IPC: 1.20811 cumulative IPC: 1.12156 (Simulation time: 2 hr 38 min 54 sec) 
Heartbeat CPU 1 instructions: 770000000 cycles: 595636197 heartbeat IPC: 1.11283 cumulative IPC: 1.04926 (Simulation time: 2 hr 40 min 1 sec) 
Heartbeat CPU 2 instructions: 850000002 cycles: 597879098 heartbeat IPC: 1.28252 cumulative IPC: 1.12444 (Simulation time: 2 hr 40 min 28 sec) 
Heartbeat CPU 3 instructions: 690000000 cycles: 602000663 heartbeat IPC: 0.600491 cumulative IPC: 0.792678 (Simulation time: 2 hr 41 min 18 sec) 
Heartbeat CPU 1 instructions: 780000000 cycles: 604586389 heartbeat IPC: 1.11729 cumulative IPC: 1.05064 (Simulation time: 2 hr 41 min 49 sec) 
Heartbeat CPU 2 instructions: 860000000 cycles: 605636935 heartbeat IPC: 1.28902 cumulative IPC: 1.12733 (Simulation time: 2 hr 42 min 2 sec) 
Heartbeat CPU 0 instructions: 480000000 cycles: 611634512 heartbeat IPC: 0.249449 cumulative IPC: 0.623948 (Simulation time: 2 hr 43 min 16 sec) 
Heartbeat CPU 2 instructions: 870000002 cycles: 613391748 heartbeat IPC: 1.28952 cumulative IPC: 1.13012 (Simulation time: 2 hr 43 min 40 sec) 
Heartbeat CPU 1 instructions: 790000003 cycles: 613551761 heartbeat IPC: 1.1154 cumulative IPC: 1.05192 (Simulation time: 2 hr 43 min 42 sec) 
Heartbeat CPU 3 instructions: 700000000 cycles: 618738550 heartbeat IPC: 0.597447 cumulative IPC: 0.78551 (Simulation time: 2 hr 44 min 51 sec) 
Heartbeat CPU 1 instructions: 800000000 cycles: 622792459 heartbeat IPC: 1.08217 cumulative IPC: 1.05253 (Simulation time: 2 hr 45 min 39 sec) 
Heartbeat CPU 2 instructions: 880000000 cycles: 622915461 heartbeat IPC: 1.05001 cumulative IPC: 1.12846 (Simulation time: 2 hr 45 min 40 sec) 
Heartbeat CPU 1 instructions: 810000003 cycles: 634035904 heartbeat IPC: 0.889407 cumulative IPC: 1.04864 (Simulation time: 2 hr 47 min 45 sec) 
Heartbeat CPU 2 instructions: 890000000 cycles: 634223561 heartbeat IPC: 0.884322 cumulative IPC: 1.1226 (Simulation time: 2 hr 47 min 47 sec) 
Heartbeat CPU 3 instructions: 710000000 cycles: 636227989 heartbeat IPC: 0.571774 cumulative IPC: 0.777613 (Simulation time: 2 hr 48 min 8 sec) 
Heartbeat CPU 0 instructions: 490000003 cycles: 637861428 heartbeat IPC: 0.381288 cumulative IPC: 0.610549 (Simulation time: 2 hr 48 min 24 sec) 
Heartbeat CPU 1 instructions: 820000000 cycles: 645268421 heartbeat IPC: 0.890272 cumulative IPC: 1.04495 (Simulation time: 2 hr 49 min 40 sec) 
Heartbeat CPU 2 instructions: 900000000 cycles: 645564486 heartbeat IPC: 0.881762 cumulative IPC: 1.11695 (Simulation time: 2 hr 49 min 43 sec) 
Heartbeat CPU 3 instructions: 720000000 cycles: 653708725 heartbeat IPC: 0.572058 cumulative IPC: 0.770292 (Simulation time: 2 hr 51 min 9 sec) 
Heartbeat CPU 1 instructions: 830000002 cycles: 656199734 heartbeat IPC: 0.914803 cumulative IPC: 1.04207 (Simulation time: 2 hr 51 min 36 sec) 
Heartbeat CPU 2 instructions: 910000000 cycles: 656790108 heartbeat IPC: 0.890819 cumulative IPC: 1.11181 (Simulation time: 2 hr 51 min 42 sec) 
Heartbeat CPU 2 instructions: 920000000 cycles: 666104433 heartbeat IPC: 1.07362 cumulative IPC: 1.1111 (Simulation time: 2 hr 53 min 28 sec) 
Heartbeat CPU 1 instructions: 840000000 cycles: 667513038 heartbeat IPC: 0.883915 cumulative IPC: 1.03852 (Simulation time: 2 hr 53 min 46 sec) 
Heartbeat CPU 3 instructions: 730000003 cycles: 671660435 heartbeat IPC: 0.55705 cumulative IPC: 0.762768 (Simulation time: 2 hr 54 min 39 sec) 
Heartbeat CPU 2 instructions: 930000001 cycles: 673292965 heartbeat IPC: 1.3911 cumulative IPC: 1.11504 (Simulation time: 2 hr 55 min 0 sec) 
Heartbeat CPU 0 instructions: 500000000 cycles: 674846160 heartbeat IPC: 0.270382 cumulative IPC: 0.585975 (Simulation time: 2 hr 55 min 19 sec) 
Heartbeat CPU 2 instructions: 940000000 cycles: 680433231 heartbeat IPC: 1.40051 cumulative IPC: 1.11898 (Simulation time: 2 hr 56 min 27 sec) 
Heartbeat CPU 1 instructions: 850000002 cycles: 680879963 heartbeat IPC: 0.748115 cumulative IPC: 1.03103 (Simulation time: 2 hr 56 min 32 sec) 
Heartbeat CPU 3 instructions: 740000000 cycles: 689706369 heartbeat IPC: 0.554141 cumulative IPC: 0.755621 (Simulation time: 2 hr 58 min 15 sec) 
Heartbeat CPU 1 instructions: 860000000 cycles: 689876911 heartbeat IPC: 1.11149 cumulative IPC: 1.0324 (Simulation time: 2 hr 58 min 17 sec) 
Heartbeat CPU 2 instructions: 950000000 cycles: 690379519 heartbeat IPC: 1.0054 cumulative IPC: 1.11684 (Simulation time: 2 hr 58 min 22 sec) 
Heartbeat CPU 1 instructions: 870000001 cycles: 699084256 heartbeat IPC: 1.08609 cumulative IPC: 1.03332 (Simulation time: 2 hr 59 min 58 sec) 
Heartbeat CPU 2 instructions: 960000000 cycles: 699530292 heartbeat IPC: 1.0928 cumulative IPC: 1.11643 (Simulation time: 3 hr 0 min 3 sec) 
Heartbeat CPU 3 instructions: 750000003 cycles: 707211822 heartbeat IPC: 0.571251 cumulative IPC: 0.749692 (Simulation time: 3 hr 1 min 35 sec) 
Heartbeat CPU 1 instructions: 880000000 cycles: 708290601 heartbeat IPC: 1.08621 cumulative IPC: 1.03422 (Simulation time: 3 hr 1 min 48 sec) 
Heartbeat CPU 2 instructions: 970000000 cycles: 708462086 heartbeat IPC: 1.1196 cumulative IPC: 1.11648 (Simulation time: 3 hr 1 min 50 sec) 
Heartbeat CPU 2 instructions: 980000000 cycles: 717339624 heartbeat IPC: 1.12644 cumulative IPC: 1.11664 (Simulation time: 3 hr 3 min 43 sec) 
Heartbeat CPU 1 instructions: 890000000 cycles: 717499359 heartbeat IPC: 1.08592 cumulative IPC: 1.03508 (Simulation time: 3 hr 3 min 45 sec) 
Heartbeat CPU 0 instructions: 510000001 cycles: 717858394 heartbeat IPC: 0.232492 cumulative IPC: 0.55858 (Simulation time: 3 hr 3 min 50 sec) 
Heartbeat CPU 3 instructions: 760000000 cycles: 724676710 heartbeat IPC: 0.572577 cumulative IPC: 0.744186 (Simulation time: 3 hr 5 min 17 sec) 
Heartbeat CPU 2 instructions: 990000001 cycles: 726349600 heartbeat IPC: 1.10988 cumulative IPC: 1.11653 (Simulation time: 3 hr 5 min 39 sec) 
Heartbeat CPU 1 instructions: 900000000 cycles: 726731468 heartbeat IPC: 1.08318 cumulative IPC: 1.03586 (Simulation time: 3 hr 5 min 44 sec) 
Heartbeat CPU 2 instructions: 1000000000 cycles: 735344821 heartbeat IPC: 1.1117 cumulative IPC: 1.11646 (Simulation time: 3 hr 7 min 28 sec) 
Heartbeat CPU 1 instructions: 910000003 cycles: 735957721 heartbeat IPC: 1.08386 cumulative IPC: 1.03664 (Simulation time: 3 hr 7 min 36 sec) 
Heartbeat CPU 3 instructions: 770000000 cycles: 742373475 heartbeat IPC: 0.565075 cumulative IPC: 0.738716 (Simulation time: 3 hr 8 min 51 sec) 
Heartbeat CPU 2 instructions: 1010000003 cycles: 744421458 heartbeat IPC: 1.10173 cumulative IPC: 1.11623 (Simulation time: 3 hr 9 min 14 sec) 
Heartbeat CPU 1 instructions: 920000000 cycles: 745190097 heartbeat IPC: 1.08314 cumulative IPC: 1.03737 (Simulation time: 3 hr 9 min 24 sec) 
Heartbeat CPU 0 instructions: 520000000 cycles: 750458109 heartbeat IPC: 0.306751 cumulative IPC: 0.544608 (Simulation time: 3 hr 10 min 25 sec) 
Heartbeat CPU 2 instructions: 1020000000 cycles: 753296629 heartbeat IPC: 1.12674 cumulative IPC: 1.11639 (Simulation time: 3 hr 10 min 58 sec) 
Heartbeat CPU 1 instructions: 930000003 cycles: 754399844 heartbeat IPC: 1.08581 cumulative IPC: 1.03813 (Simulation time: 3 hr 11 min 11 sec) 
Heartbeat CPU 3 instructions: 780000000 cycles: 759476481 heartbeat IPC: 0.584693 cumulative IPC: 0.734301 (Simulation time: 3 hr 12 min 11 sec) 
Heartbeat CPU 2 instructions: 1030000001 cycles: 762184274 heartbeat IPC: 1.12516 cumulative IPC: 1.11652 (Simulation time: 3 hr 12 min 44 sec) 
Heartbeat CPU 1 instructions: 940000000 cycles: 763069295 heartbeat IPC: 1.15348 cumulative IPC: 1.03979 (Simulation time: 3 hr 12 min 54 sec) 
Heartbeat CPU 2 instructions: 1040000000 cycles: 771271262 heartbeat IPC: 1.10047 cumulative IPC: 1.11628 (Simulation time: 3 hr 14 min 38 sec) 
Heartbeat CPU 1 instructions: 950000002 cycles: 771929198 heartbeat IPC: 1.12868 cumulative IPC: 1.04109 (Simulation time: 3 hr 14 min 47 sec) 
Heartbeat CPU 3 instructions: 790000000 cycles: 777300153 heartbeat IPC: 0.561052 cumulative IPC: 0.729275 (Simulation time: 3 hr 15 min 53 sec) 
Heartbeat CPU 0 instructions: 530000001 cycles: 778774834 heartbeat IPC: 0.353148 cumulative IPC: 0.535805 (Simulation time: 3 hr 16 min 9 sec) 
Heartbeat CPU 2 instructions: 1050000001 cycles: 780903098 heartbeat IPC: 1.03822 cumulative IPC: 1.11506 (Simulation time: 3 hr 16 min 35 sec) 
Heartbeat CPU 1 instructions: 960000000 cycles: 781775544 heartbeat IPC: 1.0156 cumulative IPC: 1.04068 (Simulation time: 3 hr 16 min 44 sec) 
Heartbeat CPU 2 instructions: 1060000000 cycles: 788163808 heartbeat IPC: 1.37728 cumulative IPC: 1.1181 (Simulation time: 3 hr 17 min 57 sec) 
Heartbeat CPU 1 instructions: 970000000 cycles: 794017225 heartbeat IPC: 0.816881 cumulative IPC: 1.03634 (Simulation time: 3 hr 18 min 58 sec) 
Heartbeat CPU 3 instructions: 800000000 cycles: 795331628 heartbeat IPC: 0.554586 cumulative IPC: 0.724295 (Simulation time: 3 hr 19 min 11 sec) 
Heartbeat CPU 2 instructions: 1070000001 cycles: 796735221 heartbeat IPC: 1.16667 cumulative IPC: 1.11876 (Simulation time: 3 hr 19 min 27 sec) 
Heartbeat CPU 2 instructions: 1080000000 cycles: 805577708 heartbeat IPC: 1.1309 cumulative IPC: 1.11893 (Simulation time: 3 hr 21 min 7 sec) 
Heartbeat CPU 1 instructions: 980000000 cycles: 805592588 heartbeat IPC: 0.863904 cumulative IPC: 1.03323 (Simulation time: 3 hr 21 min 8 sec) 
Heartbeat CPU 3 instructions: 810000002 cycles: 812366261 heartbeat IPC: 0.587039 cumulative IPC: 0.720695 (Simulation time: 3 hr 22 min 27 sec) 
Heartbeat CPU 2 instructions: 1090000002 cycles: 814356688 heartbeat IPC: 1.13908 cumulative IPC: 1.1192 (Simulation time: 3 hr 22 min 50 sec) 
Heartbeat CPU 1 instructions: 990000000 cycles: 816832436 heartbeat IPC: 0.889692 cumulative IPC: 1.03077 (Simulation time: 3 hr 23 min 22 sec) 
Heartbeat CPU 0 instructions: 540000000 cycles: 820280385 heartbeat IPC: 0.240932 cumulative IPC: 0.517188 (Simulation time: 3 hr 24 min 5 sec) 
Heartbeat CPU 2 instructions: 1100000000 cycles: 823231174 heartbeat IPC: 1.12683 cumulative IPC: 1.1193 (Simulation time: 3 hr 24 min 43 sec) 
Heartbeat CPU 1 instructions: 1000000000 cycles: 827359291 heartbeat IPC: 0.949951 cumulative IPC: 1.02949 (Simulation time: 3 hr 25 min 37 sec) 
Heartbeat CPU 3 instructions: 820000000 cycles: 829598744 heartbeat IPC: 0.580299 cumulative IPC: 0.717066 (Simulation time: 3 hr 26 min 7 sec) 
Heartbeat CPU 2 instructions: 1110000003 cycles: 832127317 heartbeat IPC: 1.12408 cumulative IPC: 1.11937 (Simulation time: 3 hr 26 min 36 sec) 
Heartbeat CPU 1 instructions: 1010000003 cycles: 836352220 heartbeat IPC: 1.11199 cumulative IPC: 1.03059 (Simulation time: 3 hr 27 min 33 sec) 
Heartbeat CPU 2 instructions: 1120000000 cycles: 841031898 heartbeat IPC: 1.12302 cumulative IPC: 1.11941 (Simulation time: 3 hr 28 min 30 sec) 
Heartbeat CPU 3 instructions: 830000001 cycles: 844218205 heartbeat IPC: 0.68402 cumulative IPC: 0.716357 (Simulation time: 3 hr 29 min 9 sec) 
Heartbeat CPU 1 instructions: 1020000000 cycles: 845310477 heartbeat IPC: 1.11629 cumulative IPC: 1.03171 (Simulation time: 3 hr 29 min 23 sec) 
Heartbeat CPU 2 instructions: 1130000002 cycles: 849677627 heartbeat IPC: 1.15664 cumulative IPC: 1.11988 (Simulation time: 3 hr 30 min 18 sec) 
Heartbeat CPU 1 instructions: 1030000002 cycles: 854216752 heartbeat IPC: 1.1228 cumulative IPC: 1.03289 (Simulation time: 3 hr 31 min 16 sec) 
Heartbeat CPU 0 instructions: 550000002 cycles: 856730825 heartbeat IPC: 0.274345 cumulative IPC: 0.504431 (Simulation time: 3 hr 31 min 48 sec) 
Heartbeat CPU 2 instructions: 1140000000 cycles: 857470252 heartbeat IPC: 1.28326 cumulative IPC: 1.12172 (Simulation time: 3 hr 31 min 57 sec) 
Heartbeat CPU 3 instructions: 840000000 cycles: 858027595 heartbeat IPC: 0.724145 cumulative IPC: 0.716512 (Simulation time: 3 hr 32 min 4 sec) 
Heartbeat CPU 1 instructions: 1040000000 cycles: 863118611 heartbeat IPC: 1.12336 cumulative IPC: 1.03404 (Simulation time: 3 hr 33 min 11 sec) 
Heartbeat CPU 2 instructions: 1150000001 cycles: 865263168 heartbeat IPC: 1.28322 cumulative IPC: 1.12351 (Simulation time: 3 hr 33 min 42 sec) 
Heartbeat CPU 3 instructions: 850000000 cycles: 871844012 heartbeat IPC: 0.723777 cumulative IPC: 0.716653 (Simulation time: 3 hr 35 min 14 sec) 
Heartbeat CPU 1 instructions: 1050000003 cycles: 872076839 heartbeat IPC: 1.11629 cumulative IPC: 1.03508 (Simulation time: 3 hr 35 min 17 sec) 
Heartbeat CPU 2 instructions: 1160000000 cycles: 873201793 heartbeat IPC: 1.25966 cumulative IPC: 1.12503 (Simulation time: 3 hr 35 min 33 sec) 
Heartbeat CPU 1 instructions: 1060000000 cycles: 881023007 heartbeat IPC: 1.1178 cumulative IPC: 1.03611 (Simulation time: 3 hr 37 min 16 sec) 
Heartbeat CPU 2 instructions: 1170000002 cycles: 881070341 heartbeat IPC: 1.27088 cumulative IPC: 1.12663 (Simulation time: 3 hr 37 min 16 sec) 
Heartbeat CPU 0 instructions: 560000000 cycles: 882315042 heartbeat IPC: 0.390866 cumulative IPC: 0.500392 (Simulation time: 3 hr 37 min 34 sec) 
Heartbeat CPU 3 instructions: 860000000 cycles: 885701107 heartbeat IPC: 0.721652 cumulative IPC: 0.716749 (Simulation time: 3 hr 38 min 15 sec) 
Heartbeat CPU 1 instructions: 1070000003 cycles: 890027928 heartbeat IPC: 1.1105 cumulative IPC: 1.03703 (Simulation time: 3 hr 39 min 5 sec) 
Heartbeat CPU 2 instructions: 1180000000 cycles: 892239332 heartbeat IPC: 0.895336 cumulative IPC: 1.12309 (Simulation time: 3 hr 39 min 33 sec) 
Heartbeat CPU 1 instructions: 1080000000 cycles: 898951886 heartbeat IPC: 1.12058 cumulative IPC: 1.03804 (Simulation time: 3 hr 40 min 53 sec) 
Heartbeat CPU 3 instructions: 870000003 cycles: 899567139 heartbeat IPC: 0.721187 cumulative IPC: 0.716833 (Simulation time: 3 hr 41 min 0 sec) 
Heartbeat CPU 2 instructions: 1190000001 cycles: 903386169 heartbeat IPC: 0.897116 cumulative IPC: 1.11968 (Simulation time: 3 hr 41 min 46 sec) 
Heartbeat CPU 1 instructions: 1090000003 cycles: 907851621 heartbeat IPC: 1.12363 cumulative IPC: 1.03906 (Simulation time: 3 hr 42 min 41 sec) 
Heartbeat CPU 3 instructions: 880000000 cycles: 913388909 heartbeat IPC: 0.723496 cumulative IPC: 0.716955 (Simulation time: 3 hr 43 min 53 sec) 
Heartbeat CPU 2 instructions: 1200000000 cycles: 914555540 heartbeat IPC: 0.895305 cumulative IPC: 1.11635 (Simulation time: 3 hr 44 min 9 sec) 
Heartbeat CPU 1 instructions: 1100000000 cycles: 916815464 heartbeat IPC: 1.11559 cumulative IPC: 1.03997 (Simulation time: 3 hr 44 min 38 sec) 
Heartbeat CPU 0 instructions: 570000000 cycles: 918924774 heartbeat IPC: 0.273151 cumulative IPC: 0.489388 (Simulation time: 3 hr 45 min 6 sec) 
Heartbeat CPU 2 instructions: 1210000000 cycles: 925640814 heartbeat IPC: 0.902098 cumulative IPC: 1.11324 (Simulation time: 3 hr 46 min 36 sec) 
Heartbeat CPU 1 instructions: 1110000000 cycles: 925748722 heartbeat IPC: 1.11941 cumulative IPC: 1.0409 (Simulation time: 3 hr 46 min 37 sec) 
Heartbeat CPU 3 instructions: 890000000 cycles: 927251710 heartbeat IPC: 0.721355 cumulative IPC: 0.717035 (Simulation time: 3 hr 46 min 55 sec) 
Heartbeat CPU 2 instructions: 1220000000 cycles: 933141381 heartbeat IPC: 1.33323 cumulative IPC: 1.11538 (Simulation time: 3 hr 48 min 14 sec) 
Heartbeat CPU 1 instructions: 1120000000 cycles: 934781860 heartbeat IPC: 1.10704 cumulative IPC: 1.04168 (Simulation time: 3 hr 48 min 36 sec) 
Heartbeat CPU 2 instructions: 1230000001 cycles: 940218753 heartbeat IPC: 1.41295 cumulative IPC: 1.11809 (Simulation time: 3 hr 49 min 44 sec) 
Heartbeat CPU 3 instructions: 900000000 cycles: 941172248 heartbeat IPC: 0.718363 cumulative IPC: 0.717059 (Simulation time: 3 hr 49 min 56 sec) 
Heartbeat CPU 1 instructions: 1130000002 cycles: 943721952 heartbeat IPC: 1.11856 cumulative IPC: 1.04256 (Simulation time: 3 hr 50 min 29 sec) 
Heartbeat CPU 2 instructions: 1240000000 cycles: 947191910 heartbeat IPC: 1.43407 cumulative IPC: 1.1209 (Simulation time: 3 hr 51 min 14 sec) 
Heartbeat CPU 1 instructions: 1140000000 cycles: 952649276 heartbeat IPC: 1.12016 cumulative IPC: 1.04343 (Simulation time: 3 hr 52 min 17 sec) 
Heartbeat CPU 3 instructions: 910000000 cycles: 955003677 heartbeat IPC: 0.722991 cumulative IPC: 0.717162 (Simulation time: 3 hr 52 min 43 sec) 
Heartbeat CPU 2 instructions: 1250000002 cycles: 957046045 heartbeat IPC: 1.0148 cumulative IPC: 1.11958 (Simulation time: 3 hr 53 min 7 sec) 
Heartbeat CPU 0 instructions: 580000000 cycles: 961537454 heartbeat IPC: 0.234672 cumulative IPC: 0.475798 (Simulation time: 3 hr 54 min 0 sec) 
Heartbeat CPU 1 instructions: 1150000000 cycles: 962082513 heartbeat IPC: 1.06008 cumulative IPC: 1.04363 (Simulation time: 3 hr 54 min 8 sec) 
Heartbeat CPU 2 instructions: 1260000000 cycles: 965255868 heartbeat IPC: 1.21805 cumulative IPC: 1.12059 (Simulation time: 3 hr 54 min 51 sec) 
Heartbeat CPU 3 instructions: 920000000 cycles: 968950993 heartbeat IPC: 0.716984 cumulative IPC: 0.717159 (Simulation time: 3 hr 55 min 40 sec) 
Heartbeat CPU 1 instructions: 1160000000 cycles: 971768672 heartbeat IPC: 1.0324 cumulative IPC: 1.0435 (Simulation time: 3 hr 56 min 16 sec) 
Heartbeat CPU 2 instructions: 1270000002 cycles: 973735305 heartbeat IPC: 1.17932 cumulative IPC: 1.1212 (Simulation time: 3 hr 56 min 42 sec) 
Heartbeat CPU 1 instructions: 1170000001 cycles: 981418082 heartbeat IPC: 1.03633 cumulative IPC: 1.04341 (Simulation time: 3 hr 58 min 19 sec) 
Heartbeat CPU 2 instructions: 1280000000 cycles: 982747456 heartbeat IPC: 1.10961 cumulative IPC: 1.12107 (Simulation time: 3 hr 58 min 38 sec) 
Heartbeat CPU 3 instructions: 930000001 cycles: 982832440 heartbeat IPC: 0.720386 cumulative IPC: 0.717214 (Simulation time: 3 hr 58 min 39 sec) 
Heartbeat CPU 0 instructions: 590000000 cycles: 989086594 heartbeat IPC: 0.362988 cumulative IPC: 0.472036 (Simulation time: 3 hr 59 min 56 sec) 
Heartbeat CPU 1 instructions: 1180000000 cycles: 991078755 heartbeat IPC: 1.03512 cumulative IPC: 1.04332 (Simulation time: 4 hr 0 min 20 sec) 
Heartbeat CPU 2 instructions: 1290000001 cycles: 991779720 heartbeat IPC: 1.10714 cumulative IPC: 1.12092 (Simulation time: 4 hr 0 min 28 sec) 
Heartbeat CPU 3 instructions: 940000000 cycles: 996693256 heartbeat IPC: 0.721458 cumulative IPC: 0.717285 (Simulation time: 4 hr 1 min 28 sec) 
Heartbeat CPU 2 instructions: 1300000000 cycles: 1000626314 heartbeat IPC: 1.13038 cumulative IPC: 1.12102 (Simulation time: 4 hr 2 min 16 sec) 
Heartbeat CPU 1 instructions: 1190000002 cycles: 1000711810 heartbeat IPC: 1.03809 cumulative IPC: 1.04326 (Simulation time: 4 hr 2 min 17 sec) 
Heartbeat CPU 2 instructions: 1310000001 cycles: 1009501169 heartbeat IPC: 1.12678 cumulative IPC: 1.12108 (Simulation time: 4 hr 4 min 7 sec) 
Heartbeat CPU 3 instructions: 950000001 cycles: 1009811720 heartbeat IPC: 0.762284 cumulative IPC: 0.717982 (Simulation time: 4 hr 4 min 10 sec) 
Heartbeat CPU 1 instructions: 1200000000 cycles: 1010336021 heartbeat IPC: 1.03905 cumulative IPC: 1.04321 (Simulation time: 4 hr 4 min 17 sec) 
Heartbeat CPU 2 instructions: 1320000000 cycles: 1018547706 heartbeat IPC: 1.1054 cumulative IPC: 1.12092 (Simulation time: 4 hr 6 min 9 sec) 
Heartbeat CPU 1 instructions: 1210000003 cycles: 1019446767 heartbeat IPC: 1.09761 cumulative IPC: 1.04379 (Simulation time: 4 hr 6 min 21 sec) 
Heartbeat CPU 0 instructions: 600000000 cycles: 1022091591 heartbeat IPC: 0.302984 cumulative IPC: 0.465543 (Simulation time: 4 hr 6 min 57 sec) 
Heartbeat CPU 3 instructions: 960000000 cycles: 1023627315 heartbeat IPC: 0.72382 cumulative IPC: 0.718075 (Simulation time: 4 hr 7 min 18 sec) 
Heartbeat CPU 2 instructions: 1330000001 cycles: 1027546994 heartbeat IPC: 1.1112 cumulative IPC: 1.12082 (Simulation time: 4 hr 8 min 8 sec) 
Heartbeat CPU 1 instructions: 1220000000 cycles: 1028177069 heartbeat IPC: 1.14544 cumulative IPC: 1.04481 (Simulation time: 4 hr 8 min 15 sec) 
Heartbeat CPU 2 instructions: 1340000000 cycles: 1036612056 heartbeat IPC: 1.10314 cumulative IPC: 1.12063 (Simulation time: 4 hr 10 min 2 sec) 
Heartbeat CPU 1 instructions: 1230000001 cycles: 1036909283 heartbeat IPC: 1.14519 cumulative IPC: 1.04581 (Simulation time: 4 hr 10 min 6 sec) 
Heartbeat CPU 3 instructions: 970000003 cycles: 1037528962 heartbeat IPC: 0.719339 cumulative IPC: 0.718095 (Simulation time: 4 hr 10 min 13 sec) 
Heartbeat CPU 2 instructions: 1350000002 cycles: 1045549997 heartbeat IPC: 1.11883 cumulative IPC: 1.12061 (Simulation time: 4 hr 11 min 48 sec) 
Heartbeat CPU 1 instructions: 1240000000 cycles: 1048010774 heartbeat IPC: 0.90078 cumulative IPC: 1.044 (Simulation time: 4 hr 12 min 17 sec) 
Heartbeat CPU 3 instructions: 980000000 cycles: 1051341468 heartbeat IPC: 0.723981 cumulative IPC: 0.718187 (Simulation time: 4 hr 12 min 57 sec) 
Heartbeat CPU 2 instructions: 1360000000 cycles: 1055112435 heartbeat IPC: 1.04576 cumulative IPC: 1.11981 (Simulation time: 4 hr 13 min 39 sec) 
Finished CPU 2 instructions: 1000000000 cycles: 892842549 cumulative IPC: 1.12002 (Simulation time: 4 hr 13 min 47 sec) 
Heartbeat CPU 1 instructions: 1250000001 cycles: 1059307014 heartbeat IPC: 0.88525 cumulative IPC: 1.042 (Simulation time: 4 hr 14 min 32 sec) 
Heartbeat CPU 2 instructions: 1370000000 cycles: 1062198731 heartbeat IPC: 1.41117 cumulative IPC: 1.12211 (Simulation time: 4 hr 15 min 10 sec) 
Heartbeat CPU 0 instructions: 610000002 cycles: 1063540676 heartbeat IPC: 0.24126 cumulative IPC: 0.455221 (Simulation time: 4 hr 15 min 28 sec) 
Heartbeat CPU 3 instructions: 990000002 cycles: 1065197129 heartbeat IPC: 0.721727 cumulative IPC: 0.718241 (Simulation time: 4 hr 15 min 49 sec) 
Heartbeat CPU 2 instructions: 1380000000 cycles: 1070236233 heartbeat IPC: 1.24417 cumulative IPC: 1.12319 (Simulation time: 4 hr 16 min 53 sec) 
Heartbeat CPU 1 instructions: 1260000000 cycles: 1071481556 heartbeat IPC: 0.821386 cumulative IPC: 1.03904 (Simulation time: 4 hr 17 min 7 sec) 
Heartbeat CPU 2 instructions: 1390000002 cycles: 1078596449 heartbeat IPC: 1.19614 cumulative IPC: 1.12385 (Simulation time: 4 hr 18 min 36 sec) 
Heartbeat CPU 3 instructions: 1000000000 cycles: 1079081789 heartbeat IPC: 0.720219 cumulative IPC: 0.718271 (Simulation time: 4 hr 18 min 41 sec) 
Heartbeat CPU 1 instructions: 1270000002 cycles: 1083013427 heartbeat IPC: 0.867162 cumulative IPC: 1.03689 (Simulation time: 4 hr 19 min 32 sec) 
Heartbeat CPU 2 instructions: 1400000000 cycles: 1087250176 heartbeat IPC: 1.15557 cumulative IPC: 1.12415 (Simulation time: 4 hr 20 min 26 sec) 
Heartbeat CPU 1 instructions: 1280000000 cycles: 1092212042 heartbeat IPC: 1.08712 cumulative IPC: 1.03738 (Simulation time: 4 hr 21 min 28 sec) 
Heartbeat CPU 3 instructions: 1010000000 cycles: 1093010271 heartbeat IPC: 0.717953 cumulative IPC: 0.718266 (Simulation time: 4 hr 21 min 37 sec) 
Heartbeat CPU 2 instructions: 1410000001 cycles: 1096372450 heartbeat IPC: 1.09622 cumulative IPC: 1.12388 (Simulation time: 4 hr 22 min 16 sec) 
Heartbeat CPU 0 instructions: 620000000 cycles: 1100134452 heartbeat IPC: 0.27327 cumulative IPC: 0.448117 (Simulation time: 4 hr 23 min 3 sec) 
Heartbeat CPU 1 instructions: 1290000000 cycles: 1101260452 heartbeat IPC: 1.10517 cumulative IPC: 1.03804 (Simulation time: 4 hr 23 min 18 sec) 
Heartbeat CPU 2 instructions: 1420000000 cycles: 1102551558 heartbeat IPC: 1.61836 cumulative IPC: 1.12713 (Simulation time: 4 hr 23 min 35 sec) 
Heartbeat CPU 3 instructions: 1020000000 cycles: 1106843208 heartbeat IPC: 0.722912 cumulative IPC: 0.718335 (Simulation time: 4 hr 24 min 33 sec) 
Heartbeat CPU 2 instructions: 1430000002 cycles: 1108403808 heartbeat IPC: 1.70874 cumulative IPC: 1.13073 (Simulation time: 4 hr 24 min 55 sec) 
Heartbeat CPU 1 instructions: 1300000000 cycles: 1110267403 heartbeat IPC: 1.11025 cumulative IPC: 1.03872 (Simulation time: 4 hr 25 min 20 sec) 
Heartbeat CPU 2 instructions: 1440000000 cycles: 1114252584 heartbeat IPC: 1.70976 cumulative IPC: 1.13429 (Simulation time: 4 hr 26 min 17 sec) 
Heartbeat CPU 1 instructions: 1310000000 cycles: 1119352596 heartbeat IPC: 1.10069 cumulative IPC: 1.03931 (Simulation time: 4 hr 27 min 32 sec) 
Heartbeat CPU 2 instructions: 1450000001 cycles: 1120112740 heartbeat IPC: 1.70644 cumulative IPC: 1.13779 (Simulation time: 4 hr 27 min 43 sec) 
Heartbeat CPU 3 instructions: 1030000002 cycles: 1120697384 heartbeat IPC: 0.721804 cumulative IPC: 0.718385 (Simulation time: 4 hr 27 min 51 sec) 
Finished CPU 1 instructions: 1000000000 cycles: 961871473 cumulative IPC: 1.03964 (Simulation time: 4 hr 28 min 51 sec) 
Heartbeat CPU 2 instructions: 1460000000 cycles: 1125943593 heartbeat IPC: 1.71501 cumulative IPC: 1.14129 (Simulation time: 4 hr 29 min 9 sec) 
Heartbeat CPU 0 instructions: 630000000 cycles: 1127045595 heartbeat IPC: 0.371593 cumulative IPC: 0.445981 (Simulation time: 4 hr 29 min 26 sec) 
Heartbeat CPU 1 instructions: 1320000000 cycles: 1128398958 heartbeat IPC: 1.10542 cumulative IPC: 1.03993 (Simulation time: 4 hr 29 min 47 sec) 
Heartbeat CPU 2 instructions: 1470000000 cycles: 1131826802 heartbeat IPC: 1.69975 cumulative IPC: 1.14468 (Simulation time: 4 hr 30 min 32 sec) 
Heartbeat CPU 3 instructions: 1040000000 cycles: 1134527079 heartbeat IPC: 0.723082 cumulative IPC: 0.718452 (Simulation time: 4 hr 31 min 13 sec) 
Heartbeat CPU 1 instructions: 1330000003 cycles: 1137550356 heartbeat IPC: 1.09273 cumulative IPC: 1.04043 (Simulation time: 4 hr 31 min 53 sec) 
Heartbeat CPU 2 instructions: 1480000000 cycles: 1137945151 heartbeat IPC: 1.63443 cumulative IPC: 1.14775 (Simulation time: 4 hr 31 min 59 sec) 
Heartbeat CPU 2 instructions: 1490000001 cycles: 1144151561 heartbeat IPC: 1.61124 cumulative IPC: 1.15068 (Simulation time: 4 hr 33 min 18 sec) 
Heartbeat CPU 1 instructions: 1340000000 cycles: 1146600661 heartbeat IPC: 1.10493 cumulative IPC: 1.04102 (Simulation time: 4 hr 33 min 48 sec) 
Heartbeat CPU 3 instructions: 1050000001 cycles: 1148321539 heartbeat IPC: 0.724929 cumulative IPC: 0.718542 (Simulation time: 4 hr 34 min 10 sec) 
Heartbeat CPU 2 instructions: 1500000000 cycles: 1152097959 heartbeat IPC: 1.25843 cumulative IPC: 1.15155 (Simulation time: 4 hr 34 min 59 sec) 
Heartbeat CPU 1 instructions: 1350000002 cycles: 1155672216 heartbeat IPC: 1.10235 cumulative IPC: 1.04158 (Simulation time: 4 hr 35 min 45 sec) 
Heartbeat CPU 2 instructions: 1510000001 cycles: 1158179034 heartbeat IPC: 1.64445 cumulative IPC: 1.15456 (Simulation time: 4 hr 36 min 21 sec) 
Heartbeat CPU 3 instructions: 1060000000 cycles: 1162136455 heartbeat IPC: 0.723855 cumulative IPC: 0.718616 (Simulation time: 4 hr 37 min 20 sec) 
Heartbeat CPU 2 instructions: 1520000000 cycles: 1164066728 heartbeat IPC: 1.69846 cumulative IPC: 1.15776 (Simulation time: 4 hr 37 min 50 sec) 
Heartbeat CPU 1 instructions: 1360000000 cycles: 1164719398 heartbeat IPC: 1.10532 cumulative IPC: 1.04216 (Simulation time: 4 hr 38 min 1 sec) 
Heartbeat CPU 0 instructions: 640000000 cycles: 1168790172 heartbeat IPC: 0.239552 cumulative IPC: 0.437414 (Simulation time: 4 hr 39 min 6 sec) 
Heartbeat CPU 2 instructions: 1530000001 cycles: 1169997135 heartbeat IPC: 1.68623 cumulative IPC: 1.16087 (Simulation time: 4 hr 39 min 25 sec) 
Heartbeat CPU 1 instructions: 1370000000 cycles: 1173801786 heartbeat IPC: 1.10103 cumulative IPC: 1.04268 (Simulation time: 4 hr 40 min 25 sec) 
Heartbeat CPU 2 instructions: 1540000000 cycles: 1175827526 heartbeat IPC: 1.71515 cumulative IPC: 1.16406 (Simulation time: 4 hr 40 min 56 sec) 
Heartbeat CPU 3 instructions: 1070000001 cycles: 1176063412 heartbeat IPC: 0.718032 cumulative IPC: 0.718608 (Simulation time: 4 hr 41 min 0 sec) 
Heartbeat CPU 2 instructions: 1550000002 cycles: 1181644193 heartbeat IPC: 1.7192 cumulative IPC: 1.16723 (Simulation time: 4 hr 42 min 15 sec) 
Heartbeat CPU 1 instructions: 1380000000 cycles: 1182864320 heartbeat IPC: 1.10344 cumulative IPC: 1.04322 (Simulation time: 4 hr 42 min 33 sec) 
Heartbeat CPU 2 instructions: 1560000000 cycles: 1187587088 heartbeat IPC: 1.68268 cumulative IPC: 1.17022 (Simulation time: 4 hr 43 min 38 sec) 
Heartbeat CPU 3 instructions: 1080000000 cycles: 1190050003 heartbeat IPC: 0.71497 cumulative IPC: 0.718558 (Simulation time: 4 hr 44 min 9 sec) 
Heartbeat CPU 1 instructions: 1390000000 cycles: 1191987325 heartbeat IPC: 1.09613 cumulative IPC: 1.04369 (Simulation time: 4 hr 44 min 34 sec) 
Heartbeat CPU 2 instructions: 1570000003 cycles: 1193587136 heartbeat IPC: 1.66665 cumulative IPC: 1.17311 (Simulation time: 4 hr 44 min 54 sec) 
Heartbeat CPU 2 instructions: 1580000000 cycles: 1199705299 heartbeat IPC: 1.63448 cumulative IPC: 1.17583 (Simulation time: 4 hr 46 min 10 sec) 
Heartbeat CPU 1 instructions: 1400000000 cycles: 1201006496 heartbeat IPC: 1.10875 cumulative IPC: 1.04426 (Simulation time: 4 hr 46 min 26 sec) 
Heartbeat CPU 3 instructions: 1090000001 cycles: 1203865707 heartbeat IPC: 0.723814 cumulative IPC: 0.718628 (Simulation time: 4 hr 47 min 0 sec) 
Heartbeat CPU 2 instructions: 1590000002 cycles: 1207700308 heartbeat IPC: 1.25078 cumulative IPC: 1.17641 (Simulation time: 4 hr 47 min 47 sec) 
Heartbeat CPU 0 instructions: 650000000 cycles: 1207941077 heartbeat IPC: 0.255422 cumulative IPC: 0.430597 (Simulation time: 4 hr 47 min 50 sec) 
Heartbeat CPU 1 instructions: 1410000000 cycles: 1210066712 heartbeat IPC: 1.10373 cumulative IPC: 1.04477 (Simulation time: 4 hr 48 min 16 sec) 
Heartbeat CPU 2 instructions: 1600000000 cycles: 1213882597 heartbeat IPC: 1.61752 cumulative IPC: 1.179 (Simulation time: 4 hr 49 min 7 sec) 
Heartbeat CPU 3 instructions: 1100000000 cycles: 1217791414 heartbeat IPC: 0.718096 cumulative IPC: 0.718621 (Simulation time: 4 hr 50 min 3 sec) 
Heartbeat CPU 1 instructions: 1420000000 cycles: 1219526039 heartbeat IPC: 1.05716 cumulative IPC: 1.04488 (Simulation time: 4 hr 50 min 28 sec) 
Heartbeat CPU 2 instructions: 1610000002 cycles: 1219783128 heartbeat IPC: 1.69476 cumulative IPC: 1.18188 (Simulation time: 4 hr 50 min 32 sec) 
Heartbeat CPU 2 instructions: 1620000000 cycles: 1225674588 heartbeat IPC: 1.69737 cumulative IPC: 1.18474 (Simulation time: 4 hr 51 min 57 sec) 
Heartbeat CPU 1 instructions: 1430000000 cycles: 1229368580 heartbeat IPC: 1.016 cumulative IPC: 1.04462 (Simulation time: 4 hr 52 min 48 sec) 
Heartbeat CPU 2 instructions: 1630000000 cycles: 1231491313 heartbeat IPC: 1.71918 cumulative IPC: 1.18765 (Simulation time: 4 hr 53 min 15 sec) 
Heartbeat CPU 3 instructions: 1110000001 cycles: 1231671394 heartbeat IPC: 0.720462 cumulative IPC: 0.718645 (Simulation time: 4 hr 53 min 17 sec) 
Heartbeat CPU 0 instructions: 660000000 cycles: 1233921212 heartbeat IPC: 0.384909 cumulative IPC: 0.429488 (Simulation time: 4 hr 53 min 49 sec) 
Heartbeat CPU 2 instructions: 1640000000 cycles: 1237371588 heartbeat IPC: 1.7006 cumulative IPC: 1.19045 (Simulation time: 4 hr 54 min 36 sec) 
Heartbeat CPU 1 instructions: 1440000000 cycles: 1239243734 heartbeat IPC: 1.01264 cumulative IPC: 1.04432 (Simulation time: 4 hr 55 min 0 sec) 
Heartbeat CPU 2 instructions: 1650000001 cycles: 1243241527 heartbeat IPC: 1.7036 cumulative IPC: 1.19324 (Simulation time: 4 hr 55 min 50 sec) 
Heartbeat CPU 3 instructions: 1120000000 cycles: 1245590509 heartbeat IPC: 0.718436 cumulative IPC: 0.718642 (Simulation time: 4 hr 56 min 19 sec) 
Heartbeat CPU 1 instructions: 1450000001 cycles: 1249073208 heartbeat IPC: 1.01735 cumulative IPC: 1.04408 (Simulation time: 4 hr 57 min 3 sec) 
Heartbeat CPU 2 instructions: 1660000000 cycles: 1249144597 heartbeat IPC: 1.69403 cumulative IPC: 1.19596 (Simulation time: 4 hr 57 min 4 sec) 
Heartbeat CPU 2 instructions: 1670000001 cycles: 1255141955 heartbeat IPC: 1.6674 cumulative IPC: 1.19855 (Simulation time: 4 hr 58 min 18 sec) 
Heartbeat CPU 1 instructions: 1460000000 cycles: 1258893846 heartbeat IPC: 1.01826 cumulative IPC: 1.04385 (Simulation time: 4 hr 59 min 3 sec) 
Heartbeat CPU 3 instructions: 1130000001 cycles: 1259373355 heartbeat IPC: 0.72554 cumulative IPC: 0.718729 (Simulation time: 4 hr 59 min 9 sec) 
Heartbeat CPU 2 instructions: 1680000000 cycles: 1263128796 heartbeat IPC: 1.25206 cumulative IPC: 1.19894 (Simulation time: 4 hr 59 min 55 sec) 
Heartbeat CPU 1 instructions: 1470000002 cycles: 1268480502 heartbeat IPC: 1.04312 cumulative IPC: 1.04384 (Simulation time: 5 hr 1 min 9 sec) 
Heartbeat CPU 2 instructions: 1690000002 cycles: 1269724133 heartbeat IPC: 1.51622 cumulative IPC: 1.20083 (Simulation time: 5 hr 1 min 27 sec) 
Heartbeat CPU 0 instructions: 670000001 cycles: 1272820155 heartbeat IPC: 0.257076 cumulative IPC: 0.423446 (Simulation time: 5 hr 2 min 12 sec) 
Heartbeat CPU 3 instructions: 1140000000 cycles: 1273283292 heartbeat IPC: 0.71891 cumulative IPC: 0.718731 (Simulation time: 5 hr 2 min 19 sec) 
Heartbeat CPU 2 instructions: 1700000000 cycles: 1275651100 heartbeat IPC: 1.6872 cumulative IPC: 1.20342 (Simulation time: 5 hr 2 min 53 sec) 
Heartbeat CPU 1 instructions: 1480000000 cycles: 1277317876 heartbeat IPC: 1.13156 cumulative IPC: 1.04454 (Simulation time: 5 hr 3 min 17 sec) 
Heartbeat CPU 2 instructions: 1710000002 cycles: 1281567065 heartbeat IPC: 1.69034 cumulative IPC: 1.206 (Simulation time: 5 hr 4 min 15 sec) 
Heartbeat CPU 1 instructions: 1490000003 cycles: 1286405020 heartbeat IPC: 1.10046 cumulative IPC: 1.04499 (Simulation time: 5 hr 5 min 23 sec) 
Heartbeat CPU 3 instructions: 1150000000 cycles: 1287258854 heartbeat IPC: 0.715535 cumulative IPC: 0.718691 (Simulation time: 5 hr 5 min 34 sec) 
Heartbeat CPU 2 instructions: 1720000000 cycles: 1287469125 heartbeat IPC: 1.69432 cumulative IPC: 1.20856 (Simulation time: 5 hr 5 min 36 sec) 
Heartbeat CPU 2 instructions: 1730000000 cycles: 1293311454 heartbeat IPC: 1.71165 cumulative IPC: 1.21116 (Simulation time: 5 hr 6 min 49 sec) 
Heartbeat CPU 1 instructions: 1500000000 cycles: 1297899372 heartbeat IPC: 0.869992 cumulative IPC: 1.04322 (Simulation time: 5 hr 7 min 47 sec) 
Heartbeat CPU 2 instructions: 1740000000 cycles: 1299151024 heartbeat IPC: 1.71245 cumulative IPC: 1.21374 (Simulation time: 5 hr 8 min 3 sec) 
Heartbeat CPU 3 instructions: 1160000000 cycles: 1301023870 heartbeat IPC: 0.726479 cumulative IPC: 0.718786 (Simulation time: 5 hr 8 min 26 sec) 
Heartbeat CPU 2 instructions: 1750000003 cycles: 1305073673 heartbeat IPC: 1.68843 cumulative IPC: 1.2162 (Simulation time: 5 hr 9 min 17 sec) 
Heartbeat CPU 1 instructions: 1510000001 cycles: 1309034685 heartbeat IPC: 0.898044 cumulative IPC: 1.04181 (Simulation time: 5 hr 10 min 8 sec) 
Heartbeat CPU 2 instructions: 1760000000 cycles: 1311015784 heartbeat IPC: 1.6829 cumulative IPC: 1.21861 (Simulation time: 5 hr 10 min 31 sec) 
Heartbeat CPU 0 instructions: 680000000 cycles: 1314184869 heartbeat IPC: 0.241752 cumulative IPC: 0.416918 (Simulation time: 5 hr 11 min 8 sec) 
Heartbeat CPU 3 instructions: 1170000000 cycles: 1314979231 heartbeat IPC: 0.71657 cumulative IPC: 0.718759 (Simulation time: 5 hr 11 min 19 sec) 
Heartbeat CPU 2 instructions: 1770000002 cycles: 1319475486 heartbeat IPC: 1.18208 cumulative IPC: 1.21835 (Simulation time: 5 hr 12 min 15 sec) 
Heartbeat CPU 1 instructions: 1520000000 cycles: 1320966917 heartbeat IPC: 0.838066 cumulative IPC: 1.03971 (Simulation time: 5 hr 12 min 34 sec) 
Heartbeat CPU 2 instructions: 1780000000 cycles: 1325953129 heartbeat IPC: 1.54377 cumulative IPC: 1.22016 (Simulation time: 5 hr 13 min 45 sec) 
Heartbeat CPU 3 instructions: 1180000000 cycles: 1328035242 heartbeat IPC: 0.765931 cumulative IPC: 0.719287 (Simulation time: 5 hr 14 min 16 sec) 
Heartbeat CPU 1 instructions: 1530000003 cycles: 1330277540 heartbeat IPC: 1.07404 cumulative IPC: 1.03998 (Simulation time: 5 hr 14 min 48 sec) 
Heartbeat CPU 2 instructions: 1790000001 cycles: 1331826056 heartbeat IPC: 1.70273 cumulative IPC: 1.22258 (Simulation time: 5 hr 15 min 8 sec) 
Heartbeat CPU 2 instructions: 1800000000 cycles: 1337731615 heartbeat IPC: 1.69332 cumulative IPC: 1.22495 (Simulation time: 5 hr 16 min 32 sec) 
Heartbeat CPU 1 instructions: 1540000000 cycles: 1339327427 heartbeat IPC: 1.10499 cumulative IPC: 1.04048 (Simulation time: 5 hr 16 min 53 sec) 
Heartbeat CPU 3 instructions: 1190000001 cycles: 1341881983 heartbeat IPC: 0.722192 cumulative IPC: 0.719321 (Simulation time: 5 hr 17 min 27 sec) 
Heartbeat CPU 0 instructions: 690000001 cycles: 1342500062 heartbeat IPC: 0.353167 cumulative IPC: 0.415388 (Simulation time: 5 hr 17 min 35 sec) 
Heartbeat CPU 2 instructions: 1810000002 cycles: 1343571137 heartbeat IPC: 1.71247 cumulative IPC: 1.22736 (Simulation time: 5 hr 17 min 49 sec) 
Heartbeat CPU 1 instructions: 1550000000 cycles: 1348307438 heartbeat IPC: 1.11358 cumulative IPC: 1.04104 (Simulation time: 5 hr 18 min 50 sec) 
Heartbeat CPU 2 instructions: 1820000000 cycles: 1349340743 heartbeat IPC: 1.73322 cumulative IPC: 1.22982 (Simulation time: 5 hr 19 min 3 sec) 
Heartbeat CPU 2 instructions: 1830000002 cycles: 1355139778 heartbeat IPC: 1.72443 cumulative IPC: 1.23223 (Simulation time: 5 hr 20 min 20 sec) 
Heartbeat CPU 3 instructions: 1200000000 cycles: 1355622190 heartbeat IPC: 0.727791 cumulative IPC: 0.719419 (Simulation time: 5 hr 20 min 27 sec) 
Heartbeat CPU 1 instructions: 1560000000 cycles: 1357270628 heartbeat IPC: 1.11567 cumulative IPC: 1.0416 (Simulation time: 5 hr 20 min 49 sec) 
Heartbeat CPU 2 instructions: 1840000000 cycles: 1361030016 heartbeat IPC: 1.69772 cumulative IPC: 1.23451 (Simulation time: 5 hr 21 min 39 sec) 
Heartbeat CPU 1 instructions: 1570000000 cycles: 1366254836 heartbeat IPC: 1.11306 cumulative IPC: 1.04213 (Simulation time: 5 hr 22 min 51 sec) 
Heartbeat CPU 2 instructions: 1850000000 cycles: 1366983735 heartbeat IPC: 1.67962 cumulative IPC: 1.23671 (Simulation time: 5 hr 23 min 0 sec) 
Heartbeat CPU 3 instructions: 1210000003 cycles: 1369419594 heartbeat IPC: 0.724774 cumulative IPC: 0.71948 (Simulation time: 5 hr 23 min 32 sec) 
Heartbeat CPU 1 instructions: 1580000000 cycles: 1375318377 heartbeat IPC: 1.10332 cumulative IPC: 1.04259 (Simulation time: 5 hr 24 min 51 sec) 
Heartbeat CPU 2 instructions: 1860000000 cycles: 1375490070 heartbeat IPC: 1.17559 cumulative IPC: 1.23629 (Simulation time: 5 hr 24 min 53 sec) 
Heartbeat CPU 0 instructions: 700000000 cycles: 1375605391 heartbeat IPC: 0.302066 cumulative IPC: 0.412294 (Simulation time: 5 hr 24 min 55 sec) 
Heartbeat CPU 2 instructions: 1870000000 cycles: 1382039574 heartbeat IPC: 1.52683 cumulative IPC: 1.23785 (Simulation time: 5 hr 26 min 20 sec) 
Heartbeat CPU 3 instructions: 1220000000 cycles: 1383191018 heartbeat IPC: 0.726141 cumulative IPC: 0.719555 (Simulation time: 5 hr 26 min 35 sec) 
Heartbeat CPU 1 instructions: 1590000000 cycles: 1384371464 heartbeat IPC: 1.1046 cumulative IPC: 1.04305 (Simulation time: 5 hr 26 min 52 sec) 
Heartbeat CPU 2 instructions: 1880000000 cycles: 1387969499 heartbeat IPC: 1.68636 cumulative IPC: 1.24002 (Simulation time: 5 hr 27 min 45 sec) 
Heartbeat CPU 1 instructions: 1600000000 cycles: 1393429959 heartbeat IPC: 1.10394 cumulative IPC: 1.04349 (Simulation time: 5 hr 28 min 57 sec) 
Heartbeat CPU 2 instructions: 1890000001 cycles: 1393865021 heartbeat IPC: 1.6962 cumulative IPC: 1.2422 (Simulation time: 5 hr 29 min 2 sec) 
Heartbeat CPU 3 instructions: 1230000001 cycles: 1397019018 heartbeat IPC: 0.72317 cumulative IPC: 0.719596 (Simulation time: 5 hr 29 min 44 sec) 
Heartbeat CPU 2 instructions: 1900000000 cycles: 1399655061 heartbeat IPC: 1.7271 cumulative IPC: 1.24447 (Simulation time: 5 hr 30 min 20 sec) 
[...]
Heartbeat CPU 3 instructions: 2640000000 cycles: 3097247061 heartbeat IPC: 0.586946 cumulative IPC: 0.783161 (Simulation time: 11 hr 3 min 8 sec) 
Heartbeat CPU 0 instructions: 1160000000 cycles: 3100490972 heartbeat IPC: 0.313365 cumulative IPC: 0.326796 (Simulation time: 11 hr 3 min 45 sec) 
Heartbeat CPU 1 instructions: 3380000000 cycles: 3102601578 heartbeat IPC: 1.11293 cumulative IPC: 1.0423 (Simulation time: 11 hr 4 min 6 sec) 
Heartbeat CPU 2 instructions: 3960000000 cycles: 3111038515 heartbeat IPC: 0.714328 cumulative IPC: 1.22081 (Simulation time: 11 hr 5 min 34 sec) 
Heartbeat CPU 1 instructions: 3390000000 cycles: 3111517657 heartbeat IPC: 1.12157 cumulative IPC: 1.04254 (Simulation time: 11 hr 5 min 39 sec) 
Heartbeat CPU 3 instructions: 2650000000 cycles: 3114255056 heartbeat IPC: 0.587959 cumulative IPC: 0.782036 (Simulation time: 11 hr 6 min 8 sec) 
Heartbeat CPU 1 instructions: 3400000000 cycles: 3120415564 heartbeat IPC: 1.12386 cumulative IPC: 1.04278 (Simulation time: 11 hr 7 min 12 sec) 
Heartbeat CPU 0 instructions: 1170000000 cycles: 3125645010 heartbeat IPC: 0.39755 cumulative IPC: 0.327397 (Simulation time: 11 hr 8 min 6 sec) 
Heartbeat CPU 1 instructions: 3410000000 cycles: 3129322153 heartbeat IPC: 1.12276 cumulative IPC: 1.04302 (Simulation time: 11 hr 8 min 45 sec) 
Heartbeat CPU 2 instructions: 3970000003 cycles: 3129659538 heartbeat IPC: 0.537028 cumulative IPC: 1.21652 (Simulation time: 11 hr 8 min 48 sec) 
Heartbeat CPU 3 instructions: 2660000000 cycles: 3131029402 heartbeat IPC: 0.596148 cumulative IPC: 0.780985 (Simulation time: 11 hr 9 min 3 sec) 
Heartbeat CPU 1 instructions: 3420000000 cycles: 3138663217 heartbeat IPC: 1.07054 cumulative IPC: 1.04311 (Simulation time: 11 hr 10 min 21 sec) 
Heartbeat CPU 3 instructions: 2670000001 cycles: 3147838842 heartbeat IPC: 0.594904 cumulative IPC: 0.779938 (Simulation time: 11 hr 11 min 54 sec) 
Heartbeat CPU 2 instructions: 3980000000 cycles: 3148254609 heartbeat IPC: 0.537777 cumulative IPC: 1.21229 (Simulation time: 11 hr 11 min 58 sec) 
Heartbeat CPU 1 instructions: 3430000000 cycles: 3148468009 heartbeat IPC: 1.01991 cumulative IPC: 1.04303 (Simulation time: 11 hr 12 min 0 sec) 
Heartbeat CPU 0 instructions: 1180000000 cycles: 3150137635 heartbeat IPC: 0.408286 cumulative IPC: 0.32806 (Simulation time: 11 hr 12 min 17 sec) 
Heartbeat CPU 1 instructions: 3440000000 cycles: 3158275351 heartbeat IPC: 1.01964 cumulative IPC: 1.04296 (Simulation time: 11 hr 13 min 38 sec) 
Heartbeat CPU 2 instructions: 3990000003 cycles: 3166886991 heartbeat IPC: 0.5367 cumulative IPC: 1.2081 (Simulation time: 11 hr 14 min 50 sec) 
Heartbeat CPU 1 instructions: 3450000001 cycles: 3168103858 heartbeat IPC: 1.01745 cumulative IPC: 1.04287 (Simulation time: 11 hr 15 min 0 sec) 
Heartbeat CPU 3 instructions: 2680000000 cycles: 3175866163 heartbeat IPC: 0.356795 cumulative IPC: 0.776001 (Simulation time: 11 hr 16 min 8 sec) 
Heartbeat CPU 0 instructions: 1190000001 cycles: 3177140677 heartbeat IPC: 0.370329 cumulative IPC: 0.328439 (Simulation time: 11 hr 16 min 20 sec) 
Heartbeat CPU 1 instructions: 3460000000 cycles: 3177920161 heartbeat IPC: 1.01871 cumulative IPC: 1.0428 (Simulation time: 11 hr 16 min 28 sec) 
*** Reached end of trace for Core: 2 Repeating trace: /scratch/user/djimenez/champsim-traces/speccpu2006/xz//481.wrf-816B.champsimtrace.xz
Heartbeat CPU 2 instructions: 4000000000 cycles: 3185517688 heartbeat IPC: 0.536748 cumulative IPC: 1.20396 (Simulation time: 11 hr 17 min 45 sec) 
Heartbeat CPU 1 instructions: 3470000002 cycles: 3187409496 heartbeat IPC: 1.05381 cumulative IPC: 1.04283 (Simulation time: 11 hr 18 min 6 sec) 
Heartbeat CPU 3 instructions: 2690000000 cycles: 3192762432 heartbeat IPC: 0.591847 cumulative IPC: 0.774974 (Simulation time: 11 hr 19 min 8 sec) 
Heartbeat CPU 2 instructions: 4010000000 cycles: 3194230602 heartbeat IPC: 1.14772 cumulative IPC: 1.2038 (Simulation time: 11 hr 19 min 24 sec) 
Heartbeat CPU 1 instructions: 3480000000 cycles: 3196161755 heartbeat IPC: 1.14256 cumulative IPC: 1.04312 (Simulation time: 11 hr 19 min 46 sec) 
Heartbeat CPU 2 instructions: 4020000000 cycles: 3202224880 heartbeat IPC: 1.25089 cumulative IPC: 1.20392 (Simulation time: 11 hr 20 min 55 sec) 
Heartbeat CPU 1 instructions: 3490000003 cycles: 3205069096 heartbeat IPC: 1.12267 cumulative IPC: 1.04335 (Simulation time: 11 hr 21 min 27 sec) 
Heartbeat CPU 0 instructions: 1200000000 cycles: 3206651037 heartbeat IPC: 0.338864 cumulative IPC: 0.32854 (Simulation time: 11 hr 21 min 45 sec) 
Finished CPU 0 instructions: 1000000000 cycles: 3043771842 cumulative IPC: 0.32854 (Simulation time: 11 hr 21 min 45 sec) 

CPU 0 Branch Prediction Accuracy: 97.7449% MPKI: 4.1727

CPU 1 Branch Prediction Accuracy: 99.1463% MPKI: 0.204925

CPU 2 Branch Prediction Accuracy: 99.2481% MPKI: 0.351062

CPU 3 Branch Prediction Accuracy: 99.6349% MPKI: 0.0539101

ChampSim completed all CPUs

Total Simulation Statistics (not including warmup)

CPU 0 cumulative IPC: 0.32854 instructions: 1000000000 cycles: 3043771842
L1D TOTAL     ACCESS:  254785824  HIT:  221612493  MISS:   33173331
L1D LOAD      ACCESS:  147831328  HIT:  131926011  MISS:   15905317
L1D RFO       ACCESS:  106954496  HIT:   89686482  MISS:   17268014
L1D PREFETCH  ACCESS:          0  HIT:          0  MISS:          0
L1D WRITEBACK ACCESS:          0  HIT:          0  MISS:          0
L1I TOTAL     ACCESS:  282730980  HIT:  282710273  MISS:      20707
L1I LOAD      ACCESS:  282730980  HIT:  282710273  MISS:      20707
L1I RFO       ACCESS:          0  HIT:          0  MISS:          0
L1I PREFETCH  ACCESS:          0  HIT:          0  MISS:          0
L1I WRITEBACK ACCESS:          0  HIT:          0  MISS:          0
L2C TOTAL     ACCESS:   70206083  HIT:   33613000  MISS:   36593083
L2C LOAD      ACCESS:   15926007  HIT:    9611681  MISS:    6314326
L2C RFO       ACCESS:   17268012  HIT:     254232  MISS:   17013780
L2C PREFETCH  ACCESS:   17215126  HIT:    3954709  MISS:   13260417
L2C WRITEBACK ACCESS:   19796938  HIT:   19792378  MISS:       4560

Avg Lookahead Depth:	4.72839
TOTAL: 1.84111e+08	L2C: 1.60007e+08	LLC: 2.4104e+07	GOOD_L2C: 1.00418e+08
Printing all the perceptron weights to: perc_weights_0.csv
LLC TOTAL     ACCESS:   61809370  HIT:   35937468  MISS:   25871902
LLC LOAD      ACCESS:    5848487  HIT:    1615498  MISS:    4232989
LLC RFO       ACCESS:   16986579  HIT:   10713850  MISS:    6272729
LLC PREFETCH  ACCESS:   19225446  HIT:    3863879  MISS:   15361567
LLC WRITEBACK ACCESS:   19748858  HIT:   19744241  MISS:       4617

CPU 1 cumulative IPC: 1.04327 instructions: 3175479299 cycles: 3043771843
L1D TOTAL     ACCESS:  970116184  HIT:  935176447  MISS:   34939737
L1D LOAD      ACCESS:  889111163  HIT:  862828860  MISS:   26282303
L1D RFO       ACCESS:   81005021  HIT:   72347587  MISS:    8657434
L1D PREFETCH  ACCESS:          0  HIT:          0  MISS:          0
L1D WRITEBACK ACCESS:          0  HIT:          0  MISS:          0
L1I TOTAL     ACCESS:  743962955  HIT:  743960561  MISS:       2394
L1I LOAD      ACCESS:  743962955  HIT:  743960561  MISS:       2394
L1I RFO       ACCESS:          0  HIT:          0  MISS:          0
L1I PREFETCH  ACCESS:          0  HIT:          0  MISS:          0
L1I WRITEBACK ACCESS:          0  HIT:          0  MISS:          0
L2C TOTAL     ACCESS:   82570059  HIT:   56510309  MISS:   26059750
L2C LOAD      ACCESS:   26284568  HIT:   25379852  MISS:     904716
L2C RFO       ACCESS:    8649370  HIT:    2936655  MISS:    5712715
L2C PREFETCH  ACCESS:   36346297  HIT:   16915135  MISS:   19431162
L2C WRITEBACK ACCESS:   11289824  HIT:   11278667  MISS:      11157

Avg Lookahead Depth:	4.72839
TOTAL: 1.84111e+08	L2C: 1.60007e+08	LLC: 2.4104e+07	GOOD_L2C: 1.00418e+08
Printing all the perceptron weights to: perc_weights_0.csv
LLC TOTAL     ACCESS:   35766443  HIT:   13500646  MISS:   22265797
LLC LOAD      ACCESS:     762051  HIT:     302338  MISS:     459713
LLC RFO       ACCESS:    5712582  HIT:     501408  MISS:    5211174
LLC PREFETCH  ACCESS:   21946589  HIT:    5375674  MISS:   16570915
LLC WRITEBACK ACCESS:    7345221  HIT:    7321226  MISS:      23995

CPU 2 cumulative IPC: 1.20408 instructions: 3664955121 cycles: 3043771843
L1D TOTAL     ACCESS:  982417422  HIT:  944881849  MISS:   37535573
L1D LOAD      ACCESS:  783674298  HIT:  751649822  MISS:   32024476
L1D RFO       ACCESS:  198743124  HIT:  193232027  MISS:    5511097
L1D PREFETCH  ACCESS:          0  HIT:          0  MISS:          0
L1D WRITEBACK ACCESS:          0  HIT:          0  MISS:          0
L1I TOTAL     ACCESS:  858023301  HIT:  858014387  MISS:       8914
L1I LOAD      ACCESS:  858023301  HIT:  858014387  MISS:       8914
L1I RFO       ACCESS:          0  HIT:          0  MISS:          0
L1I PREFETCH  ACCESS:          0  HIT:          0  MISS:          0
L1I WRITEBACK ACCESS:          0  HIT:          0  MISS:          0
L2C TOTAL     ACCESS:   89672559  HIT:   63468625  MISS:   26203934
L2C LOAD      ACCESS:   32033205  HIT:   30401647  MISS:    1631558
L2C RFO       ACCESS:    5511072  HIT:    2379957  MISS:    3131115
L2C PREFETCH  ACCESS:   39951256  HIT:   18515989  MISS:   21435267
L2C WRITEBACK ACCESS:   12177026  HIT:   12171032  MISS:       5994

Avg Lookahead Depth:	4.72839
TOTAL: 1.84111e+08	L2C: 1.60007e+08	LLC: 2.4104e+07	GOOD_L2C: 1.00418e+08
Printing all the perceptron weights to: perc_weights_0.csv
LLC TOTAL     ACCESS:   35974595  HIT:   11861130  MISS:   24113465
LLC LOAD      ACCESS:    1313913  HIT:     263343  MISS:    1050570
LLC RFO       ACCESS:    3130879  HIT:     577456  MISS:    2553423
LLC PREFETCH  ACCESS:   22975512  HIT:    2530252  MISS:   20445260
LLC WRITEBACK ACCESS:    8554291  HIT:    8490079  MISS:      64212

CPU 3 cumulative IPC: 0.77407 instructions: 2356092049 cycles: 3043771843
L1D TOTAL     ACCESS: 1078628312  HIT: 1038578644  MISS:   40049668
L1D LOAD      ACCESS:  917481390  HIT:  877598085  MISS:   39883305
L1D RFO       ACCESS:  161146922  HIT:  160980559  MISS:     166363
L1D PREFETCH  ACCESS:          0  HIT:          0  MISS:          0
L1D WRITEBACK ACCESS:          0  HIT:          0  MISS:          0
L1I TOTAL     ACCESS:  581497169  HIT:  581495987  MISS:       1182
L1I LOAD      ACCESS:  581497169  HIT:  581495987  MISS:       1182
L1I RFO       ACCESS:          0  HIT:          0  MISS:          0
L1I PREFETCH  ACCESS:          0  HIT:          0  MISS:          0
L1I WRITEBACK ACCESS:          0  HIT:          0  MISS:          0
L2C TOTAL     ACCESS:  105832710  HIT:   65909760  MISS:   39922950
L2C LOAD      ACCESS:   39882799  HIT:   35848523  MISS:    4034276
L2C RFO       ACCESS:     166181  HIT:       6556  MISS:     159625
L2C PREFETCH  ACCESS:   50639115  HIT:   14913007  MISS:   35726108
L2C WRITEBACK ACCESS:   15144615  HIT:   15141674  MISS:       2941

Avg Lookahead Depth:	4.72839
TOTAL: 1.84111e+08	L2C: 1.60007e+08	LLC: 2.4104e+07	GOOD_L2C: 1.00418e+08
Printing all the perceptron weights to: perc_weights_0.csv
LLC TOTAL     ACCESS:   59916744  HIT:   27663801  MISS:   32252943
LLC LOAD      ACCESS:    3691570  HIT:    1037249  MISS:    2654321
LLC RFO       ACCESS:     159623  HIT:     106976  MISS:      52647
LLC PREFETCH  ACCESS:   41368839  HIT:   11837626  MISS:   29531213
LLC WRITEBACK ACCESS:   14696712  HIT:   14681950  MISS:      14762

Region of Interest Statistics

CPU 0 cumulative IPC: 0.32854 instructions: 1000000000 cycles: 3043771842
L1D TOTAL     ACCESS:  254785824  HIT:  221612493  MISS:   33173331
L1D LOAD      ACCESS:  147831328  HIT:  131926011  MISS:   15905317
L1D RFO       ACCESS:  106954496  HIT:   89686482  MISS:   17268014
L1D PREFETCH  ACCESS:          0  HIT:          0  MISS:          0
L1D WRITEBACK ACCESS:          0  HIT:          0  MISS:          0
L1D PREFETCH  REQUESTED:          0  ISSUED:          0  USEFUL:          0  USELESS:          0
L1I TOTAL     ACCESS:  282730980  HIT:  282710273  MISS:      20707
L1I LOAD      ACCESS:  282730980  HIT:  282710273  MISS:      20707
L1I RFO       ACCESS:          0  HIT:          0  MISS:          0
L1I PREFETCH  ACCESS:          0  HIT:          0  MISS:          0
L1I WRITEBACK ACCESS:          0  HIT:          0  MISS:          0
L1I PREFETCH  REQUESTED:          0  ISSUED:          0  USEFUL:          0  USELESS:          0
L2C TOTAL     ACCESS:   70206083  HIT:   33613000  MISS:   36593083
L2C LOAD      ACCESS:   15926007  HIT:    9611681  MISS:    6314326
L2C RFO       ACCESS:   17268012  HIT:     254232  MISS:   17013780
L2C PREFETCH  ACCESS:   17215126  HIT:    3954709  MISS:   13260417
L2C WRITEBACK ACCESS:   19796938  HIT:   19792378  MISS:       4560
L2C PREFETCH  REQUESTED:   24485952  ISSUED:   24485786  USEFUL:    8857944  USELESS:    4477593
LLC TOTAL     ACCESS:   61809370  HIT:   35937468  MISS:   25871902
LLC LOAD      ACCESS:    5848487  HIT:    1615498  MISS:    4232989
LLC RFO       ACCESS:   16986579  HIT:   10713850  MISS:    6272729
LLC PREFETCH  ACCESS:   19225446  HIT:    3863879  MISS:   15361567
LLC WRITEBACK ACCESS:   19748858  HIT:   19744241  MISS:       4617
LLC PREFETCH  REQUESTED:          0  ISSUED:          0  USEFUL:    1959845  USELESS:   88083510
Major fault: 0 Minor fault: 35063

CPU 1 cumulative IPC: 1.03964 instructions: 1000000000 cycles: 961871473
L1D TOTAL     ACCESS:  307076170  HIT:  296080992  MISS:   10995178
L1D LOAD      ACCESS:  281927728  HIT:  273659388  MISS:    8268340
L1D RFO       ACCESS:   25148442  HIT:   22421604  MISS:    2726838
L1D PREFETCH  ACCESS:          0  HIT:          0  MISS:          0
L1D WRITEBACK ACCESS:          0  HIT:          0  MISS:          0
L1D PREFETCH  REQUESTED:          0  ISSUED:          0  USEFUL:          0  USELESS:          0
L1I TOTAL     ACCESS:  233699632  HIT:  233698927  MISS:        705
L1I LOAD      ACCESS:  233699632  HIT:  233698927  MISS:        705
L1I RFO       ACCESS:          0  HIT:          0  MISS:          0
L1I PREFETCH  ACCESS:          0  HIT:          0  MISS:          0
L1I WRITEBACK ACCESS:          0  HIT:          0  MISS:          0
L1I PREFETCH  REQUESTED:          0  ISSUED:          0  USEFUL:          0  USELESS:          0
L2C TOTAL     ACCESS:   25840629  HIT:   17537699  MISS:    8302930
L2C LOAD      ACCESS:    8269010  HIT:    7973287  MISS:     295723
L2C RFO       ACCESS:    2724555  HIT:     898807  MISS:    1825748
L2C PREFETCH  ACCESS:   11295387  HIT:    5117455  MISS:    6177932
L2C WRITEBACK ACCESS:    3551677  HIT:    3548150  MISS:       3527
L2C PREFETCH  REQUESTED:   43504250  ISSUED:   43380147  USEFUL:   20125093  USELESS:     725854
LLC TOTAL     ACCESS:   11507762  HIT:    4356344  MISS:    7151418
LLC LOAD      ACCESS:     238113  HIT:      94669  MISS:     143444
LLC RFO       ACCESS:    1825703  HIT:     165858  MISS:    1659845
LLC PREFETCH  ACCESS:    7083174  HIT:    1742942  MISS:    5340232
LLC WRITEBACK ACCESS:    2360772  HIT:    2352875  MISS:       7897
LLC PREFETCH  REQUESTED:          0  ISSUED:          0  USEFUL:    1959845  USELESS:   88083510
Major fault: 0 Minor fault: 19885

CPU 2 cumulative IPC: 1.12002 instructions: 1000000000 cycles: 892842549
L1D TOTAL     ACCESS:  303748887  HIT:  292936235  MISS:   10812652
L1D LOAD      ACCESS:  241532012  HIT:  231935789  MISS:    9596223
L1D RFO       ACCESS:   62216875  HIT:   61000446  MISS:    1216429
L1D PREFETCH  ACCESS:          0  HIT:          0  MISS:          0
L1D WRITEBACK ACCESS:          0  HIT:          0  MISS:          0
L1D PREFETCH  REQUESTED:          0  ISSUED:          0  USEFUL:          0  USELESS:          0
L1I TOTAL     ACCESS:  241805340  HIT:  241802355  MISS:       2985
L1I LOAD      ACCESS:  241805340  HIT:  241802355  MISS:       2985
L1I RFO       ACCESS:          0  HIT:          0  MISS:          0
L1I PREFETCH  ACCESS:          0  HIT:          0  MISS:          0
L1I WRITEBACK ACCESS:          0  HIT:          0  MISS:          0
L1I PREFETCH  REQUESTED:          0  ISSUED:          0  USEFUL:          0  USELESS:          0
L2C TOTAL     ACCESS:   25873368  HIT:   18380182  MISS:    7493186
L2C LOAD      ACCESS:    9599163  HIT:    9019455  MISS:     579708
L2C RFO       ACCESS:    1216428  HIT:     705088  MISS:     511340
L2C PREFETCH  ACCESS:   11895824  HIT:    5496049  MISS:    6399775
L2C WRITEBACK ACCESS:    3161953  HIT:    3159590  MISS:       2363
L2C PREFETCH  REQUESTED:   47166005  ISSUED:   47149190  USEFUL:   23206345  USELESS:     685149
LLC TOTAL     ACCESS:    9977579  HIT:    3177976  MISS:    6799603
LLC LOAD      ACCESS:     481439  HIT:     108664  MISS:     372775
LLC RFO       ACCESS:     511271  HIT:     145589  MISS:     365682
LLC PREFETCH  ACCESS:    7010929  HIT:     965607  MISS:    6045322
LLC WRITEBACK ACCESS:    1973940  HIT:    1958116  MISS:      15824
LLC PREFETCH  REQUESTED:          0  ISSUED:          0  USEFUL:    1959845  USELESS:   88083510
Major fault: 0 Minor fault: 33410

CPU 3 cumulative IPC: 0.712199 instructions: 1000000002 cycles: 1404102156
L1D TOTAL     ACCESS:  510044752  HIT:  498287616  MISS:   11757136
L1D LOAD      ACCESS:  442052095  HIT:  430456591  MISS:   11595504
L1D RFO       ACCESS:   67992657  HIT:   67831025  MISS:     161632
L1D PREFETCH  ACCESS:          0  HIT:          0  MISS:          0
L1D WRITEBACK ACCESS:          0  HIT:          0  MISS:          0
L1D PREFETCH  REQUESTED:          0  ISSUED:          0  USEFUL:          0  USELESS:          0
L1I TOTAL     ACCESS:  266611204  HIT:  266610622  MISS:        582
L1I LOAD      ACCESS:  266611204  HIT:  266610622  MISS:        582
L1I RFO       ACCESS:          0  HIT:          0  MISS:          0
L1I PREFETCH  ACCESS:          0  HIT:          0  MISS:          0
L1I WRITEBACK ACCESS:          0  HIT:          0  MISS:          0
L1I PREFETCH  REQUESTED:          0  ISSUED:          0  USEFUL:          0  USELESS:          0
L2C TOTAL     ACCESS:   33136182  HIT:   21168213  MISS:   11967969
L2C LOAD      ACCESS:   11595026  HIT:   10367929  MISS:    1227097
L2C RFO       ACCESS:     161499  HIT:       5922  MISS:     155577
L2C PREFETCH  ACCESS:   16286218  HIT:    5701528  MISS:   10584690
L2C WRITEBACK ACCESS:    5093439  HIT:    5092834  MISS:        605
L2C PREFETCH  REQUESTED:   68954627  ISSUED:   68942792  USEFUL:   37179302  USELESS:    4669400
LLC TOTAL     ACCESS:   19564472  HIT:    9327209  MISS:   10237263
LLC LOAD      ACCESS:    1110801  HIT:     282398  MISS:     828403
LLC RFO       ACCESS:     155575  HIT:     103571  MISS:      52004
LLC PREFETCH  ACCESS:   13240756  HIT:    3894493  MISS:    9346263
LLC WRITEBACK ACCESS:    5057340  HIT:    5046747  MISS:      10593
LLC PREFETCH  REQUESTED:          0  ISSUED:          0  USEFUL:    1959845  USELESS:   88083510
Major fault: 0 Minor fault: 185356

Avg Lookahead Depth:	4.72839
TOTAL: 1.84111e+08	L2C: 1.60007e+08	LLC: 2.4104e+07	GOOD_L2C: 1.00418e+08
Printing all the perceptron weights to: perc_weights_0.csv

Avg Lookahead Depth:	4.72839
TOTAL: 1.84111e+08	L2C: 1.60007e+08	LLC: 2.4104e+07	GOOD_L2C: 1.00418e+08
Printing all the perceptron weights to: perc_weights_0.csv

Avg Lookahead Depth:	4.72839
TOTAL: 1.84111e+08	L2C: 1.60007e+08	LLC: 2.4104e+07	GOOD_L2C: 1.00418e+08
Printing all the perceptron weights to: perc_weights_0.csv

Avg Lookahead Depth:	4.72839
TOTAL: 1.84111e+08	L2C: 1.60007e+08	LLC: 2.4104e+07	GOOD_L2C: 1.00418e+08
Printing all the perceptron weights to: perc_weights_0.csv

DRAM Statistics
 CHANNEL 0
 RQ ROW_BUFFER_HIT:   15240287  ROW_BUFFER_MISS:   37170432
 DBUS_CONGESTED:   88442345
 WQ ROW_BUFFER_HIT:    1931970  ROW_BUFFER_MISS:   17031668  FULL:          0

 CHANNEL 1
 RQ ROW_BUFFER_HIT:   15039522  ROW_BUFFER_MISS:   36943912
 DBUS_CONGESTED:   88442345
 WQ ROW_BUFFER_HIT:    1940151  ROW_BUFFER_MISS:   17021805  FULL:          0

 AVG_CONGESTED_CYCLE: 13
