Initialize SIGNATURE TABLE
ST_SET: 1
ST_WAY: 256
ST_TAG_BIT: 16
ST_TAG_MASK: ffff

Initialize PATTERN TABLE
PT_SET: 512
PT_WAY: 4
SIG_DELTA_BIT: 7
C_SIG_BIT: 4
C_DELTA_BIT: 4

Initialize PREFETCH FILTER
FILTER_SET: 1024

Initialize PERCEPTRON
PERC_ENTRIES: 4096
PERC_FEATURES: 9

*** ChampSim Multicore Out-of-Order Simulator ***

Warmup Instructions: 200000000
Simulation Instructions: 1000000000
Number of CPUs: 4
LLC sets: 8192
LLC ways: 16
Off-chip DRAM Size: 8192 MB Channels: 2 Width: 64-bit Data Rate: 1600 MT/s

CPU 0 runs /scratch/user/djimenez/champsim-traces/speccpu2006/xz//434.zeusmp-10B.champsimtrace.xz
CPU 1 runs /scratch/user/djimenez/champsim-traces/speccpu2006/xz//459.GemsFDTD-1320B.champsimtrace.xz
CPU 2 runs /scratch/user/djimenez/champsim-traces/speccpu2006/xz//459.GemsFDTD-1491B.champsimtrace.xz
CPU 3 runs /scratch/user/djimenez/champsim-traces/speccpu2006/xz//459.GemsFDTD-1418B.champsimtrace.xz
Heartbeat CPU 0 instructions: 10000003 cycles: 4298562 heartbeat IPC: 2.32636 cumulative IPC: 2.32636 (Simulation time: 0 hr 1 min 36 sec) 
Heartbeat CPU 2 instructions: 10000003 cycles: 4431387 heartbeat IPC: 2.25663 cumulative IPC: 2.25663 (Simulation time: 0 hr 1 min 39 sec) 
Heartbeat CPU 1 instructions: 10000000 cycles: 6687327 heartbeat IPC: 1.49537 cumulative IPC: 1.49537 (Simulation time: 0 hr 2 min 29 sec) 
Heartbeat CPU 3 instructions: 10000003 cycles: 7881002 heartbeat IPC: 1.26887 cumulative IPC: 1.26887 (Simulation time: 0 hr 2 min 56 sec) 
Heartbeat CPU 0 instructions: 20000000 cycles: 8670819 heartbeat IPC: 2.28715 cumulative IPC: 2.30659 (Simulation time: 0 hr 3 min 13 sec) 
Heartbeat CPU 2 instructions: 20000000 cycles: 8863139 heartbeat IPC: 2.25644 cumulative IPC: 2.25654 (Simulation time: 0 hr 3 min 18 sec) 
Heartbeat CPU 0 instructions: 30000001 cycles: 13041367 heartbeat IPC: 2.28804 cumulative IPC: 2.30037 (Simulation time: 0 hr 4 min 50 sec) 
Heartbeat CPU 2 instructions: 30000002 cycles: 13294847 heartbeat IPC: 2.25647 cumulative IPC: 2.25651 (Simulation time: 0 hr 4 min 56 sec) 
Heartbeat CPU 1 instructions: 20000000 cycles: 13426204 heartbeat IPC: 1.48393 cumulative IPC: 1.48962 (Simulation time: 0 hr 4 min 59 sec) 
Heartbeat CPU 3 instructions: 20000000 cycles: 15761096 heartbeat IPC: 1.26902 cumulative IPC: 1.26895 (Simulation time: 0 hr 5 min 50 sec) 
Heartbeat CPU 0 instructions: 40000000 cycles: 17338766 heartbeat IPC: 2.32699 cumulative IPC: 2.30697 (Simulation time: 0 hr 6 min 25 sec) 
Heartbeat CPU 2 instructions: 40000000 cycles: 17726692 heartbeat IPC: 2.2564 cumulative IPC: 2.25648 (Simulation time: 0 hr 6 min 34 sec) 
Heartbeat CPU 1 instructions: 30000000 cycles: 20172832 heartbeat IPC: 1.48222 cumulative IPC: 1.48715 (Simulation time: 0 hr 7 min 28 sec) 
Heartbeat CPU 0 instructions: 50000000 cycles: 21709682 heartbeat IPC: 2.28785 cumulative IPC: 2.30312 (Simulation time: 0 hr 8 min 2 sec) 
Heartbeat CPU 2 instructions: 50000003 cycles: 22158647 heartbeat IPC: 2.25634 cumulative IPC: 2.25646 (Simulation time: 0 hr 8 min 12 sec) 
Heartbeat CPU 3 instructions: 30000002 cycles: 23641584 heartbeat IPC: 1.26896 cumulative IPC: 1.26895 (Simulation time: 0 hr 8 min 45 sec) 
Heartbeat CPU 0 instructions: 60000000 cycles: 26061175 heartbeat IPC: 2.29806 cumulative IPC: 2.30228 (Simulation time: 0 hr 9 min 38 sec) 
Heartbeat CPU 2 instructions: 60000000 cycles: 26590505 heartbeat IPC: 2.25639 cumulative IPC: 2.25644 (Simulation time: 0 hr 9 min 50 sec) 
Heartbeat CPU 1 instructions: 40000000 cycles: 26894811 heartbeat IPC: 1.48766 cumulative IPC: 1.48728 (Simulation time: 0 hr 9 min 57 sec) 
Heartbeat CPU 0 instructions: 70000000 cycles: 30337010 heartbeat IPC: 2.33872 cumulative IPC: 2.30741 (Simulation time: 0 hr 11 min 14 sec) 
Heartbeat CPU 2 instructions: 70000003 cycles: 31021888 heartbeat IPC: 2.25663 cumulative IPC: 2.25647 (Simulation time: 0 hr 11 min 29 sec) 
Heartbeat CPU 3 instructions: 40000000 cycles: 31549954 heartbeat IPC: 1.26448 cumulative IPC: 1.26783 (Simulation time: 0 hr 11 min 41 sec) 
Heartbeat CPU 1 instructions: 50000003 cycles: 33536184 heartbeat IPC: 1.50571 cumulative IPC: 1.49093 (Simulation time: 0 hr 12 min 26 sec) 
Heartbeat CPU 0 instructions: 80000000 cycles: 34662301 heartbeat IPC: 2.31198 cumulative IPC: 2.30798 (Simulation time: 0 hr 12 min 51 sec) 
Heartbeat CPU 2 instructions: 80000000 cycles: 35453550 heartbeat IPC: 2.25649 cumulative IPC: 2.25647 (Simulation time: 0 hr 13 min 9 sec) 
Heartbeat CPU 0 instructions: 90000001 cycles: 38977772 heartbeat IPC: 2.31724 cumulative IPC: 2.30901 (Simulation time: 0 hr 14 min 28 sec) 
Heartbeat CPU 3 instructions: 50000002 cycles: 39484740 heartbeat IPC: 1.26027 cumulative IPC: 1.26631 (Simulation time: 0 hr 14 min 40 sec) 
Heartbeat CPU 2 instructions: 90000000 cycles: 39885155 heartbeat IPC: 2.25652 cumulative IPC: 2.25648 (Simulation time: 0 hr 14 min 49 sec) 
Heartbeat CPU 1 instructions: 60000000 cycles: 40110737 heartbeat IPC: 1.52102 cumulative IPC: 1.49586 (Simulation time: 0 hr 14 min 54 sec) 
Heartbeat CPU 0 instructions: 100000000 cycles: 43240087 heartbeat IPC: 2.34614 cumulative IPC: 2.31267 (Simulation time: 0 hr 16 min 5 sec) 
Heartbeat CPU 2 instructions: 100000000 cycles: 44316279 heartbeat IPC: 2.25676 cumulative IPC: 2.25651 (Simulation time: 0 hr 16 min 29 sec) 
Heartbeat CPU 1 instructions: 70000003 cycles: 46686081 heartbeat IPC: 1.52083 cumulative IPC: 1.49938 (Simulation time: 0 hr 17 min 23 sec) 
Heartbeat CPU 3 instructions: 60000000 cycles: 47420367 heartbeat IPC: 1.26014 cumulative IPC: 1.26528 (Simulation time: 0 hr 17 min 39 sec) 
Heartbeat CPU 0 instructions: 110000001 cycles: 47548622 heartbeat IPC: 2.32097 cumulative IPC: 2.31342 (Simulation time: 0 hr 17 min 42 sec) 
Heartbeat CPU 2 instructions: 110000003 cycles: 48747759 heartbeat IPC: 2.25658 cumulative IPC: 2.25651 (Simulation time: 0 hr 18 min 9 sec) 
Heartbeat CPU 0 instructions: 120000000 cycles: 51851218 heartbeat IPC: 2.32418 cumulative IPC: 2.31431 (Simulation time: 0 hr 19 min 19 sec) 
Heartbeat CPU 2 instructions: 120000000 cycles: 53179136 heartbeat IPC: 2.25663 cumulative IPC: 2.25652 (Simulation time: 0 hr 19 min 48 sec) 
Heartbeat CPU 1 instructions: 80000000 cycles: 53344409 heartbeat IPC: 1.50188 cumulative IPC: 1.49969 (Simulation time: 0 hr 19 min 52 sec) 
Heartbeat CPU 3 instructions: 70000001 cycles: 55354613 heartbeat IPC: 1.26036 cumulative IPC: 1.26457 (Simulation time: 0 hr 20 min 37 sec) 
Heartbeat CPU 0 instructions: 130000001 cycles: 56107839 heartbeat IPC: 2.34928 cumulative IPC: 2.31697 (Simulation time: 0 hr 20 min 54 sec) 
Heartbeat CPU 2 instructions: 130000000 cycles: 57610885 heartbeat IPC: 2.25645 cumulative IPC: 2.25652 (Simulation time: 0 hr 21 min 27 sec) 
Heartbeat CPU 1 instructions: 90000001 cycles: 60035347 heartbeat IPC: 1.49456 cumulative IPC: 1.49912 (Simulation time: 0 hr 22 min 21 sec) 
Heartbeat CPU 0 instructions: 140000000 cycles: 60405985 heartbeat IPC: 2.32658 cumulative IPC: 2.31765 (Simulation time: 0 hr 22 min 29 sec) 
Heartbeat CPU 2 instructions: 140000000 cycles: 62042793 heartbeat IPC: 2.25636 cumulative IPC: 2.25651 (Simulation time: 0 hr 23 min 5 sec) 
Heartbeat CPU 3 instructions: 80000000 cycles: 63294166 heartbeat IPC: 1.25952 cumulative IPC: 1.26394 (Simulation time: 0 hr 23 min 33 sec) 
Heartbeat CPU 0 instructions: 150000000 cycles: 64703995 heartbeat IPC: 2.32666 cumulative IPC: 2.31825 (Simulation time: 0 hr 24 min 4 sec) 
Heartbeat CPU 2 instructions: 150000000 cycles: 66474725 heartbeat IPC: 2.25635 cumulative IPC: 2.2565 (Simulation time: 0 hr 24 min 43 sec) 
Heartbeat CPU 1 instructions: 100000000 cycles: 66779025 heartbeat IPC: 1.48287 cumulative IPC: 1.49748 (Simulation time: 0 hr 24 min 50 sec) 
Heartbeat CPU 0 instructions: 160000000 cycles: 68959049 heartbeat IPC: 2.35015 cumulative IPC: 2.32022 (Simulation time: 0 hr 25 min 38 sec) 
Heartbeat CPU 2 instructions: 160000000 cycles: 70906463 heartbeat IPC: 2.25645 cumulative IPC: 2.25649 (Simulation time: 0 hr 26 min 21 sec) 
Heartbeat CPU 3 instructions: 90000003 cycles: 71225235 heartbeat IPC: 1.26086 cumulative IPC: 1.2636 (Simulation time: 0 hr 26 min 28 sec) 
Heartbeat CPU 0 instructions: 170000001 cycles: 73260065 heartbeat IPC: 2.32503 cumulative IPC: 2.3205 (Simulation time: 0 hr 27 min 13 sec) 
Heartbeat CPU 1 instructions: 110000001 cycles: 73522203 heartbeat IPC: 1.48298 cumulative IPC: 1.49615 (Simulation time: 0 hr 27 min 18 sec) 
Heartbeat CPU 2 instructions: 170000001 cycles: 75338285 heartbeat IPC: 2.25641 cumulative IPC: 2.25649 (Simulation time: 0 hr 27 min 58 sec) 
Heartbeat CPU 0 instructions: 180000000 cycles: 77560057 heartbeat IPC: 2.32559 cumulative IPC: 2.32078 (Simulation time: 0 hr 28 min 47 sec) 
Heartbeat CPU 3 instructions: 100000000 cycles: 79161204 heartbeat IPC: 1.26009 cumulative IPC: 1.26325 (Simulation time: 0 hr 29 min 23 sec) 
Heartbeat CPU 2 instructions: 180000000 cycles: 79769503 heartbeat IPC: 2.25672 cumulative IPC: 2.2565 (Simulation time: 0 hr 29 min 36 sec) 
Heartbeat CPU 1 instructions: 120000000 cycles: 80244021 heartbeat IPC: 1.48769 cumulative IPC: 1.49544 (Simulation time: 0 hr 29 min 47 sec) 
Heartbeat CPU 0 instructions: 190000003 cycles: 81812206 heartbeat IPC: 2.35175 cumulative IPC: 2.32239 (Simulation time: 0 hr 30 min 22 sec) 
Heartbeat CPU 2 instructions: 190000000 cycles: 84201254 heartbeat IPC: 2.25644 cumulative IPC: 2.2565 (Simulation time: 0 hr 31 min 17 sec) 
Heartbeat CPU 1 instructions: 130000002 cycles: 84603806 heartbeat IPC: 2.29369 cumulative IPC: 1.53657 (Simulation time: 0 hr 31 min 27 sec) 
Heartbeat CPU 0 instructions: 200000000 cycles: 86118133 heartbeat IPC: 2.32238 cumulative IPC: 2.32239 (Simulation time: 0 hr 32 min 2 sec) 
Heartbeat CPU 3 instructions: 110000001 cycles: 87101348 heartbeat IPC: 1.25942 cumulative IPC: 1.2629 (Simulation time: 0 hr 32 min 25 sec) 
Heartbeat CPU 1 instructions: 140000000 cycles: 88299523 heartbeat IPC: 2.70583 cumulative IPC: 1.58551 (Simulation time: 0 hr 32 min 53 sec) 
Heartbeat CPU 2 instructions: 200000000 cycles: 88633005 heartbeat IPC: 2.25644 cumulative IPC: 2.2565 (Simulation time: 0 hr 33 min 1 sec) 
Heartbeat CPU 0 instructions: 210000000 cycles: 90427782 heartbeat IPC: 2.32037 cumulative IPC: 0.110585 (Simulation time: 0 hr 33 min 42 sec) 
Heartbeat CPU 1 instructions: 150000001 cycles: 91991392 heartbeat IPC: 2.70866 cumulative IPC: 1.63059 (Simulation time: 0 hr 34 min 19 sec) 
Heartbeat CPU 2 instructions: 210000001 cycles: 93064727 heartbeat IPC: 2.25646 cumulative IPC: 0.107452 (Simulation time: 0 hr 34 min 44 sec) 
Heartbeat CPU 0 instructions: 220000000 cycles: 94694372 heartbeat IPC: 2.34379 cumulative IPC: 0.211206 (Simulation time: 0 hr 35 min 22 sec) 
Heartbeat CPU 3 instructions: 120000000 cycles: 95031756 heartbeat IPC: 1.26097 cumulative IPC: 1.26274 (Simulation time: 0 hr 35 min 30 sec) 
Heartbeat CPU 1 instructions: 160000000 cycles: 95684797 heartbeat IPC: 2.70753 cumulative IPC: 1.67216 (Simulation time: 0 hr 35 min 45 sec) 
Heartbeat CPU 2 instructions: 220000000 cycles: 97496781 heartbeat IPC: 2.25629 cumulative IPC: 0.205135 (Simulation time: 0 hr 36 min 28 sec) 
Heartbeat CPU 0 instructions: 230000001 cycles: 99015323 heartbeat IPC: 2.31431 cumulative IPC: 0.302983 (Simulation time: 0 hr 37 min 3 sec) 
Heartbeat CPU 1 instructions: 170000003 cycles: 99380378 heartbeat IPC: 2.70594 cumulative IPC: 1.7106 (Simulation time: 0 hr 37 min 12 sec) 
Heartbeat CPU 2 instructions: 230000003 cycles: 101928589 heartbeat IPC: 2.25642 cumulative IPC: 0.294324 (Simulation time: 0 hr 38 min 11 sec) 
Heartbeat CPU 3 instructions: 130000003 cycles: 102969232 heartbeat IPC: 1.25985 cumulative IPC: 1.26251 (Simulation time: 0 hr 38 min 35 sec) 
Heartbeat CPU 1 instructions: 180000000 cycles: 103072778 heartbeat IPC: 2.70826 cumulative IPC: 1.74634 (Simulation time: 0 hr 38 min 37 sec) 
Heartbeat CPU 0 instructions: 240000000 cycles: 103348640 heartbeat IPC: 2.3077 cumulative IPC: 0.387039 (Simulation time: 0 hr 38 min 44 sec) 
Heartbeat CPU 2 instructions: 240000000 cycles: 106360347 heartbeat IPC: 2.25644 cumulative IPC: 0.37608 (Simulation time: 0 hr 39 min 54 sec) 
Heartbeat CPU 1 instructions: 190000001 cycles: 106765093 heartbeat IPC: 2.70833 cumulative IPC: 1.77961 (Simulation time: 0 hr 40 min 3 sec) 
Heartbeat CPU 0 instructions: 250000000 cycles: 107629347 heartbeat IPC: 2.33606 cumulative IPC: 0.464557 (Simulation time: 0 hr 40 min 23 sec) 
Heartbeat CPU 1 instructions: 200000000 cycles: 110457969 heartbeat IPC: 2.70792 cumulative IPC: 1.81064 (Simulation time: 0 hr 41 min 29 sec) 
Heartbeat CPU 2 instructions: 250000002 cycles: 110792264 heartbeat IPC: 2.25636 cumulative IPC: 0.451295 (Simulation time: 0 hr 41 min 37 sec) 
Heartbeat CPU 3 instructions: 140000000 cycles: 110795210 heartbeat IPC: 1.2778 cumulative IPC: 1.26359 (Simulation time: 0 hr 41 min 37 sec) 
Heartbeat CPU 0 instructions: 260000000 cycles: 111998149 heartbeat IPC: 2.28896 cumulative IPC: 0.535723 (Simulation time: 0 hr 42 min 5 sec) 
Heartbeat CPU 1 instructions: 210000000 cycles: 114154394 heartbeat IPC: 2.70532 cumulative IPC: 0.0876007 (Simulation time: 0 hr 42 min 55 sec) 
Heartbeat CPU 2 instructions: 260000000 cycles: 115224060 heartbeat IPC: 2.25642 cumulative IPC: 0.520725 (Simulation time: 0 hr 43 min 20 sec) 
Heartbeat CPU 0 instructions: 270000001 cycles: 116370800 heartbeat IPC: 2.28694 cumulative IPC: 0.601525 (Simulation time: 0 hr 43 min 46 sec) 
Heartbeat CPU 1 instructions: 220000000 cycles: 117845493 heartbeat IPC: 2.70922 cumulative IPC: 0.169714 (Simulation time: 0 hr 44 min 21 sec) 
Heartbeat CPU 3 instructions: 150000003 cycles: 118550811 heartbeat IPC: 1.28939 cumulative IPC: 1.26528 (Simulation time: 0 hr 44 min 37 sec) 
Heartbeat CPU 2 instructions: 270000003 cycles: 119655678 heartbeat IPC: 2.25651 cumulative IPC: 0.585012 (Simulation time: 0 hr 45 min 3 sec) 
Heartbeat CPU 0 instructions: 280000000 cycles: 120667763 heartbeat IPC: 2.32722 cumulative IPC: 0.662977 (Simulation time: 0 hr 45 min 27 sec) 
Heartbeat CPU 1 instructions: 230000002 cycles: 121538939 heartbeat IPC: 2.7075 cumulative IPC: 0.246834 (Simulation time: 0 hr 45 min 47 sec) 
Heartbeat CPU 2 instructions: 280000000 cycles: 124087114 heartbeat IPC: 2.2566 cumulative IPC: 0.644708 (Simulation time: 0 hr 46 min 46 sec) 
Heartbeat CPU 0 instructions: 290000001 cycles: 125037116 heartbeat IPC: 2.28867 cumulative IPC: 0.719786 (Simulation time: 0 hr 47 min 8 sec) 
Heartbeat CPU 1 instructions: 240000000 cycles: 125232512 heartbeat IPC: 2.70741 cumulative IPC: 0.319406 (Simulation time: 0 hr 47 min 13 sec) 
Heartbeat CPU 3 instructions: 160000000 cycles: 126430500 heartbeat IPC: 1.26909 cumulative IPC: 1.26552 (Simulation time: 0 hr 47 min 40 sec) 
Heartbeat CPU 2 instructions: 290000002 cycles: 128519058 heartbeat IPC: 2.25635 cumulative IPC: 0.700285 (Simulation time: 0 hr 48 min 28 sec) 
Heartbeat CPU 1 instructions: 250000001 cycles: 128926827 heartbeat IPC: 2.70686 cumulative IPC: 0.387817 (Simulation time: 0 hr 48 min 38 sec) 
Heartbeat CPU 0 instructions: 300000000 cycles: 129411701 heartbeat IPC: 2.28593 cumulative IPC: 0.772728 (Simulation time: 0 hr 48 min 49 sec) 
Heartbeat CPU 1 instructions: 260000000 cycles: 132618136 heartbeat IPC: 2.70907 cumulative IPC: 0.452427 (Simulation time: 0 hr 50 min 2 sec) 
Heartbeat CPU 2 instructions: 300000000 cycles: 133577671 heartbeat IPC: 1.97683 cumulative IPC: 0.748628 (Simulation time: 0 hr 50 min 23 sec) 
Heartbeat CPU 0 instructions: 310000001 cycles: 133708112 heartbeat IPC: 2.32752 cumulative IPC: 0.822688 (Simulation time: 0 hr 50 min 26 sec) 
Heartbeat CPU 3 instructions: 170000003 cycles: 134308759 heartbeat IPC: 1.26932 cumulative IPC: 1.26574 (Simulation time: 0 hr 50 min 39 sec) 
Heartbeat CPU 1 instructions: 270000002 cycles: 136311032 heartbeat IPC: 2.7079 cumulative IPC: 0.513531 (Simulation time: 0 hr 51 min 23 sec) 
Heartbeat CPU 0 instructions: 320000000 cycles: 138078823 heartbeat IPC: 2.28796 cumulative IPC: 0.869069 (Simulation time: 0 hr 52 min 1 sec) 
Heartbeat CPU 1 instructions: 280000000 cycles: 140008146 heartbeat IPC: 2.70481 cumulative IPC: 0.571395 (Simulation time: 0 hr 52 min 43 sec) 
Heartbeat CPU 2 instructions: 310000002 cycles: 141720605 heartbeat IPC: 1.22806 cumulative IPC: 0.776175 (Simulation time: 0 hr 53 min 21 sec) 
Heartbeat CPU 3 instructions: 180000000 cycles: 142183241 heartbeat IPC: 1.26992 cumulative IPC: 1.26597 (Simulation time: 0 hr 53 min 31 sec) 
Heartbeat CPU 0 instructions: 330000003 cycles: 142451838 heartbeat IPC: 2.28675 cumulative IPC: 0.912589 (Simulation time: 0 hr 53 min 36 sec) 
Heartbeat CPU 1 instructions: 290000000 cycles: 143699023 heartbeat IPC: 2.70938 cumulative IPC: 0.626309 (Simulation time: 0 hr 54 min 4 sec) 
Heartbeat CPU 0 instructions: 340000000 cycles: 146748853 heartbeat IPC: 2.3272 cumulative IPC: 0.954011 (Simulation time: 0 hr 55 min 10 sec) 
Heartbeat CPU 1 instructions: 300000000 cycles: 147391576 heartbeat IPC: 2.70815 cumulative IPC: 0.678465 (Simulation time: 0 hr 55 min 24 sec) 
Heartbeat CPU 2 instructions: 320000000 cycles: 149863357 heartbeat IPC: 1.22809 cumulative IPC: 0.800729 (Simulation time: 0 hr 56 min 18 sec) 
Heartbeat CPU 3 instructions: 190000003 cycles: 150064573 heartbeat IPC: 1.26882 cumulative IPC: 1.26612 (Simulation time: 0 hr 56 min 23 sec) 
Heartbeat CPU 1 instructions: 310000000 cycles: 151085956 heartbeat IPC: 2.70681 cumulative IPC: 0.728062 (Simulation time: 0 hr 56 min 45 sec) 
Heartbeat CPU 0 instructions: 350000002 cycles: 151118325 heartbeat IPC: 2.28861 cumulative IPC: 0.9926 (Simulation time: 0 hr 56 min 45 sec) 
Heartbeat CPU 1 instructions: 320000000 cycles: 154780393 heartbeat IPC: 2.70677 cumulative IPC: 0.775292 (Simulation time: 0 hr 58 min 5 sec) 
Heartbeat CPU 0 instructions: 360000000 cycles: 155489798 heartbeat IPC: 2.28756 cumulative IPC: 1.02901 (Simulation time: 0 hr 58 min 21 sec) 
Heartbeat CPU 3 instructions: 200000000 cycles: 157941495 heartbeat IPC: 1.26953 cumulative IPC: 1.26629 (Simulation time: 0 hr 59 min 14 sec) 

Warmup complete CPU 0 instructions: 365683646 cycles: 157941496 (Simulation time: 0 hr 59 min 14 sec) 
Warmup complete CPU 1 instructions: 328564072 cycles: 157941496 (Simulation time: 0 hr 59 min 14 sec) 
Warmup complete CPU 2 instructions: 329920517 cycles: 157941496 (Simulation time: 0 hr 59 min 14 sec) 
Warmup complete CPU 3 instructions: 200000001 cycles: 157941496 (Simulation time: 0 hr 59 min 14 sec) 

Heartbeat CPU 2 instructions: 330000003 cycles: 158073796 heartbeat IPC: 1.21796 cumulative IPC: 0.600801 (Simulation time: 0 hr 59 min 16 sec) 
Heartbeat CPU 1 instructions: 330000002 cycles: 159070819 heartbeat IPC: 2.33077 cumulative IPC: 1.2715 (Simulation time: 0 hr 59 min 30 sec) 
Heartbeat CPU 0 instructions: 370000003 cycles: 162197692 heartbeat IPC: 1.49078 cumulative IPC: 1.01413 (Simulation time: 1 hr 0 min 13 sec) 
Heartbeat CPU 1 instructions: 340000000 cycles: 166923719 heartbeat IPC: 1.27341 cumulative IPC: 1.27317 (Simulation time: 1 hr 1 min 17 sec) 
Heartbeat CPU 3 instructions: 210000000 cycles: 171811225 heartbeat IPC: 0.720995 cumulative IPC: 0.720995 (Simulation time: 1 hr 2 min 24 sec) 
Heartbeat CPU 0 instructions: 380000000 cycles: 172708990 heartbeat IPC: 0.951357 cumulative IPC: 0.96945 (Simulation time: 1 hr 2 min 36 sec) 
Heartbeat CPU 2 instructions: 340000000 cycles: 174543659 heartbeat IPC: 0.607169 cumulative IPC: 0.607119 (Simulation time: 1 hr 3 min 1 sec) 
Heartbeat CPU 1 instructions: 350000003 cycles: 174797187 heartbeat IPC: 1.27009 cumulative IPC: 1.27173 (Simulation time: 1 hr 3 min 5 sec) 
Heartbeat CPU 1 instructions: 360000000 cycles: 182659857 heartbeat IPC: 1.27183 cumulative IPC: 1.27176 (Simulation time: 1 hr 4 min 52 sec) 
Heartbeat CPU 0 instructions: 390000000 cycles: 183328545 heartbeat IPC: 0.941659 cumulative IPC: 0.957825 (Simulation time: 1 hr 5 min 1 sec) 
Heartbeat CPU 3 instructions: 220000000 cycles: 185780381 heartbeat IPC: 0.715863 cumulative IPC: 0.71842 (Simulation time: 1 hr 5 min 35 sec) 
Heartbeat CPU 1 instructions: 370000001 cycles: 190580954 heartbeat IPC: 1.26245 cumulative IPC: 1.2695 (Simulation time: 1 hr 6 min 40 sec) 
Heartbeat CPU 2 instructions: 350000003 cycles: 190992380 heartbeat IPC: 0.60795 cumulative IPC: 0.607533 (Simulation time: 1 hr 6 min 45 sec) 
Heartbeat CPU 0 instructions: 400000000 cycles: 193359952 heartbeat IPC: 0.996869 cumulative IPC: 0.968883 (Simulation time: 1 hr 7 min 18 sec) 
Heartbeat CPU 1 instructions: 380000000 cycles: 198478565 heartbeat IPC: 1.26621 cumulative IPC: 1.26886 (Simulation time: 1 hr 8 min 27 sec) 
Heartbeat CPU 3 instructions: 230000002 cycles: 199747621 heartbeat IPC: 0.715961 cumulative IPC: 0.717598 (Simulation time: 1 hr 8 min 45 sec) 
Heartbeat CPU 0 instructions: 410000000 cycles: 203915067 heartbeat IPC: 0.947408 cumulative IPC: 0.963953 (Simulation time: 1 hr 9 min 42 sec) 
Heartbeat CPU 1 instructions: 390000000 cycles: 206355768 heartbeat IPC: 1.26949 cumulative IPC: 1.26896 (Simulation time: 1 hr 10 min 15 sec) 
Heartbeat CPU 2 instructions: 360000000 cycles: 207428638 heartbeat IPC: 0.608411 cumulative IPC: 0.607824 (Simulation time: 1 hr 10 min 30 sec) 
Heartbeat CPU 3 instructions: 240000000 cycles: 213655731 heartbeat IPC: 0.719005 cumulative IPC: 0.717949 (Simulation time: 1 hr 11 min 56 sec) 
Heartbeat CPU 1 instructions: 400000000 cycles: 214182805 heartbeat IPC: 1.27762 cumulative IPC: 1.27017 (Simulation time: 1 hr 12 min 3 sec) 
Heartbeat CPU 0 instructions: 420000000 cycles: 214339791 heartbeat IPC: 0.959258 cumulative IPC: 0.963085 (Simulation time: 1 hr 12 min 5 sec) 
Heartbeat CPU 1 instructions: 410000002 cycles: 222042828 heartbeat IPC: 1.27226 cumulative IPC: 1.27042 (Simulation time: 1 hr 13 min 51 sec) 
Heartbeat CPU 2 instructions: 370000000 cycles: 223842206 heartbeat IPC: 0.609252 cumulative IPC: 0.60818 (Simulation time: 1 hr 14 min 16 sec) 
Heartbeat CPU 0 instructions: 430000000 cycles: 224489292 heartbeat IPC: 0.98527 cumulative IPC: 0.966469 (Simulation time: 1 hr 14 min 25 sec) 
Heartbeat CPU 3 instructions: 250000001 cycles: 227623056 heartbeat IPC: 0.715957 cumulative IPC: 0.71755 (Simulation time: 1 hr 15 min 8 sec) 
Heartbeat CPU 1 instructions: 420000000 cycles: 229922086 heartbeat IPC: 1.26915 cumulative IPC: 1.27029 (Simulation time: 1 hr 15 min 38 sec) 
Heartbeat CPU 0 instructions: 440000000 cycles: 234910682 heartbeat IPC: 0.959565 cumulative IPC: 0.965534 (Simulation time: 1 hr 16 min 44 sec) 
Heartbeat CPU 1 instructions: 430000002 cycles: 237759602 heartbeat IPC: 1.27591 cumulative IPC: 1.27084 (Simulation time: 1 hr 17 min 15 sec) 
Heartbeat CPU 2 instructions: 380000000 cycles: 240385367 heartbeat IPC: 0.604479 cumulative IPC: 0.607437 (Simulation time: 1 hr 17 min 47 sec) 
Heartbeat CPU 0 instructions: 450000000 cycles: 245444713 heartbeat IPC: 0.949304 cumulative IPC: 0.96358 (Simulation time: 1 hr 18 min 53 sec) 
Heartbeat CPU 1 instructions: 440000000 cycles: 245647314 heartbeat IPC: 1.26779 cumulative IPC: 1.27056 (Simulation time: 1 hr 18 min 56 sec) 
Heartbeat CPU 3 instructions: 260000000 cycles: 245925843 heartbeat IPC: 0.546365 cumulative IPC: 0.681939 (Simulation time: 1 hr 19 min 0 sec) 
Heartbeat CPU 1 instructions: 450000002 cycles: 253632029 heartbeat IPC: 1.25239 cumulative IPC: 1.26905 (Simulation time: 1 hr 20 min 32 sec) 
Heartbeat CPU 0 instructions: 460000000 cycles: 255630885 heartbeat IPC: 0.981723 cumulative IPC: 0.965472 (Simulation time: 1 hr 20 min 59 sec) 
Heartbeat CPU 2 instructions: 390000002 cycles: 256959741 heartbeat IPC: 0.603341 cumulative IPC: 0.606752 (Simulation time: 1 hr 21 min 15 sec) 
Heartbeat CPU 1 instructions: 460000000 cycles: 261587026 heartbeat IPC: 1.25707 cumulative IPC: 1.26813 (Simulation time: 1 hr 22 min 7 sec) 
Heartbeat CPU 0 instructions: 470000000 cycles: 266214507 heartbeat IPC: 0.944856 cumulative IPC: 0.963457 (Simulation time: 1 hr 23 min 9 sec) 
Heartbeat CPU 3 instructions: 270000003 cycles: 266763562 heartbeat IPC: 0.479899 cumulative IPC: 0.643252 (Simulation time: 1 hr 23 min 16 sec) 
Heartbeat CPU 1 instructions: 470000001 cycles: 269434068 heartbeat IPC: 1.27437 cumulative IPC: 1.26857 (Simulation time: 1 hr 23 min 45 sec) 
Heartbeat CPU 2 instructions: 400000000 cycles: 273621993 heartbeat IPC: 0.600159 cumulative IPC: 0.605802 (Simulation time: 1 hr 24 min 37 sec) 
Heartbeat CPU 0 instructions: 480000000 cycles: 276704765 heartbeat IPC: 0.953265 cumulative IPC: 0.962556 (Simulation time: 1 hr 25 min 18 sec) 
Heartbeat CPU 1 instructions: 480000000 cycles: 277277216 heartbeat IPC: 1.275 cumulative IPC: 1.26899 (Simulation time: 1 hr 25 min 25 sec) 
Heartbeat CPU 3 instructions: 280000000 cycles: 284786977 heartbeat IPC: 0.554834 cumulative IPC: 0.630689 (Simulation time: 1 hr 27 min 5 sec) 
Heartbeat CPU 1 instructions: 490000000 cycles: 285054132 heartbeat IPC: 1.28586 cumulative IPC: 1.27002 (Simulation time: 1 hr 27 min 8 sec) 
Heartbeat CPU 0 instructions: 490000000 cycles: 286535994 heartbeat IPC: 1.01717 cumulative IPC: 0.966731 (Simulation time: 1 hr 27 min 28 sec) 
Heartbeat CPU 2 instructions: 410000001 cycles: 290073334 heartbeat IPC: 0.607853 cumulative IPC: 0.606057 (Simulation time: 1 hr 28 min 14 sec) 
Heartbeat CPU 1 instructions: 500000000 cycles: 292819145 heartbeat IPC: 1.28783 cumulative IPC: 1.27105 (Simulation time: 1 hr 28 min 51 sec) 
Heartbeat CPU 0 instructions: 500000000 cycles: 296744826 heartbeat IPC: 0.979544 cumulative IPC: 0.967674 (Simulation time: 1 hr 29 min 43 sec) 
Heartbeat CPU 3 instructions: 290000001 cycles: 299696329 heartbeat IPC: 0.67072 cumulative IPC: 0.634899 (Simulation time: 1 hr 30 min 22 sec) 
Heartbeat CPU 1 instructions: 510000002 cycles: 300564260 heartbeat IPC: 1.29114 cumulative IPC: 1.27214 (Simulation time: 1 hr 30 min 34 sec) 
Heartbeat CPU 2 instructions: 420000000 cycles: 306453628 heartbeat IPC: 0.61049 cumulative IPC: 0.606546 (Simulation time: 1 hr 31 min 52 sec) 
Heartbeat CPU 0 instructions: 510000003 cycles: 306996504 heartbeat IPC: 0.97545 cumulative IPC: 0.968209 (Simulation time: 1 hr 31 min 59 sec) 
Heartbeat CPU 1 instructions: 520000000 cycles: 308258770 heartbeat IPC: 1.29963 cumulative IPC: 1.27355 (Simulation time: 1 hr 32 min 16 sec) 
Heartbeat CPU 3 instructions: 300000000 cycles: 315216687 heartbeat IPC: 0.644315 cumulative IPC: 0.635828 (Simulation time: 1 hr 33 min 49 sec) 
Heartbeat CPU 1 instructions: 530000003 cycles: 315928835 heartbeat IPC: 1.30377 cumulative IPC: 1.27501 (Simulation time: 1 hr 33 min 59 sec) 
Heartbeat CPU 0 instructions: 520000000 cycles: 316808655 heartbeat IPC: 1.01914 cumulative IPC: 0.971355 (Simulation time: 1 hr 34 min 11 sec) 
Heartbeat CPU 2 instructions: 430000002 cycles: 325384465 heartbeat IPC: 0.528239 cumulative IPC: 0.597693 (Simulation time: 1 hr 35 min 48 sec) 
Heartbeat CPU 0 instructions: 530000000 cycles: 326522931 heartbeat IPC: 1.02941 cumulative IPC: 0.9747 (Simulation time: 1 hr 36 min 0 sec) 
Heartbeat CPU 3 instructions: 310000002 cycles: 329204325 heartbeat IPC: 0.714917 cumulative IPC: 0.642288 (Simulation time: 1 hr 36 min 27 sec) 
Heartbeat CPU 1 instructions: 540000000 cycles: 330948872 heartbeat IPC: 0.665777 cumulative IPC: 1.22212 (Simulation time: 1 hr 36 min 43 sec) 
Heartbeat CPU 0 instructions: 540000000 cycles: 336910737 heartbeat IPC: 0.962667 cumulative IPC: 0.974002 (Simulation time: 1 hr 37 min 35 sec) 
Heartbeat CPU 0 instructions: 550000001 cycles: 346834511 heartbeat IPC: 1.00768 cumulative IPC: 0.975771 (Simulation time: 1 hr 39 min 5 sec) 
Heartbeat CPU 1 instructions: 550000000 cycles: 348085730 heartbeat IPC: 0.583538 cumulative IPC: 1.16457 (Simulation time: 1 hr 39 min 16 sec) 
Heartbeat CPU 0 instructions: 560000000 cycles: 357148914 heartbeat IPC: 0.969518 cumulative IPC: 0.975447 (Simulation time: 1 hr 40 min 36 sec) 
Heartbeat CPU 3 instructions: 320000000 cycles: 361275834 heartbeat IPC: 0.311803 cumulative IPC: 0.590161 (Simulation time: 1 hr 41 min 12 sec) 
Heartbeat CPU 1 instructions: 560000000 cycles: 365253820 heartbeat IPC: 0.582476 cumulative IPC: 1.11636 (Simulation time: 1 hr 41 min 47 sec) 
Heartbeat CPU 0 instructions: 570000003 cycles: 367207622 heartbeat IPC: 0.994164 cumulative IPC: 0.976347 (Simulation time: 1 hr 42 min 4 sec) 
Heartbeat CPU 2 instructions: 440000000 cycles: 372273495 heartbeat IPC: 0.213269 cumulative IPC: 0.513593 (Simulation time: 1 hr 42 min 52 sec) 
Heartbeat CPU 0 instructions: 580000000 cycles: 376685928 heartbeat IPC: 1.05504 cumulative IPC: 0.979757 (Simulation time: 1 hr 43 min 40 sec) 
Heartbeat CPU 1 instructions: 570000002 cycles: 382223711 heartbeat IPC: 0.589279 cumulative IPC: 1.07648 (Simulation time: 1 hr 44 min 41 sec) 
Heartbeat CPU 0 instructions: 590000001 cycles: 386467488 heartbeat IPC: 1.02233 cumulative IPC: 0.981579 (Simulation time: 1 hr 45 min 27 sec) 
Heartbeat CPU 2 instructions: 450000000 cycles: 387892389 heartbeat IPC: 0.64025 cumulative IPC: 0.522196 (Simulation time: 1 hr 45 min 42 sec) 
Heartbeat CPU 3 instructions: 330000000 cycles: 391962015 heartbeat IPC: 0.32588 cumulative IPC: 0.555507 (Simulation time: 1 hr 46 min 27 sec) 
Heartbeat CPU 0 instructions: 600000000 cycles: 396285406 heartbeat IPC: 1.01855 cumulative IPC: 0.983102 (Simulation time: 1 hr 47 min 14 sec) 
Heartbeat CPU 1 instructions: 580000000 cycles: 399110829 heartbeat IPC: 0.592167 cumulative IPC: 1.04257 (Simulation time: 1 hr 47 min 45 sec) 
Heartbeat CPU 2 instructions: 460000000 cycles: 403537807 heartbeat IPC: 0.639165 cumulative IPC: 0.529648 (Simulation time: 1 hr 48 min 33 sec) 
Heartbeat CPU 0 instructions: 610000001 cycles: 405775483 heartbeat IPC: 1.05373 cumulative IPC: 0.985807 (Simulation time: 1 hr 48 min 58 sec) 
Heartbeat CPU 3 instructions: 340000000 cycles: 414512669 heartbeat IPC: 0.443446 cumulative IPC: 0.545658 (Simulation time: 1 hr 50 min 42 sec) 
Heartbeat CPU 0 instructions: 620000000 cycles: 415696278 heartbeat IPC: 1.00798 cumulative IPC: 0.98666 (Simulation time: 1 hr 50 min 56 sec) 
Heartbeat CPU 1 instructions: 590000003 cycles: 415973063 heartbeat IPC: 0.593041 cumulative IPC: 1.01319 (Simulation time: 1 hr 51 min 0 sec) 
Heartbeat CPU 2 instructions: 470000002 cycles: 419141962 heartbeat IPC: 0.640855 cumulative IPC: 0.536291 (Simulation time: 1 hr 51 min 38 sec) 
Heartbeat CPU 0 instructions: 630000002 cycles: 425531632 heartbeat IPC: 1.01674 cumulative IPC: 0.987766 (Simulation time: 1 hr 52 min 54 sec) 
Heartbeat CPU 3 instructions: 350000000 cycles: 431086811 heartbeat IPC: 0.60335 cumulative IPC: 0.549158 (Simulation time: 1 hr 53 min 51 sec) 
Heartbeat CPU 1 instructions: 600000000 cycles: 433131659 heartbeat IPC: 0.582798 cumulative IPC: 0.986358 (Simulation time: 1 hr 54 min 10 sec) 
Heartbeat CPU 2 instructions: 480000000 cycles: 435088406 heartbeat IPC: 0.627099 cumulative IPC: 0.541516 (Simulation time: 1 hr 54 min 30 sec) 
Heartbeat CPU 0 instructions: 640000000 cycles: 442888762 heartbeat IPC: 0.576132 cumulative IPC: 0.962692 (Simulation time: 1 hr 55 min 57 sec) 
Heartbeat CPU 3 instructions: 360000000 cycles: 448478039 heartbeat IPC: 0.575003 cumulative IPC: 0.550705 (Simulation time: 1 hr 57 min 1 sec) 
Heartbeat CPU 1 instructions: 610000002 cycles: 450607464 heartbeat IPC: 0.57222 cumulative IPC: 0.961628 (Simulation time: 1 hr 57 min 27 sec) 
Heartbeat CPU 2 instructions: 490000002 cycles: 451351820 heartbeat IPC: 0.614877 cumulative IPC: 0.545582 (Simulation time: 1 hr 57 min 36 sec) 
Heartbeat CPU 0 instructions: 650000003 cycles: 455370645 heartbeat IPC: 0.801161 cumulative IPC: 0.955913 (Simulation time: 1 hr 58 min 25 sec) 
Heartbeat CPU 3 instructions: 370000003 cycles: 460917773 heartbeat IPC: 0.803876 cumulative IPC: 0.5611 (Simulation time: 1 hr 59 min 32 sec) 
Heartbeat CPU 2 instructions: 500000000 cycles: 467585029 heartbeat IPC: 0.616021 cumulative IPC: 0.549275 (Simulation time: 2 hr 0 min 53 sec) 
Heartbeat CPU 0 instructions: 660000000 cycles: 467647247 heartbeat IPC: 0.814557 cumulative IPC: 0.95031 (Simulation time: 2 hr 0 min 53 sec) 
Heartbeat CPU 1 instructions: 620000000 cycles: 468096192 heartbeat IPC: 0.571797 cumulative IPC: 0.939647 (Simulation time: 2 hr 0 min 59 sec) 
Heartbeat CPU 3 instructions: 380000000 cycles: 473599474 heartbeat IPC: 0.788538 cumulative IPC: 0.570237 (Simulation time: 2 hr 2 min 11 sec) 
Heartbeat CPU 0 instructions: 670000000 cycles: 475934717 heartbeat IPC: 1.20664 cumulative IPC: 0.95699 (Simulation time: 2 hr 2 min 41 sec) 
Heartbeat CPU 2 instructions: 510000001 cycles: 483665656 heartbeat IPC: 0.621866 cumulative IPC: 0.552859 (Simulation time: 2 hr 4 min 19 sec) 
Heartbeat CPU 0 instructions: 680000000 cycles: 484690860 heartbeat IPC: 1.14206 cumulative IPC: 0.961949 (Simulation time: 2 hr 4 min 32 sec) 
Heartbeat CPU 1 instructions: 630000000 cycles: 485723486 heartbeat IPC: 0.567302 cumulative IPC: 0.919623 (Simulation time: 2 hr 4 min 45 sec) 
Heartbeat CPU 3 instructions: 390000000 cycles: 487323384 heartbeat IPC: 0.728655 cumulative IPC: 0.576838 (Simulation time: 2 hr 5 min 4 sec) 
Heartbeat CPU 0 instructions: 690000000 cycles: 493015588 heartbeat IPC: 1.20124 cumulative IPC: 0.967894 (Simulation time: 2 hr 6 min 7 sec) 
Heartbeat CPU 2 instructions: 520000000 cycles: 499824749 heartbeat IPC: 0.618847 cumulative IPC: 0.555978 (Simulation time: 2 hr 7 min 23 sec) 
Heartbeat CPU 0 instructions: 700000000 cycles: 501321995 heartbeat IPC: 1.20389 cumulative IPC: 0.973603 (Simulation time: 2 hr 7 min 39 sec) 
Heartbeat CPU 1 instructions: 640000000 cycles: 503385191 heartbeat IPC: 0.566197 cumulative IPC: 0.901553 (Simulation time: 2 hr 8 min 2 sec) 
Heartbeat CPU 0 instructions: 710000003 cycles: 510030916 heartbeat IPC: 1.14825 cumulative IPC: 0.977923 (Simulation time: 2 hr 9 min 16 sec) 
Heartbeat CPU 2 instructions: 530000003 cycles: 515830078 heartbeat IPC: 0.624792 cumulative IPC: 0.559055 (Simulation time: 2 hr 10 min 21 sec) 
Heartbeat CPU 3 instructions: 400000000 cycles: 517959315 heartbeat IPC: 0.326414 cumulative IPC: 0.555528 (Simulation time: 2 hr 10 min 44 sec) 
Heartbeat CPU 0 instructions: 720000000 cycles: 518374906 heartbeat IPC: 1.19847 cumulative IPC: 0.983029 (Simulation time: 2 hr 10 min 48 sec) 
Heartbeat CPU 1 instructions: 650000000 cycles: 520849181 heartbeat IPC: 0.572607 cumulative IPC: 0.885724 (Simulation time: 2 hr 11 min 16 sec) 
Heartbeat CPU 0 instructions: 730000003 cycles: 526554944 heartbeat IPC: 1.22249 cumulative IPC: 0.988343 (Simulation time: 2 hr 12 min 20 sec) 
Heartbeat CPU 2 instructions: 540000000 cycles: 531767527 heartbeat IPC: 0.627453 cumulative IPC: 0.561971 (Simulation time: 2 hr 13 min 17 sec) 
Heartbeat CPU 0 instructions: 740000000 cycles: 535298368 heartbeat IPC: 1.14372 cumulative IPC: 0.991943 (Simulation time: 2 hr 13 min 56 sec) 
Heartbeat CPU 1 instructions: 660000000 cycles: 538403122 heartbeat IPC: 0.569673 cumulative IPC: 0.871142 (Simulation time: 2 hr 14 min 31 sec) 
Heartbeat CPU 0 instructions: 750000002 cycles: 543661233 heartbeat IPC: 1.19576 cumulative IPC: 0.996362 (Simulation time: 2 hr 15 min 30 sec) 
Heartbeat CPU 2 instructions: 550000001 cycles: 547875280 heartbeat IPC: 0.620819 cumulative IPC: 0.564402 (Simulation time: 2 hr 16 min 16 sec) 
Heartbeat CPU 3 instructions: 410000003 cycles: 548825680 heartbeat IPC: 0.323977 cumulative IPC: 0.537244 (Simulation time: 2 hr 16 min 27 sec) 
Heartbeat CPU 0 instructions: 760000000 cycles: 551966320 heartbeat IPC: 1.20408 cumulative IPC: 1.00074 (Simulation time: 2 hr 17 min 2 sec) 
Heartbeat CPU 1 instructions: 670000001 cycles: 555631025 heartbeat IPC: 0.580454 cumulative IPC: 0.858549 (Simulation time: 2 hr 17 min 43 sec) 
Heartbeat CPU 0 instructions: 770000000 cycles: 560679566 heartbeat IPC: 1.14768 cumulative IPC: 1.00392 (Simulation time: 2 hr 18 min 39 sec) 
Heartbeat CPU 2 instructions: 560000000 cycles: 563991098 heartbeat IPC: 0.620508 cumulative IPC: 0.566629 (Simulation time: 2 hr 19 min 19 sec) 
Heartbeat CPU 0 instructions: 780000000 cycles: 569126098 heartbeat IPC: 1.18392 cumulative IPC: 1.00762 (Simulation time: 2 hr 20 min 15 sec) 
Heartbeat CPU 3 instructions: 420000000 cycles: 570741372 heartbeat IPC: 0.456294 cumulative IPC: 0.532946 (Simulation time: 2 hr 20 min 32 sec) 
Heartbeat CPU 0 instructions: 790000001 cycles: 577575775 heartbeat IPC: 1.18348 cumulative IPC: 1.01116 (Simulation time: 2 hr 21 min 43 sec) 
Heartbeat CPU 2 instructions: 570000003 cycles: 580597100 heartbeat IPC: 0.602192 cumulative IPC: 0.568026 (Simulation time: 2 hr 22 min 15 sec) 
Heartbeat CPU 1 instructions: 680000000 cycles: 584206545 heartbeat IPC: 0.34995 cumulative IPC: 0.824454 (Simulation time: 2 hr 22 min 55 sec) 
Heartbeat CPU 0 instructions: 800000000 cycles: 586341871 heartbeat IPC: 1.14076 cumulative IPC: 1.01381 (Simulation time: 2 hr 23 min 22 sec) 
Heartbeat CPU 3 instructions: 430000000 cycles: 587214924 heartbeat IPC: 0.607034 cumulative IPC: 0.535789 (Simulation time: 2 hr 23 min 33 sec) 
Heartbeat CPU 0 instructions: 810000000 cycles: 594718616 heartbeat IPC: 1.19378 cumulative IPC: 1.01726 (Simulation time: 2 hr 25 min 8 sec) 
Heartbeat CPU 2 instructions: 580000000 cycles: 596414979 heartbeat IPC: 0.632196 cumulative IPC: 0.570341 (Simulation time: 2 hr 25 min 30 sec) 
Heartbeat CPU 1 instructions: 690000000 cycles: 600926373 heartbeat IPC: 0.598092 cumulative IPC: 0.81591 (Simulation time: 2 hr 26 min 27 sec) 
Heartbeat CPU 3 instructions: 440000000 cycles: 602125996 heartbeat IPC: 0.670643 cumulative IPC: 0.540316 (Simulation time: 2 hr 26 min 43 sec) 
Heartbeat CPU 0 instructions: 820000000 cycles: 602887993 heartbeat IPC: 1.22408 cumulative IPC: 1.02106 (Simulation time: 2 hr 26 min 53 sec) 
Heartbeat CPU 2 instructions: 590000001 cycles: 610898969 heartbeat IPC: 0.690418 cumulative IPC: 0.574181 (Simulation time: 2 hr 28 min 38 sec) 
Heartbeat CPU 0 instructions: 830000003 cycles: 611564636 heartbeat IPC: 1.15252 cumulative IPC: 1.02357 (Simulation time: 2 hr 28 min 47 sec) 
Heartbeat CPU 3 instructions: 450000003 cycles: 615113455 heartbeat IPC: 0.769974 cumulative IPC: 0.54684 (Simulation time: 2 hr 29 min 35 sec) 
Heartbeat CPU 1 instructions: 700000000 cycles: 618215254 heartbeat IPC: 0.578406 cumulative IPC: 0.806989 (Simulation time: 2 hr 30 min 17 sec) 
Heartbeat CPU 0 instructions: 840000000 cycles: 619950614 heartbeat IPC: 1.19247 cumulative IPC: 1.02664 (Simulation time: 2 hr 30 min 39 sec) 
Heartbeat CPU 2 instructions: 600000000 cycles: 624674198 heartbeat IPC: 0.725941 cumulative IPC: 0.57866 (Simulation time: 2 hr 31 min 43 sec) 
Heartbeat CPU 0 instructions: 850000000 cycles: 628094998 heartbeat IPC: 1.22784 cumulative IPC: 1.03012 (Simulation time: 2 hr 32 min 28 sec) 
Heartbeat CPU 3 instructions: 460000000 cycles: 628112293 heartbeat IPC: 0.769299 cumulative IPC: 0.552991 (Simulation time: 2 hr 32 min 28 sec) 
Heartbeat CPU 1 instructions: 710000000 cycles: 635724054 heartbeat IPC: 0.571141 cumulative IPC: 0.798346 (Simulation time: 2 hr 34 min 7 sec) 
Heartbeat CPU 0 instructions: 860000000 cycles: 636788262 heartbeat IPC: 1.15032 cumulative IPC: 1.03231 (Simulation time: 2 hr 34 min 21 sec) 
Heartbeat CPU 2 instructions: 610000001 cycles: 638500057 heartbeat IPC: 0.723282 cumulative IPC: 0.582821 (Simulation time: 2 hr 34 min 44 sec) 
Heartbeat CPU 3 instructions: 470000000 cycles: 643397045 heartbeat IPC: 0.654247 cumulative IPC: 0.556179 (Simulation time: 2 hr 35 min 43 sec) 
Heartbeat CPU 0 instructions: 870000000 cycles: 645208243 heartbeat IPC: 1.18765 cumulative IPC: 1.03499 (Simulation time: 2 hr 36 min 3 sec) 
Heartbeat CPU 2 instructions: 620000000 cycles: 652367955 heartbeat IPC: 0.72109 cumulative IPC: 0.586699 (Simulation time: 2 hr 37 min 26 sec) 
Heartbeat CPU 1 instructions: 720000000 cycles: 653444162 heartbeat IPC: 0.564331 cumulative IPC: 0.789977 (Simulation time: 2 hr 37 min 39 sec) 
Heartbeat CPU 0 instructions: 880000000 cycles: 653467576 heartbeat IPC: 1.21075 cumulative IPC: 1.03792 (Simulation time: 2 hr 37 min 39 sec) 
Heartbeat CPU 0 instructions: 890000002 cycles: 662072783 heartbeat IPC: 1.16209 cumulative IPC: 1.04004 (Simulation time: 2 hr 39 min 19 sec) 
Heartbeat CPU 2 instructions: 630000001 cycles: 666194877 heartbeat IPC: 0.723227 cumulative IPC: 0.590413 (Simulation time: 2 hr 40 min 6 sec) 
Heartbeat CPU 0 instructions: 900000000 cycles: 670529602 heartbeat IPC: 1.18248 cumulative IPC: 1.04239 (Simulation time: 2 hr 40 min 56 sec) 
Heartbeat CPU 1 instructions: 730000003 cycles: 670610003 heartbeat IPC: 0.582552 cumulative IPC: 0.783032 (Simulation time: 2 hr 40 min 57 sec) 
Heartbeat CPU 3 instructions: 480000000 cycles: 673440068 heartbeat IPC: 0.332856 cumulative IPC: 0.543163 (Simulation time: 2 hr 41 min 30 sec) 
Heartbeat CPU 0 instructions: 910000001 cycles: 678638911 heartbeat IPC: 1.23315 cumulative IPC: 1.04536 (Simulation time: 2 hr 42 min 31 sec) 
Heartbeat CPU 2 instructions: 640000000 cycles: 680016860 heartbeat IPC: 0.723485 cumulative IPC: 0.593936 (Simulation time: 2 hr 42 min 46 sec) 
Heartbeat CPU 0 instructions: 920000000 cycles: 687310545 heartbeat IPC: 1.15319 cumulative IPC: 1.04713 (Simulation time: 2 hr 44 min 10 sec) 
Heartbeat CPU 1 instructions: 740000000 cycles: 688199891 heartbeat IPC: 0.568508 cumulative IPC: 0.775916 (Simulation time: 2 hr 44 min 20 sec) 
Heartbeat CPU 2 instructions: 650000000 cycles: 693860673 heartbeat IPC: 0.722344 cumulative IPC: 0.597253 (Simulation time: 2 hr 45 min 26 sec) 
Heartbeat CPU 0 instructions: 930000003 cycles: 695814587 heartbeat IPC: 1.17591 cumulative IPC: 1.04916 (Simulation time: 2 hr 45 min 48 sec) 
Heartbeat CPU 3 instructions: 490000003 cycles: 703543197 heartbeat IPC: 0.332191 cumulative IPC: 0.531523 (Simulation time: 2 hr 47 min 18 sec) 
Heartbeat CPU 0 instructions: 940000000 cycles: 703936510 heartbeat IPC: 1.23124 cumulative IPC: 1.05187 (Simulation time: 2 hr 47 min 23 sec) 
Heartbeat CPU 1 instructions: 750000003 cycles: 705513459 heartbeat IPC: 0.577582 cumulative IPC: 0.769645 (Simulation time: 2 hr 47 min 41 sec) 
Heartbeat CPU 2 instructions: 660000000 cycles: 707721387 heartbeat IPC: 0.721464 cumulative IPC: 0.600385 (Simulation time: 2 hr 48 min 6 sec) 
Heartbeat CPU 0 instructions: 950000001 cycles: 712554142 heartbeat IPC: 1.16041 cumulative IPC: 1.05356 (Simulation time: 2 hr 49 min 1 sec) 
Heartbeat CPU 0 instructions: 960000000 cycles: 721085274 heartbeat IPC: 1.17218 cumulative IPC: 1.05535 (Simulation time: 2 hr 50 min 48 sec) 
Heartbeat CPU 2 instructions: 670000000 cycles: 721568801 heartbeat IPC: 0.722157 cumulative IPC: 0.603377 (Simulation time: 2 hr 50 min 54 sec) 
Heartbeat CPU 1 instructions: 760000000 cycles: 723270436 heartbeat IPC: 0.563159 cumulative IPC: 0.763159 (Simulation time: 2 hr 51 min 15 sec) 
Heartbeat CPU 3 instructions: 500000000 cycles: 724111064 heartbeat IPC: 0.486195 cumulative IPC: 0.529877 (Simulation time: 2 hr 51 min 26 sec) 
Heartbeat CPU 0 instructions: 970000000 cycles: 729328756 heartbeat IPC: 1.21308 cumulative IPC: 1.05763 (Simulation time: 2 hr 52 min 32 sec) 
Heartbeat CPU 2 instructions: 680000000 cycles: 735427469 heartbeat IPC: 0.72157 cumulative IPC: 0.606213 (Simulation time: 2 hr 53 min 48 sec) 
Heartbeat CPU 0 instructions: 980000000 cycles: 737965240 heartbeat IPC: 1.15788 cumulative IPC: 1.05912 (Simulation time: 2 hr 54 min 20 sec) 
Heartbeat CPU 3 instructions: 510000001 cycles: 740540982 heartbeat IPC: 0.608646 cumulative IPC: 0.532098 (Simulation time: 2 hr 54 min 52 sec) 
Heartbeat CPU 1 instructions: 770000000 cycles: 741067089 heartbeat IPC: 0.561903 cumulative IPC: 0.757017 (Simulation time: 2 hr 54 min 59 sec) 
Heartbeat CPU 0 instructions: 990000000 cycles: 746548586 heartbeat IPC: 1.16505 cumulative IPC: 1.06067 (Simulation time: 2 hr 56 min 6 sec) 
Heartbeat CPU 2 instructions: 690000003 cycles: 749282207 heartbeat IPC: 0.721775 cumulative IPC: 0.608921 (Simulation time: 2 hr 56 min 40 sec) 
Heartbeat CPU 0 instructions: 1000000000 cycles: 754822193 heartbeat IPC: 1.20866 cumulative IPC: 1.06272 (Simulation time: 2 hr 57 min 50 sec) 
Heartbeat CPU 3 instructions: 520000000 cycles: 756311943 heartbeat IPC: 0.634077 cumulative IPC: 0.534786 (Simulation time: 2 hr 58 min 9 sec) 
Heartbeat CPU 1 instructions: 780000000 cycles: 758946573 heartbeat IPC: 0.5593 cumulative IPC: 0.751135 (Simulation time: 2 hr 58 min 42 sec) 
Heartbeat CPU 2 instructions: 700000000 cycles: 761860514 heartbeat IPC: 0.795019 cumulative IPC: 0.612797 (Simulation time: 2 hr 59 min 20 sec) 
Heartbeat CPU 0 instructions: 1010000000 cycles: 763395440 heartbeat IPC: 1.16642 cumulative IPC: 1.06419 (Simulation time: 2 hr 59 min 41 sec) 
Heartbeat CPU 3 instructions: 530000000 cycles: 769536815 heartbeat IPC: 0.756151 cumulative IPC: 0.539572 (Simulation time: 3 hr 1 min 0 sec) 
Heartbeat CPU 0 instructions: 1020000000 cycles: 771977581 heartbeat IPC: 1.16521 cumulative IPC: 1.0656 (Simulation time: 3 hr 1 min 31 sec) 
Heartbeat CPU 2 instructions: 710000001 cycles: 775209427 heartbeat IPC: 0.749125 cumulative IPC: 0.615745 (Simulation time: 3 hr 2 min 12 sec) 
Heartbeat CPU 1 instructions: 790000000 cycles: 776946506 heartbeat IPC: 0.555558 cumulative IPC: 0.745448 (Simulation time: 3 hr 2 min 35 sec) 
Heartbeat CPU 0 instructions: 1030000001 cycles: 780211136 heartbeat IPC: 1.21454 cumulative IPC: 1.06757 (Simulation time: 3 hr 3 min 17 sec) 
Heartbeat CPU 3 instructions: 540000000 cycles: 783066634 heartbeat IPC: 0.739108 cumulative IPC: 0.543891 (Simulation time: 3 hr 3 min 53 sec) 
Heartbeat CPU 0 instructions: 1040000000 cycles: 788715485 heartbeat IPC: 1.17587 cumulative IPC: 1.06903 (Simulation time: 3 hr 5 min 6 sec) 
Heartbeat CPU 2 instructions: 720000000 cycles: 789055176 heartbeat IPC: 0.722243 cumulative IPC: 0.618081 (Simulation time: 3 hr 5 min 10 sec) 
Heartbeat CPU 1 instructions: 800000000 cycles: 794791637 heartbeat IPC: 0.560377 cumulative IPC: 0.740262 (Simulation time: 3 hr 6 min 23 sec) 
Heartbeat CPU 0 instructions: 1050000000 cycles: 797318493 heartbeat IPC: 1.16238 cumulative IPC: 1.07029 (Simulation time: 3 hr 6 min 51 sec) 
Heartbeat CPU 3 instructions: 550000000 cycles: 799683330 heartbeat IPC: 0.601804 cumulative IPC: 0.545391 (Simulation time: 3 hr 7 min 17 sec) 
Heartbeat CPU 2 instructions: 730000000 cycles: 802915631 heartbeat IPC: 0.721477 cumulative IPC: 0.620303 (Simulation time: 3 hr 7 min 55 sec) 
Heartbeat CPU 0 instructions: 1060000000 cycles: 805556002 heartbeat IPC: 1.21396 cumulative IPC: 1.07211 (Simulation time: 3 hr 8 min 24 sec) 
Heartbeat CPU 1 instructions: 810000002 cycles: 812196286 heartbeat IPC: 0.574559 cumulative IPC: 0.735854 (Simulation time: 3 hr 9 min 40 sec) 
Heartbeat CPU 0 instructions: 1070000000 cycles: 814005383 heartbeat IPC: 1.18352 cumulative IPC: 1.07355 (Simulation time: 3 hr 10 min 1 sec) 
Heartbeat CPU 2 instructions: 740000000 cycles: 816761675 heartbeat IPC: 0.722228 cumulative IPC: 0.622445 (Simulation time: 3 hr 10 min 32 sec) 
Heartbeat CPU 0 instructions: 1080000000 cycles: 822609905 heartbeat IPC: 1.16218 cumulative IPC: 1.0747 (Simulation time: 3 hr 11 min 38 sec) 
Heartbeat CPU 1 instructions: 820000000 cycles: 829290499 heartbeat IPC: 0.584993 cumulative IPC: 0.732013 (Simulation time: 3 hr 12 min 55 sec) 
Heartbeat CPU 3 instructions: 560000000 cycles: 829618224 heartbeat IPC: 0.334058 cumulative IPC: 0.535972 (Simulation time: 3 hr 12 min 59 sec) 
Heartbeat CPU 2 instructions: 750000003 cycles: 830594315 heartbeat IPC: 0.722928 cumulative IPC: 0.624512 (Simulation time: 3 hr 13 min 9 sec) 
Heartbeat CPU 0 instructions: 1090000000 cycles: 830804082 heartbeat IPC: 1.22038 cumulative IPC: 1.07647 (Simulation time: 3 hr 13 min 12 sec) 
Heartbeat CPU 0 instructions: 1100000000 cycles: 839244710 heartbeat IPC: 1.18475 cumulative IPC: 1.07781 (Simulation time: 3 hr 14 min 51 sec) 
Heartbeat CPU 1 instructions: 830000001 cycles: 843990055 heartbeat IPC: 0.680293 cumulative IPC: 0.730904 (Simulation time: 3 hr 15 min 47 sec) 
Heartbeat CPU 2 instructions: 760000000 cycles: 844440125 heartbeat IPC: 0.72224 cumulative IPC: 0.626483 (Simulation time: 3 hr 15 min 52 sec) 
Heartbeat CPU 0 instructions: 1110000001 cycles: 847894369 heartbeat IPC: 1.15612 cumulative IPC: 1.07879 (Simulation time: 3 hr 16 min 33 sec) 
Heartbeat CPU 0 instructions: 1120000000 cycles: 856135300 heartbeat IPC: 1.21345 cumulative IPC: 1.08038 (Simulation time: 3 hr 18 min 11 sec) 
Heartbeat CPU 1 instructions: 840000000 cycles: 857889811 heartbeat IPC: 0.719437 cumulative IPC: 0.730677 (Simulation time: 3 hr 18 min 32 sec) 
Heartbeat CPU 2 instructions: 770000003 cycles: 858279921 heartbeat IPC: 0.722554 cumulative IPC: 0.628381 (Simulation time: 3 hr 18 min 36 sec) 
Heartbeat CPU 3 instructions: 570000000 cycles: 859859739 heartbeat IPC: 0.330671 cumulative IPC: 0.527127 (Simulation time: 3 hr 18 min 55 sec) 
Heartbeat CPU 0 instructions: 1130000001 cycles: 864553124 heartbeat IPC: 1.18796 cumulative IPC: 1.08166 (Simulation time: 3 hr 19 min 51 sec) 
Heartbeat CPU 1 instructions: 850000000 cycles: 871762786 heartbeat IPC: 0.720826 cumulative IPC: 0.730485 (Simulation time: 3 hr 21 min 21 sec) 
Heartbeat CPU 2 instructions: 780000000 cycles: 872116881 heartbeat IPC: 0.722702 cumulative IPC: 0.630209 (Simulation time: 3 hr 21 min 26 sec) 
Heartbeat CPU 0 instructions: 1140000000 cycles: 873241044 heartbeat IPC: 1.15102 cumulative IPC: 1.08251 (Simulation time: 3 hr 21 min 40 sec) 
Heartbeat CPU 3 instructions: 580000000 cycles: 879686831 heartbeat IPC: 0.50436 cumulative IPC: 0.526501 (Simulation time: 3 hr 23 min 4 sec) 
Heartbeat CPU 0 instructions: 1150000001 cycles: 881516955 heartbeat IPC: 1.20833 cumulative IPC: 1.08395 (Simulation time: 3 hr 23 min 28 sec) 
Heartbeat CPU 1 instructions: 860000000 cycles: 885646739 heartbeat IPC: 0.720256 cumulative IPC: 0.73029 (Simulation time: 3 hr 24 min 21 sec) 
Heartbeat CPU 2 instructions: 790000003 cycles: 885983515 heartbeat IPC: 0.721156 cumulative IPC: 0.631941 (Simulation time: 3 hr 24 min 25 sec) 
Heartbeat CPU 0 instructions: 1160000000 cycles: 889869911 heartbeat IPC: 1.19718 cumulative IPC: 1.08524 (Simulation time: 3 hr 25 min 16 sec) 
Heartbeat CPU 3 instructions: 590000001 cycles: 896269082 heartbeat IPC: 0.603055 cumulative IPC: 0.528221 (Simulation time: 3 hr 26 min 39 sec) 
Heartbeat CPU 0 instructions: 1170000002 cycles: 898531981 heartbeat IPC: 1.15446 cumulative IPC: 1.08605 (Simulation time: 3 hr 27 min 8 sec) 
Heartbeat CPU 1 instructions: 870000003 cycles: 899501998 heartbeat IPC: 0.721748 cumulative IPC: 0.73013 (Simulation time: 3 hr 27 min 21 sec) 
Heartbeat CPU 2 instructions: 800000000 cycles: 899776991 heartbeat IPC: 0.72498 cumulative IPC: 0.633671 (Simulation time: 3 hr 27 min 25 sec) 
Heartbeat CPU 0 instructions: 1180000000 cycles: 906730460 heartbeat IPC: 1.21974 cumulative IPC: 1.08751 (Simulation time: 3 hr 28 min 57 sec) 
Heartbeat CPU 3 instructions: 600000000 cycles: 911156249 heartbeat IPC: 0.671719 cumulative IPC: 0.531057 (Simulation time: 3 hr 29 min 56 sec) 
Heartbeat CPU 1 instructions: 880000000 cycles: 913353425 heartbeat IPC: 0.721947 cumulative IPC: 0.72998 (Simulation time: 3 hr 30 min 27 sec) 
Heartbeat CPU 2 instructions: 810000003 cycles: 913565534 heartbeat IPC: 0.72524 cumulative IPC: 0.635342 (Simulation time: 3 hr 30 min 30 sec) 
Heartbeat CPU 0 instructions: 1190000000 cycles: 914967163 heartbeat IPC: 1.21408 cumulative IPC: 1.08889 (Simulation time: 3 hr 30 min 50 sec) 
Heartbeat CPU 0 instructions: 1200000000 cycles: 923693378 heartbeat IPC: 1.14597 cumulative IPC: 1.08954 (Simulation time: 3 hr 32 min 47 sec) 
Heartbeat CPU 3 instructions: 610000001 cycles: 924207696 heartbeat IPC: 0.766199 cumulative IPC: 0.535062 (Simulation time: 3 hr 32 min 54 sec) 
Heartbeat CPU 1 instructions: 890000000 cycles: 927235564 heartbeat IPC: 0.72035 cumulative IPC: 0.729807 (Simulation time: 3 hr 33 min 35 sec) 
Heartbeat CPU 2 instructions: 820000000 cycles: 927394499 heartbeat IPC: 0.72312 cumulative IPC: 0.636919 (Simulation time: 3 hr 33 min 37 sec) 
Heartbeat CPU 0 instructions: 1210000002 cycles: 931945069 heartbeat IPC: 1.21187 cumulative IPC: 1.09084 (Simulation time: 3 hr 34 min 38 sec) 
Heartbeat CPU 3 instructions: 620000000 cycles: 937545951 heartbeat IPC: 0.749723 cumulative IPC: 0.538735 (Simulation time: 3 hr 35 min 53 sec) 
Heartbeat CPU 0 instructions: 1220000000 cycles: 940203959 heartbeat IPC: 1.21082 cumulative IPC: 1.09211 (Simulation time: 3 hr 36 min 30 sec) 
Heartbeat CPU 1 instructions: 900000000 cycles: 941067695 heartbeat IPC: 0.722954 cumulative IPC: 0.729686 (Simulation time: 3 hr 36 min 41 sec) 
Heartbeat CPU 2 instructions: 830000000 cycles: 941292176 heartbeat IPC: 0.719545 cumulative IPC: 0.638385 (Simulation time: 3 hr 36 min 44 sec) 
Heartbeat CPU 0 instructions: 1230000002 cycles: 948894155 heartbeat IPC: 1.15072 cumulative IPC: 1.09275 (Simulation time: 3 hr 38 min 26 sec) 
Heartbeat CPU 3 instructions: 630000000 cycles: 949562969 heartbeat IPC: 0.832153 cumulative IPC: 0.543189 (Simulation time: 3 hr 38 min 36 sec) 
Heartbeat CPU 1 instructions: 910000000 cycles: 954952034 heartbeat IPC: 0.720236 cumulative IPC: 0.729521 (Simulation time: 3 hr 39 min 54 sec) 
Heartbeat CPU 2 instructions: 840000000 cycles: 955311288 heartbeat IPC: 0.713312 cumulative IPC: 0.639703 (Simulation time: 3 hr 39 min 59 sec) 
Heartbeat CPU 0 instructions: 1240000000 cycles: 957330167 heartbeat IPC: 1.18539 cumulative IPC: 1.09373 (Simulation time: 3 hr 40 min 28 sec) 
Heartbeat CPU 3 instructions: 640000000 cycles: 957443340 heartbeat IPC: 1.26898 cumulative IPC: 0.550343 (Simulation time: 3 hr 40 min 30 sec) 
Heartbeat CPU 3 instructions: 650000001 cycles: 965387324 heartbeat IPC: 1.25881 cumulative IPC: 0.557313 (Simulation time: 3 hr 42 min 24 sec) 
Heartbeat CPU 0 instructions: 1250000003 cycles: 965772135 heartbeat IPC: 1.18456 cumulative IPC: 1.09468 (Simulation time: 3 hr 42 min 29 sec) 
Heartbeat CPU 1 instructions: 920000000 cycles: 968898128 heartbeat IPC: 0.717047 cumulative IPC: 0.729306 (Simulation time: 3 hr 43 min 14 sec) 
Heartbeat CPU 2 instructions: 850000000 cycles: 969339977 heartbeat IPC: 0.712825 cumulative IPC: 0.640967 (Simulation time: 3 hr 43 min 20 sec) 
Heartbeat CPU 3 instructions: 660000000 cycles: 973275214 heartbeat IPC: 1.26777 cumulative IPC: 0.564186 (Simulation time: 3 hr 44 min 16 sec) 
Heartbeat CPU 0 instructions: 1260000000 cycles: 974631664 heartbeat IPC: 1.12873 cumulative IPC: 1.09505 (Simulation time: 3 hr 44 min 36 sec) 
Heartbeat CPU 3 instructions: 670000003 cycles: 981244912 heartbeat IPC: 1.25475 cumulative IPC: 0.570871 (Simulation time: 3 hr 46 min 11 sec) 
Heartbeat CPU 1 instructions: 930000001 cycles: 982776170 heartbeat IPC: 0.720563 cumulative IPC: 0.729159 (Simulation time: 3 hr 46 min 33 sec) 
Heartbeat CPU 0 instructions: 1270000002 cycles: 983133663 heartbeat IPC: 1.17619 cumulative IPC: 1.09589 (Simulation time: 3 hr 46 min 38 sec) 
Heartbeat CPU 2 instructions: 860000000 cycles: 983368431 heartbeat IPC: 0.712837 cumulative IPC: 0.642188 (Simulation time: 3 hr 46 min 41 sec) 
Heartbeat CPU 3 instructions: 680000000 cycles: 989173578 heartbeat IPC: 1.26125 cumulative IPC: 0.577456 (Simulation time: 3 hr 48 min 5 sec) 
Heartbeat CPU 0 instructions: 1280000000 cycles: 991539140 heartbeat IPC: 1.1897 cumulative IPC: 1.09683 (Simulation time: 3 hr 48 min 40 sec) 
Heartbeat CPU 1 instructions: 940000000 cycles: 996657478 heartbeat IPC: 0.720393 cumulative IPC: 0.729014 (Simulation time: 3 hr 49 min 53 sec) 
Heartbeat CPU 3 instructions: 690000002 cycles: 997130203 heartbeat IPC: 1.25681 cumulative IPC: 0.583897 (Simulation time: 3 hr 49 min 59 sec) 
Heartbeat CPU 2 instructions: 870000002 cycles: 997384908 heartbeat IPC: 0.713446 cumulative IPC: 0.643378 (Simulation time: 3 hr 50 min 3 sec) 
Heartbeat CPU 0 instructions: 1290000003 cycles: 1000389298 heartbeat IPC: 1.12992 cumulative IPC: 1.09718 (Simulation time: 3 hr 50 min 46 sec) 
Heartbeat CPU 3 instructions: 700000000 cycles: 1005100528 heartbeat IPC: 1.25465 cumulative IPC: 0.590208 (Simulation time: 3 hr 51 min 55 sec) 
Heartbeat CPU 0 instructions: 1300000000 cycles: 1008917549 heartbeat IPC: 1.17257 cumulative IPC: 1.09793 (Simulation time: 3 hr 52 min 50 sec) 
Heartbeat CPU 1 instructions: 950000001 cycles: 1010009542 heartbeat IPC: 0.748948 cumulative IPC: 0.729327 (Simulation time: 3 hr 53 min 5 sec) 
Heartbeat CPU 2 instructions: 880000000 cycles: 1011464596 heartbeat IPC: 0.710243 cumulative IPC: 0.644481 (Simulation time: 3 hr 53 min 26 sec) 
Heartbeat CPU 3 instructions: 710000000 cycles: 1012992373 heartbeat IPC: 1.26713 cumulative IPC: 0.596456 (Simulation time: 3 hr 53 min 48 sec) 
Heartbeat CPU 0 instructions: 1310000003 cycles: 1017343464 heartbeat IPC: 1.18682 cumulative IPC: 1.09881 (Simulation time: 3 hr 54 min 51 sec) 
Heartbeat CPU 3 instructions: 720000000 cycles: 1020933673 heartbeat IPC: 1.25924 cumulative IPC: 0.602555 (Simulation time: 3 hr 55 min 43 sec) 
Heartbeat CPU 1 instructions: 960000000 cycles: 1023883552 heartbeat IPC: 0.720772 cumulative IPC: 0.72919 (Simulation time: 3 hr 56 min 24 sec) 
Heartbeat CPU 2 instructions: 890000000 cycles: 1025457024 heartbeat IPC: 0.714672 cumulative IPC: 0.645613 (Simulation time: 3 hr 56 min 47 sec) 
Heartbeat CPU 0 instructions: 1320000000 cycles: 1026183534 heartbeat IPC: 1.13121 cumulative IPC: 1.09914 (Simulation time: 3 hr 56 min 58 sec) 
Heartbeat CPU 3 instructions: 730000002 cycles: 1028925263 heartbeat IPC: 1.25132 cumulative IPC: 0.608507 (Simulation time: 3 hr 57 min 37 sec) 
Heartbeat CPU 0 instructions: 1330000003 cycles: 1034728142 heartbeat IPC: 1.17033 cumulative IPC: 1.09983 (Simulation time: 3 hr 58 min 59 sec) 
Heartbeat CPU 3 instructions: 740000000 cycles: 1036860112 heartbeat IPC: 1.26026 cumulative IPC: 0.614391 (Simulation time: 3 hr 59 min 29 sec) 
Heartbeat CPU 1 instructions: 970000003 cycles: 1037802374 heartbeat IPC: 0.718452 cumulative IPC: 0.72902 (Simulation time: 3 hr 59 min 43 sec) 
Heartbeat CPU 2 instructions: 900000000 cycles: 1039476607 heartbeat IPC: 0.713288 cumulative IPC: 0.646689 (Simulation time: 4 hr 0 min 7 sec) 
Heartbeat CPU 0 instructions: 1340000000 cycles: 1043096759 heartbeat IPC: 1.19494 cumulative IPC: 1.10073 (Simulation time: 4 hr 0 min 59 sec) 
Heartbeat CPU 3 instructions: 750000001 cycles: 1044833307 heartbeat IPC: 1.2542 cumulative IPC: 0.620143 (Simulation time: 4 hr 1 min 24 sec) 
Heartbeat CPU 1 instructions: 980000000 cycles: 1051702317 heartbeat IPC: 0.719427 cumulative IPC: 0.728871 (Simulation time: 4 hr 3 min 1 sec) 
Heartbeat CPU 0 instructions: 1350000000 cycles: 1051908611 heartbeat IPC: 1.13484 cumulative IPC: 1.10107 (Simulation time: 4 hr 3 min 4 sec) 
Heartbeat CPU 3 instructions: 760000000 cycles: 1052779404 heartbeat IPC: 1.25848 cumulative IPC: 0.625812 (Simulation time: 4 hr 3 min 17 sec) 
Heartbeat CPU 2 instructions: 910000002 cycles: 1053545130 heartbeat IPC: 0.710807 cumulative IPC: 0.647697 (Simulation time: 4 hr 3 min 28 sec) 
Heartbeat CPU 0 instructions: 1360000000 cycles: 1060496005 heartbeat IPC: 1.1645 cumulative IPC: 1.10167 (Simulation time: 4 hr 5 min 7 sec) 
Heartbeat CPU 3 instructions: 770000003 cycles: 1060713558 heartbeat IPC: 1.26037 cumulative IPC: 0.631389 (Simulation time: 4 hr 5 min 10 sec) 
Finished CPU 0 instructions: 1000000003 cycles: 907442750 cumulative IPC: 1.102 (Simulation time: 4 hr 6 min 16 sec) 
Heartbeat CPU 1 instructions: 990000002 cycles: 1065597876 heartbeat IPC: 0.719655 cumulative IPC: 0.728729 (Simulation time: 4 hr 6 min 19 sec) 
Heartbeat CPU 2 instructions: 920000000 cycles: 1067537234 heartbeat IPC: 0.714689 cumulative IPC: 0.648727 (Simulation time: 4 hr 6 min 47 sec) 
Heartbeat CPU 3 instructions: 780000000 cycles: 1068714156 heartbeat IPC: 1.24991 cumulative IPC: 0.636822 (Simulation time: 4 hr 7 min 4 sec) 
Heartbeat CPU 0 instructions: 1370000000 cycles: 1068853945 heartbeat IPC: 1.19647 cumulative IPC: 1.10254 (Simulation time: 4 hr 7 min 6 sec) 
Heartbeat CPU 3 instructions: 790000002 cycles: 1076593120 heartbeat IPC: 1.2692 cumulative IPC: 0.642246 (Simulation time: 4 hr 8 min 59 sec) 
Heartbeat CPU 0 instructions: 1380000000 cycles: 1077675957 heartbeat IPC: 1.13353 cumulative IPC: 1.10284 (Simulation time: 4 hr 9 min 16 sec) 
Heartbeat CPU 2 instructions: 930000002 cycles: 1079180313 heartbeat IPC: 0.85888 cumulative IPC: 0.651383 (Simulation time: 4 hr 9 min 38 sec) 
Heartbeat CPU 1 instructions: 1000000000 cycles: 1079501614 heartbeat IPC: 0.719231 cumulative IPC: 0.728586 (Simulation time: 4 hr 9 min 43 sec) 
Heartbeat CPU 3 instructions: 800000000 cycles: 1084554981 heartbeat IPC: 1.25599 cumulative IPC: 0.647519 (Simulation time: 4 hr 10 min 56 sec) 
Heartbeat CPU 0 instructions: 1390000000 cycles: 1086282305 heartbeat IPC: 1.16193 cumulative IPC: 1.10338 (Simulation time: 4 hr 11 min 20 sec) 
Heartbeat CPU 3 instructions: 810000000 cycles: 1092555599 heartbeat IPC: 1.2499 cumulative IPC: 0.652676 (Simulation time: 4 hr 12 min 51 sec) 
Heartbeat CPU 2 instructions: 940000000 cycles: 1092950999 heartbeat IPC: 0.72618 cumulative IPC: 0.652485 (Simulation time: 4 hr 12 min 57 sec) 
Heartbeat CPU 1 instructions: 1010000000 cycles: 1093402305 heartbeat IPC: 0.719389 cumulative IPC: 0.728449 (Simulation time: 4 hr 13 min 4 sec) 
Heartbeat CPU 0 instructions: 1400000000 cycles: 1094639598 heartbeat IPC: 1.19656 cumulative IPC: 1.10422 (Simulation time: 4 hr 13 min 21 sec) 
Heartbeat CPU 3 instructions: 820000000 cycles: 1100468165 heartbeat IPC: 1.26381 cumulative IPC: 0.657806 (Simulation time: 4 hr 14 min 45 sec) 
Heartbeat CPU 0 instructions: 1410000002 cycles: 1103448384 heartbeat IPC: 1.13523 cumulative IPC: 1.1045 (Simulation time: 4 hr 15 min 28 sec) 
Heartbeat CPU 2 instructions: 950000000 cycles: 1106882426 heartbeat IPC: 0.717802 cumulative IPC: 0.653444 (Simulation time: 4 hr 16 min 18 sec) 
Heartbeat CPU 1 instructions: 1020000000 cycles: 1107297326 heartbeat IPC: 0.719682 cumulative IPC: 0.728321 (Simulation time: 4 hr 16 min 24 sec) 
Heartbeat CPU 3 instructions: 830000001 cycles: 1108454826 heartbeat IPC: 1.25209 cumulative IPC: 0.6628 (Simulation time: 4 hr 16 min 41 sec) 
Heartbeat CPU 0 instructions: 1420000000 cycles: 1112058124 heartbeat IPC: 1.16148 cumulative IPC: 1.10502 (Simulation time: 4 hr 17 min 32 sec) 
Heartbeat CPU 3 instructions: 840000000 cycles: 1116361244 heartbeat IPC: 1.2648 cumulative IPC: 0.667766 (Simulation time: 4 hr 18 min 35 sec) 
Heartbeat CPU 0 instructions: 1430000001 cycles: 1120414572 heartbeat IPC: 1.19668 cumulative IPC: 1.10581 (Simulation time: 4 hr 19 min 33 sec) 
Heartbeat CPU 2 instructions: 960000000 cycles: 1120839196 heartbeat IPC: 0.716498 cumulative IPC: 0.654358 (Simulation time: 4 hr 19 min 39 sec) 
Heartbeat CPU 1 instructions: 1030000002 cycles: 1121200384 heartbeat IPC: 0.719266 cumulative IPC: 0.72819 (Simulation time: 4 hr 19 min 45 sec) 
Heartbeat CPU 3 instructions: 850000001 cycles: 1124294317 heartbeat IPC: 1.26055 cumulative IPC: 0.672632 (Simulation time: 4 hr 20 min 29 sec) 
Heartbeat CPU 0 instructions: 1440000000 cycles: 1129187618 heartbeat IPC: 1.13985 cumulative IPC: 1.10612 (Simulation time: 4 hr 21 min 40 sec) 
Heartbeat CPU 3 instructions: 860000000 cycles: 1132268658 heartbeat IPC: 1.25402 cumulative IPC: 0.677391 (Simulation time: 4 hr 22 min 24 sec) 
Heartbeat CPU 2 instructions: 970000003 cycles: 1134848533 heartbeat IPC: 0.71381 cumulative IPC: 0.65521 (Simulation time: 4 hr 23 min 1 sec) 
Heartbeat CPU 1 instructions: 1040000000 cycles: 1135057135 heartbeat IPC: 0.72167 cumulative IPC: 0.728098 (Simulation time: 4 hr 23 min 4 sec) 
Heartbeat CPU 0 instructions: 1450000001 cycles: 1137838065 heartbeat IPC: 1.15601 cumulative IPC: 1.10656 (Simulation time: 4 hr 23 min 44 sec) 
Heartbeat CPU 3 instructions: 870000002 cycles: 1140178851 heartbeat IPC: 1.26419 cumulative IPC: 0.682116 (Simulation time: 4 hr 24 min 18 sec) 
Heartbeat CPU 0 instructions: 1460000000 cycles: 1146214567 heartbeat IPC: 1.19382 cumulative IPC: 1.1073 (Simulation time: 4 hr 25 min 46 sec) 
Heartbeat CPU 3 instructions: 880000000 cycles: 1148125453 heartbeat IPC: 1.2584 cumulative IPC: 0.686741 (Simulation time: 4 hr 26 min 13 sec) 
Heartbeat CPU 2 instructions: 980000000 cycles: 1148744941 heartbeat IPC: 0.71961 cumulative IPC: 0.656113 (Simulation time: 4 hr 26 min 22 sec) 
Heartbeat CPU 1 instructions: 1050000001 cycles: 1148912468 heartbeat IPC: 0.721744 cumulative IPC: 0.728009 (Simulation time: 4 hr 26 min 24 sec) 
Heartbeat CPU 0 instructions: 1470000000 cycles: 1154997681 heartbeat IPC: 1.13855 cumulative IPC: 1.10758 (Simulation time: 4 hr 27 min 52 sec) 
Heartbeat CPU 3 instructions: 890000000 cycles: 1156103967 heartbeat IPC: 1.25337 cumulative IPC: 0.69127 (Simulation time: 4 hr 28 min 8 sec) 
Heartbeat CPU 2 instructions: 990000003 cycles: 1162718638 heartbeat IPC: 0.71563 cumulative IPC: 0.656941 (Simulation time: 4 hr 29 min 43 sec) 
Heartbeat CPU 1 instructions: 1060000000 cycles: 1162796132 heartbeat IPC: 0.720271 cumulative IPC: 0.727902 (Simulation time: 4 hr 29 min 44 sec) 
Heartbeat CPU 0 instructions: 1480000000 cycles: 1163671424 heartbeat IPC: 1.1529 cumulative IPC: 1.10797 (Simulation time: 4 hr 29 min 57 sec) 
Heartbeat CPU 3 instructions: 900000000 cycles: 1163988189 heartbeat IPC: 1.26836 cumulative IPC: 0.695793 (Simulation time: 4 hr 30 min 1 sec) 
Heartbeat CPU 3 instructions: 910000002 cycles: 1171947836 heartbeat IPC: 1.25634 cumulative IPC: 0.700193 (Simulation time: 4 hr 31 min 57 sec) 
Heartbeat CPU 0 instructions: 1490000003 cycles: 1172003107 heartbeat IPC: 1.20024 cumulative IPC: 1.10873 (Simulation time: 4 hr 31 min 57 sec) 
Heartbeat CPU 2 instructions: 1000000000 cycles: 1176698964 heartbeat IPC: 0.715291 cumulative IPC: 0.657742 (Simulation time: 4 hr 33 min 4 sec) 
Heartbeat CPU 1 instructions: 1070000001 cycles: 1176756334 heartbeat IPC: 0.716322 cumulative IPC: 0.727744 (Simulation time: 4 hr 33 min 5 sec) 
Heartbeat CPU 3 instructions: 920000000 cycles: 1179857030 heartbeat IPC: 1.26435 cumulative IPC: 0.704559 (Simulation time: 4 hr 33 min 50 sec) 
Heartbeat CPU 0 instructions: 1500000000 cycles: 1180790704 heartbeat IPC: 1.13797 cumulative IPC: 1.10898 (Simulation time: 4 hr 34 min 4 sec) 
Heartbeat CPU 3 instructions: 930000001 cycles: 1187806302 heartbeat IPC: 1.25798 cumulative IPC: 0.708831 (Simulation time: 4 hr 35 min 45 sec) 
Heartbeat CPU 0 instructions: 1510000001 cycles: 1189478985 heartbeat IPC: 1.15098 cumulative IPC: 1.10933 (Simulation time: 4 hr 36 min 9 sec) 
Heartbeat CPU 2 instructions: 1010000002 cycles: 1190650312 heartbeat IPC: 0.716777 cumulative IPC: 0.658539 (Simulation time: 4 hr 36 min 26 sec) 
Heartbeat CPU 1 instructions: 1080000000 cycles: 1190745319 heartbeat IPC: 0.714848 cumulative IPC: 0.727569 (Simulation time: 4 hr 36 min 27 sec) 
Heartbeat CPU 3 instructions: 940000000 cycles: 1195796297 heartbeat IPC: 1.25157 cumulative IPC: 0.713009 (Simulation time: 4 hr 37 min 40 sec) 
Heartbeat CPU 0 instructions: 1520000000 cycles: 1197837631 heartbeat IPC: 1.19637 cumulative IPC: 1.11003 (Simulation time: 4 hr 38 min 10 sec) 
Heartbeat CPU 3 instructions: 950000003 cycles: 1203715108 heartbeat IPC: 1.26282 cumulative IPC: 0.717172 (Simulation time: 4 hr 39 min 34 sec) 
Heartbeat CPU 1 instructions: 1090000001 cycles: 1204609792 heartbeat IPC: 0.721268 cumulative IPC: 0.727485 (Simulation time: 4 hr 39 min 47 sec) 
Heartbeat CPU 2 instructions: 1020000000 cycles: 1204629069 heartbeat IPC: 0.715371 cumulative IPC: 0.659298 (Simulation time: 4 hr 39 min 47 sec) 
Heartbeat CPU 0 instructions: 1530000001 cycles: 1206623046 heartbeat IPC: 1.13825 cumulative IPC: 1.11027 (Simulation time: 4 hr 40 min 16 sec) 
Heartbeat CPU 3 instructions: 960000000 cycles: 1211702191 heartbeat IPC: 1.25202 cumulative IPC: 0.721226 (Simulation time: 4 hr 41 min 30 sec) 
Heartbeat CPU 0 instructions: 1540000000 cycles: 1215339842 heartbeat IPC: 1.14721 cumulative IPC: 1.11057 (Simulation time: 4 hr 42 min 22 sec) 
Heartbeat CPU 1 instructions: 1100000000 cycles: 1218577816 heartbeat IPC: 0.715921 cumulative IPC: 0.727333 (Simulation time: 4 hr 43 min 9 sec) 
Heartbeat CPU 2 instructions: 1030000000 cycles: 1218618556 heartbeat IPC: 0.714822 cumulative IPC: 0.660031 (Simulation time: 4 hr 43 min 9 sec) 
Heartbeat CPU 3 instructions: 970000001 cycles: 1219680149 heartbeat IPC: 1.25345 cumulative IPC: 0.725226 (Simulation time: 4 hr 43 min 24 sec) 
Heartbeat CPU 0 instructions: 1550000000 cycles: 1223668692 heartbeat IPC: 1.20065 cumulative IPC: 1.11128 (Simulation time: 4 hr 44 min 22 sec) 
Heartbeat CPU 3 instructions: 980000000 cycles: 1227565979 heartbeat IPC: 1.2681 cumulative IPC: 0.729228 (Simulation time: 4 hr 45 min 18 sec) 
Heartbeat CPU 0 instructions: 1560000000 cycles: 1232466130 heartbeat IPC: 1.13669 cumulative IPC: 1.11148 (Simulation time: 4 hr 46 min 28 sec) 
Heartbeat CPU 1 instructions: 1110000001 cycles: 1232495879 heartbeat IPC: 0.718491 cumulative IPC: 0.727219 (Simulation time: 4 hr 46 min 29 sec) 
Heartbeat CPU 2 instructions: 1040000000 cycles: 1232587130 heartbeat IPC: 0.715893 cumulative IPC: 0.660757 (Simulation time: 4 hr 46 min 30 sec) 
Heartbeat CPU 3 instructions: 990000003 cycles: 1235507327 heartbeat IPC: 1.25923 cumulative IPC: 0.733134 (Simulation time: 4 hr 47 min 11 sec) 
Heartbeat CPU 0 instructions: 1570000002 cycles: 1241264427 heartbeat IPC: 1.13658 cumulative IPC: 1.11169 (Simulation time: 4 hr 48 min 23 sec) 
Heartbeat CPU 3 instructions: 1000000000 cycles: 1243514759 heartbeat IPC: 1.24884 cumulative IPC: 0.736938 (Simulation time: 4 hr 48 min 52 sec) 
Heartbeat CPU 1 instructions: 1120000000 cycles: 1246437440 heartbeat IPC: 0.71728 cumulative IPC: 0.727091 (Simulation time: 4 hr 49 min 32 sec) 
Heartbeat CPU 0 instructions: 1580000000 cycles: 1249554086 heartbeat IPC: 1.20632 cumulative IPC: 1.11241 (Simulation time: 4 hr 50 min 15 sec) 
Heartbeat CPU 3 instructions: 1010000001 cycles: 1251450256 heartbeat IPC: 1.26016 cumulative IPC: 0.740735 (Simulation time: 4 hr 50 min 36 sec) 
Heartbeat CPU 2 instructions: 1050000001 cycles: 1254209272 heartbeat IPC: 0.462489 cumulative IPC: 0.656846 (Simulation time: 4 hr 51 min 11 sec) 
Heartbeat CPU 0 instructions: 1590000002 cycles: 1258355008 heartbeat IPC: 1.13624 cumulative IPC: 1.1126 (Simulation time: 4 hr 52 min 9 sec) 
Heartbeat CPU 3 instructions: 1020000000 cycles: 1259460898 heartbeat IPC: 1.24834 cumulative IPC: 0.744426 (Simulation time: 4 hr 52 min 25 sec) 
Heartbeat CPU 1 instructions: 1130000001 cycles: 1260384505 heartbeat IPC: 0.716997 cumulative IPC: 0.726964 (Simulation time: 4 hr 52 min 36 sec) 
Heartbeat CPU 0 instructions: 1600000000 cycles: 1267116437 heartbeat IPC: 1.14137 cumulative IPC: 1.11282 (Simulation time: 4 hr 54 min 2 sec) 
Heartbeat CPU 3 instructions: 1030000000 cycles: 1267427086 heartbeat IPC: 1.25531 cumulative IPC: 0.748094 (Simulation time: 4 hr 54 min 6 sec) 
Heartbeat CPU 1 instructions: 1140000000 cycles: 1274368143 heartbeat IPC: 0.715121 cumulative IPC: 0.726815 (Simulation time: 4 hr 55 min 33 sec) 
Heartbeat CPU 0 instructions: 1610000002 cycles: 1275480532 heartbeat IPC: 1.19559 cumulative IPC: 1.11344 (Simulation time: 4 hr 55 min 46 sec) 
Heartbeat CPU 2 instructions: 1060000000 cycles: 1275559568 heartbeat IPC: 0.468378 cumulative IPC: 0.653246 (Simulation time: 4 hr 55 min 47 sec) 
Heartbeat CPU 3 instructions: 1040000000 cycles: 1278258674 heartbeat IPC: 0.923226 cumulative IPC: 0.749788 (Simulation time: 4 hr 56 min 20 sec) 
Heartbeat CPU 0 instructions: 1620000000 cycles: 1283959823 heartbeat IPC: 1.17934 cumulative IPC: 1.11394 (Simulation time: 4 hr 57 min 32 sec) 
Heartbeat CPU 1 instructions: 1150000000 cycles: 1288306430 heartbeat IPC: 0.717448 cumulative IPC: 0.7267 (Simulation time: 4 hr 58 min 26 sec) 
Heartbeat CPU 2 instructions: 1070000000 cycles: 1290298791 heartbeat IPC: 0.678462 cumulative IPC: 0.653574 (Simulation time: 4 hr 58 min 51 sec) 
Heartbeat CPU 0 instructions: 1630000001 cycles: 1292504727 heartbeat IPC: 1.17029 cumulative IPC: 1.11436 (Simulation time: 4 hr 59 min 18 sec) 
Heartbeat CPU 3 instructions: 1050000001 cycles: 1295392761 heartbeat IPC: 0.583632 cumulative IPC: 0.747285 (Simulation time: 4 hr 59 min 54 sec) 
Heartbeat CPU 0 instructions: 1640000000 cycles: 1300601201 heartbeat IPC: 1.23511 cumulative IPC: 1.11522 (Simulation time: 5 hr 1 min 0 sec) 
Heartbeat CPU 1 instructions: 1160000000 cycles: 1302049501 heartbeat IPC: 0.727639 cumulative IPC: 0.726711 (Simulation time: 5 hr 1 min 18 sec) 
Heartbeat CPU 2 instructions: 1080000000 cycles: 1305037882 heartbeat IPC: 0.678468 cumulative IPC: 0.653894 (Simulation time: 5 hr 1 min 54 sec) 
Heartbeat CPU 0 instructions: 1650000001 cycles: 1309008406 heartbeat IPC: 1.18946 cumulative IPC: 1.11576 (Simulation time: 5 hr 2 min 43 sec) 
Heartbeat CPU 3 instructions: 1060000000 cycles: 1312520457 heartbeat IPC: 0.58385 cumulative IPC: 0.74486 (Simulation time: 5 hr 3 min 27 sec) 
Heartbeat CPU 1 instructions: 1170000000 cycles: 1316002744 heartbeat IPC: 0.716679 cumulative IPC: 0.72659 (Simulation time: 5 hr 4 min 10 sec) 
Heartbeat CPU 0 instructions: 1660000000 cycles: 1317569895 heartbeat IPC: 1.16802 cumulative IPC: 1.11615 (Simulation time: 5 hr 4 min 29 sec) 
Heartbeat CPU 2 instructions: 1090000001 cycles: 1320324150 heartbeat IPC: 0.654182 cumulative IPC: 0.653898 (Simulation time: 5 hr 5 min 4 sec) 
Heartbeat CPU 0 instructions: 1670000002 cycles: 1325660833 heartbeat IPC: 1.23595 cumulative IPC: 1.11698 (Simulation time: 5 hr 6 min 12 sec) 
Heartbeat CPU 1 instructions: 1180000000 cycles: 1328960292 heartbeat IPC: 0.771751 cumulative IPC: 0.72709 (Simulation time: 5 hr 6 min 53 sec) 
Heartbeat CPU 3 instructions: 1070000000 cycles: 1329710207 heartbeat IPC: 0.581742 cumulative IPC: 0.742467 (Simulation time: 5 hr 7 min 3 sec) 
Heartbeat CPU 0 instructions: 1680000000 cycles: 1334129525 heartbeat IPC: 1.18082 cumulative IPC: 1.11744 (Simulation time: 5 hr 7 min 55 sec) 
Heartbeat CPU 2 instructions: 1100000000 cycles: 1337052653 heartbeat IPC: 0.597782 cumulative IPC: 0.653102 (Simulation time: 5 hr 8 min 28 sec) 
Heartbeat CPU 0 instructions: 1690000003 cycles: 1342749086 heartbeat IPC: 1.16015 cumulative IPC: 1.11775 (Simulation time: 5 hr 9 min 32 sec) 
Heartbeat CPU 1 instructions: 1190000001 cycles: 1342821982 heartbeat IPC: 0.721413 cumulative IPC: 0.727023 (Simulation time: 5 hr 9 min 33 sec) 
Heartbeat CPU 3 instructions: 1080000000 cycles: 1347316540 heartbeat IPC: 0.567977 cumulative IPC: 0.739884 (Simulation time: 5 hr 10 min 25 sec) 
Heartbeat CPU 0 instructions: 1700000000 cycles: 1350890228 heartbeat IPC: 1.22833 cumulative IPC: 1.1185 (Simulation time: 5 hr 11 min 5 sec) 
Heartbeat CPU 1 instructions: 1200000000 cycles: 1356616227 heartbeat IPC: 0.72494 cumulative IPC: 0.727 (Simulation time: 5 hr 12 min 9 sec) 
Heartbeat CPU 0 instructions: 1710000003 cycles: 1359405738 heartbeat IPC: 1.17433 cumulative IPC: 1.1189 (Simulation time: 5 hr 12 min 41 sec) 
Heartbeat CPU 3 instructions: 1090000000 cycles: 1364939771 heartbeat IPC: 0.567433 cumulative IPC: 0.737366 (Simulation time: 5 hr 13 min 43 sec) 
Heartbeat CPU 2 instructions: 1110000002 cycles: 1367337325 heartbeat IPC: 0.3302 cumulative IPC: 0.645016 (Simulation time: 5 hr 14 min 10 sec) 
Heartbeat CPU 0 instructions: 1720000000 cycles: 1368032520 heartbeat IPC: 1.15918 cumulative IPC: 1.11919 (Simulation time: 5 hr 14 min 18 sec) 
Heartbeat CPU 1 instructions: 1210000003 cycles: 1370419637 heartbeat IPC: 0.724459 cumulative IPC: 0.726971 (Simulation time: 5 hr 14 min 45 sec) 
Heartbeat CPU 0 instructions: 1730000000 cycles: 1376279427 heartbeat IPC: 1.21258 cumulative IPC: 1.11982 (Simulation time: 5 hr 15 min 52 sec) 
Heartbeat CPU 3 instructions: 1100000000 cycles: 1382320029 heartbeat IPC: 0.575365 cumulative IPC: 0.735067 (Simulation time: 5 hr 17 min 0 sec) 
Heartbeat CPU 1 instructions: 1220000000 cycles: 1384209863 heartbeat IPC: 0.725151 cumulative IPC: 0.72695 (Simulation time: 5 hr 17 min 22 sec) 
Heartbeat CPU 0 instructions: 1740000000 cycles: 1384678311 heartbeat IPC: 1.19063 cumulative IPC: 1.1203 (Simulation time: 5 hr 17 min 27 sec) 
Heartbeat CPU 0 instructions: 1750000000 cycles: 1393330012 heartbeat IPC: 1.15584 cumulative IPC: 1.12055 (Simulation time: 5 hr 19 min 5 sec) 
Heartbeat CPU 1 instructions: 1230000001 cycles: 1398023107 heartbeat IPC: 0.723943 cumulative IPC: 0.726917 (Simulation time: 5 hr 19 min 59 sec) 
Heartbeat CPU 2 instructions: 1120000000 cycles: 1398084810 heartbeat IPC: 0.32523 cumulative IPC: 0.637087 (Simulation time: 5 hr 20 min 0 sec) 
Heartbeat CPU 3 instructions: 1110000001 cycles: 1399678362 heartbeat IPC: 0.576092 cumulative IPC: 0.732844 (Simulation time: 5 hr 20 min 18 sec) 
Heartbeat CPU 0 instructions: 1760000000 cycles: 1401506310 heartbeat IPC: 1.22305 cumulative IPC: 1.12123 (Simulation time: 5 hr 20 min 38 sec) 
Heartbeat CPU 0 instructions: 1770000000 cycles: 1409953092 heartbeat IPC: 1.18388 cumulative IPC: 1.12165 (Simulation time: 5 hr 22 min 17 sec) 
Heartbeat CPU 1 instructions: 1240000000 cycles: 1411787984 heartbeat IPC: 0.726487 cumulative IPC: 0.726912 (Simulation time: 5 hr 22 min 40 sec) 
Heartbeat CPU 3 instructions: 1120000000 cycles: 1417442466 heartbeat IPC: 0.562933 cumulative IPC: 0.730448 (Simulation time: 5 hr 23 min 48 sec) 
Heartbeat CPU 0 instructions: 1780000000 cycles: 1418660803 heartbeat IPC: 1.14841 cumulative IPC: 1.12183 (Simulation time: 5 hr 24 min 3 sec) 
Heartbeat CPU 2 instructions: 1130000000 cycles: 1418892029 heartbeat IPC: 0.480602 cumulative IPC: 0.634505 (Simulation time: 5 hr 24 min 6 sec) 
Heartbeat CPU 1 instructions: 1250000003 cycles: 1425564859 heartbeat IPC: 0.725854 cumulative IPC: 0.7269 (Simulation time: 5 hr 25 min 28 sec) 
Heartbeat CPU 0 instructions: 1790000000 cycles: 1426922780 heartbeat IPC: 1.21036 cumulative IPC: 1.12241 (Simulation time: 5 hr 25 min 45 sec) 
Heartbeat CPU 0 instructions: 1800000000 cycles: 1435323353 heartbeat IPC: 1.19039 cumulative IPC: 1.12286 (Simulation time: 5 hr 27 min 26 sec) 
Heartbeat CPU 3 instructions: 1130000002 cycles: 1435327425 heartbeat IPC: 0.559129 cumulative IPC: 0.728049 (Simulation time: 5 hr 27 min 27 sec) 
Heartbeat CPU 2 instructions: 1140000000 cycles: 1436759540 heartbeat IPC: 0.559675 cumulative IPC: 0.63346 (Simulation time: 5 hr 27 min 44 sec) 
Heartbeat CPU 1 instructions: 1260000000 cycles: 1439358812 heartbeat IPC: 0.724955 cumulative IPC: 0.726879 (Simulation time: 5 hr 28 min 15 sec) 
Heartbeat CPU 0 instructions: 1810000001 cycles: 1444049922 heartbeat IPC: 1.14593 cumulative IPC: 1.12301 (Simulation time: 5 hr 29 min 11 sec) 
Heartbeat CPU 0 instructions: 1820000000 cycles: 1452309087 heartbeat IPC: 1.21078 cumulative IPC: 1.12357 (Simulation time: 5 hr 30 min 55 sec) 
Heartbeat CPU 3 instructions: 1140000000 cycles: 1452952356 heartbeat IPC: 0.567378 cumulative IPC: 0.725863 (Simulation time: 5 hr 31 min 3 sec) 
Heartbeat CPU 1 instructions: 1270000003 cycles: 1453133203 heartbeat IPC: 0.725985 cumulative IPC: 0.72687 (Simulation time: 5 hr 31 min 5 sec) 
Heartbeat CPU 2 instructions: 1150000000 cycles: 1453466632 heartbeat IPC: 0.598548 cumulative IPC: 0.633009 (Simulation time: 5 hr 31 min 10 sec) 
Heartbeat CPU 0 instructions: 1830000003 cycles: 1460551430 heartbeat IPC: 1.21325 cumulative IPC: 1.12414 (Simulation time: 5 hr 32 min 44 sec) 
Heartbeat CPU 2 instructions: 1160000000 cycles: 1466103778 heartbeat IPC: 0.791318 cumulative IPC: 0.634539 (Simulation time: 5 hr 33 min 56 sec) 
Heartbeat CPU 1 instructions: 1280000000 cycles: 1466922366 heartbeat IPC: 0.725207 cumulative IPC: 0.726852 (Simulation time: 5 hr 34 min 6 sec) 
Heartbeat CPU 0 instructions: 1840000000 cycles: 1469304863 heartbeat IPC: 1.14241 cumulative IPC: 1.12426 (Simulation time: 5 hr 34 min 37 sec) 
[...]
Heartbeat CPU 1 instructions: 1500000000 cycles: 1709888373 heartbeat IPC: 1.19368 cumulative IPC: 0.754817 (Simulation time: 6 hr 20 min 31 sec) 
Heartbeat CPU 3 instructions: 1280000000 cycles: 1713772554 heartbeat IPC: 0.547761 cumulative IPC: 0.694163 (Simulation time: 6 hr 21 min 15 sec) 
Heartbeat CPU 0 instructions: 2100000000 cycles: 1716479683 heartbeat IPC: 0.956381 cumulative IPC: 1.11278 (Simulation time: 6 hr 21 min 46 sec) 
Heartbeat CPU 1 instructions: 1510000002 cycles: 1718213414 heartbeat IPC: 1.2012 cumulative IPC: 0.757199 (Simulation time: 6 hr 22 min 6 sec) 
Heartbeat CPU 1 instructions: 1520000000 cycles: 1726615188 heartbeat IPC: 1.19022 cumulative IPC: 0.759518 (Simulation time: 6 hr 23 min 40 sec) 
Heartbeat CPU 0 instructions: 2110000001 cycles: 1728122043 heartbeat IPC: 0.858932 cumulative IPC: 1.1109 (Simulation time: 6 hr 23 min 57 sec) 
Heartbeat CPU 2 instructions: 1280000000 cycles: 1730329203 heartbeat IPC: 0.285765 cumulative IPC: 0.604227 (Simulation time: 6 hr 24 min 21 sec) 
Heartbeat CPU 3 instructions: 1290000000 cycles: 1732180725 heartbeat IPC: 0.543237 cumulative IPC: 0.692398 (Simulation time: 6 hr 24 min 42 sec) 
Heartbeat CPU 1 instructions: 1530000003 cycles: 1734999238 heartbeat IPC: 1.19274 cumulative IPC: 0.761821 (Simulation time: 6 hr 25 min 16 sec) 
Heartbeat CPU 0 instructions: 2120000000 cycles: 1739828031 heartbeat IPC: 0.854264 cumulative IPC: 1.109 (Simulation time: 6 hr 26 min 15 sec) 
Heartbeat CPU 1 instructions: 1540000000 cycles: 1743362893 heartbeat IPC: 1.19565 cumulative IPC: 0.76411 (Simulation time: 6 hr 27 min 1 sec) 
Heartbeat CPU 2 instructions: 1290000001 cycles: 1748052611 heartbeat IPC: 0.564226 cumulative IPC: 0.603781 (Simulation time: 6 hr 28 min 0 sec) 
Heartbeat CPU 0 instructions: 2130000001 cycles: 1750605415 heartbeat IPC: 0.927869 cumulative IPC: 1.10778 (Simulation time: 6 hr 28 min 33 sec) 
Heartbeat CPU 3 instructions: 1300000000 cycles: 1750759368 heartbeat IPC: 0.538252 cumulative IPC: 0.6906 (Simulation time: 6 hr 28 min 35 sec) 
Heartbeat CPU 1 instructions: 1550000000 cycles: 1751754039 heartbeat IPC: 1.19173 cumulative IPC: 0.766361 (Simulation time: 6 hr 28 min 47 sec) 
Heartbeat CPU 1 instructions: 1560000000 cycles: 1760123300 heartbeat IPC: 1.19485 cumulative IPC: 0.768599 (Simulation time: 6 hr 30 min 31 sec) 
Heartbeat CPU 0 instructions: 2140000000 cycles: 1762436067 heartbeat IPC: 0.845262 cumulative IPC: 1.10584 (Simulation time: 6 hr 31 min 0 sec) 
Heartbeat CPU 2 instructions: 1300000000 cycles: 1764232073 heartbeat IPC: 0.618067 cumulative IPC: 0.603925 (Simulation time: 6 hr 31 min 23 sec) 
Heartbeat CPU 1 instructions: 1570000003 cycles: 1768500607 heartbeat IPC: 1.1937 cumulative IPC: 0.770811 (Simulation time: 6 hr 32 min 19 sec) 
Heartbeat CPU 3 instructions: 1310000002 cycles: 1769190960 heartbeat IPC: 0.542547 cumulative IPC: 0.688906 (Simulation time: 6 hr 32 min 28 sec) 
Heartbeat CPU 0 instructions: 2150000000 cycles: 1773507512 heartbeat IPC: 0.903224 cumulative IPC: 1.10445 (Simulation time: 6 hr 33 min 22 sec) 
Heartbeat CPU 1 instructions: 1580000000 cycles: 1776891019 heartbeat IPC: 1.19184 cumulative IPC: 0.772993 (Simulation time: 6 hr 34 min 7 sec) 
Heartbeat CPU 2 instructions: 1310000002 cycles: 1778931663 heartbeat IPC: 0.680291 cumulative IPC: 0.604618 (Simulation time: 6 hr 34 min 33 sec) 
Heartbeat CPU 0 instructions: 2160000000 cycles: 1784163600 heartbeat IPC: 0.938431 cumulative IPC: 1.10336 (Simulation time: 6 hr 35 min 44 sec) 
Heartbeat CPU 1 instructions: 1590000003 cycles: 1785265919 heartbeat IPC: 1.19404 cumulative IPC: 0.775159 (Simulation time: 6 hr 35 min 58 sec) 
Heartbeat CPU 3 instructions: 1320000000 cycles: 1787482257 heartbeat IPC: 0.546708 cumulative IPC: 0.68731 (Simulation time: 6 hr 36 min 28 sec) 
Heartbeat CPU 2 instructions: 1320000000 cycles: 1792044346 heartbeat IPC: 0.76262 cumulative IPC: 0.605886 (Simulation time: 6 hr 37 min 27 sec) 
Heartbeat CPU 1 instructions: 1600000000 cycles: 1793624039 heartbeat IPC: 1.19644 cumulative IPC: 0.777312 (Simulation time: 6 hr 37 min 48 sec) 
Heartbeat CPU 0 instructions: 2170000001 cycles: 1795484312 heartbeat IPC: 0.883337 cumulative IPC: 1.10184 (Simulation time: 6 hr 38 min 13 sec) 
Heartbeat CPU 1 instructions: 1610000002 cycles: 1801971700 heartbeat IPC: 1.19794 cumulative IPC: 0.779448 (Simulation time: 6 hr 39 min 39 sec) 
Heartbeat CPU 3 instructions: 1330000002 cycles: 1804636436 heartbeat IPC: 0.582948 cumulative IPC: 0.686223 (Simulation time: 6 hr 40 min 14 sec) 
Finished CPU 2 instructions: 1000000000 cycles: 1647785145 cumulative IPC: 0.606875 (Simulation time: 6 hr 40 min 29 sec) 

CPU 0 Branch Prediction Accuracy: 99.6969% MPKI: 0.158507

CPU 1 Branch Prediction Accuracy: 99.6612% MPKI: 0.0529889

CPU 2 Branch Prediction Accuracy: 99.783% MPKI: 0.0230237

CPU 3 Branch Prediction Accuracy: 99.6878% MPKI: 0.0535114

ChampSim completed all CPUs

Total Simulation Statistics (not including warmup)

CPU 0 cumulative IPC: 1.10037 instructions: 1813177650 cycles: 1647785145
L1D TOTAL     ACCESS:  419127234  HIT:  380310711  MISS:   38816523
L1D LOAD      ACCESS:  295540069  HIT:  270216113  MISS:   25323956
L1D RFO       ACCESS:  123587165  HIT:  110094598  MISS:   13492567
L1D PREFETCH  ACCESS:          0  HIT:          0  MISS:          0
L1D WRITEBACK ACCESS:          0  HIT:          0  MISS:          0
L1I TOTAL     ACCESS:  448518345  HIT:  448518105  MISS:        240
L1I LOAD      ACCESS:  448518345  HIT:  448518105  MISS:        240
L1I RFO       ACCESS:          0  HIT:          0  MISS:          0
L1I PREFETCH  ACCESS:          0  HIT:          0  MISS:          0
L1I WRITEBACK ACCESS:          0  HIT:          0  MISS:          0
L2C TOTAL     ACCESS:   80292785  HIT:   72098761  MISS:    8194024
L2C LOAD      ACCESS:   25323943  HIT:   24025863  MISS:    1298080
L2C RFO       ACCESS:   13471416  HIT:   11488411  MISS:    1983005
L2C PREFETCH  ACCESS:   23815897  HIT:   18948689  MISS:    4867208
L2C WRITEBACK ACCESS:   17681529  HIT:   17635798  MISS:      45731

Avg Lookahead Depth:	3.6226
TOTAL: 1.37111e+08	L2C: 1.14928e+08	LLC: 2.21833e+07	GOOD_L2C: 6.87321e+07
Printing all the perceptron weights to: perc_weights_0.csv
LLC TOTAL     ACCESS:   12991133  HIT:    7816063  MISS:    5175070
LLC LOAD      ACCESS:    1178632  HIT:     639193  MISS:     539439
LLC RFO       ACCESS:    1981842  HIT:     942599  MISS:    1039243
LLC PREFETCH  ACCESS:    7039118  HIT:    3490412  MISS:    3548706
LLC WRITEBACK ACCESS:    2791541  HIT:    2743859  MISS:      47682

CPU 1 cumulative IPC: 0.780416 instructions: 1285958419 cycles: 1647785145
L1D TOTAL     ACCESS:  604706190  HIT:  585867787  MISS:   18838403
L1D LOAD      ACCESS:  516158370  HIT:  497486026  MISS:   18672344
L1D RFO       ACCESS:   88547820  HIT:   88381761  MISS:     166059
L1D PREFETCH  ACCESS:          0  HIT:          0  MISS:          0
L1D WRITEBACK ACCESS:          0  HIT:          0  MISS:          0
L1I TOTAL     ACCESS:  328603171  HIT:  328602544  MISS:        627
L1I LOAD      ACCESS:  328603171  HIT:  328602544  MISS:        627
L1I RFO       ACCESS:          0  HIT:          0  MISS:          0
L1I PREFETCH  ACCESS:          0  HIT:          0  MISS:          0
L1I WRITEBACK ACCESS:          0  HIT:          0  MISS:          0
L2C TOTAL     ACCESS:   52012455  HIT:   32288643  MISS:   19723812
L2C LOAD      ACCESS:   18671878  HIT:   16954779  MISS:    1717099
L2C RFO       ACCESS:     165934  HIT:        732  MISS:     165202
L2C PREFETCH  ACCESS:   25446838  HIT:    7606483  MISS:   17840355
L2C WRITEBACK ACCESS:    7727805  HIT:    7726649  MISS:       1156

Avg Lookahead Depth:	3.6226
TOTAL: 1.37111e+08	L2C: 1.14928e+08	LLC: 2.21833e+07	GOOD_L2C: 6.87321e+07
Printing all the perceptron weights to: perc_weights_0.csv
LLC TOTAL     ACCESS:   29813633  HIT:   13631397  MISS:   16182236
LLC LOAD      ACCESS:    1578666  HIT:     369523  MISS:    1209143
LLC RFO       ACCESS:     165201  HIT:     132680  MISS:      32521
LLC PREFETCH  ACCESS:   20384403  HIT:    5444697  MISS:   14939706
LLC WRITEBACK ACCESS:    7685363  HIT:    7684497  MISS:        866

CPU 2 cumulative IPC: 0.606875 instructions: 1000000000 cycles: 1647785145
L1D TOTAL     ACCESS:  543715805  HIT:  528151412  MISS:   15564393
L1D LOAD      ACCESS:  484560679  HIT:  469172383  MISS:   15388296
L1D RFO       ACCESS:   59155126  HIT:   58979029  MISS:     176097
L1D PREFETCH  ACCESS:          0  HIT:          0  MISS:          0
L1D WRITEBACK ACCESS:          0  HIT:          0  MISS:          0
L1I TOTAL     ACCESS:  273577570  HIT:  273576605  MISS:        965
L1I LOAD      ACCESS:  273577570  HIT:  273576605  MISS:        965
L1I RFO       ACCESS:          0  HIT:          0  MISS:          0
L1I PREFETCH  ACCESS:          0  HIT:          0  MISS:          0
L1I WRITEBACK ACCESS:          0  HIT:          0  MISS:          0
L2C TOTAL     ACCESS:   37868177  HIT:   27406714  MISS:   10461463
L2C LOAD      ACCESS:   15388357  HIT:   12693785  MISS:    2694572
L2C RFO       ACCESS:     176001  HIT:       2890  MISS:     173111
L2C PREFETCH  ACCESS:   17587656  HIT:    9995152  MISS:    7592504
L2C WRITEBACK ACCESS:    4716163  HIT:    4714887  MISS:       1276

Avg Lookahead Depth:	3.6226
TOTAL: 1.37111e+08	L2C: 1.14928e+08	LLC: 2.21833e+07	GOOD_L2C: 6.87321e+07
Printing all the perceptron weights to: perc_weights_0.csv
LLC TOTAL     ACCESS:   17558905  HIT:    8674628  MISS:    8884277
LLC LOAD      ACCESS:    2636098  HIT:     776006  MISS:    1860092
LLC RFO       ACCESS:     173108  HIT:     116243  MISS:      56865
LLC PREFETCH  ACCESS:   10992000  HIT:    4038664  MISS:    6953336
LLC WRITEBACK ACCESS:    3757699  HIT:    3743715  MISS:      13984

CPU 3 cumulative IPC: 0.686247 instructions: 1130787709 cycles: 1647785145
L1D TOTAL     ACCESS:  496939797  HIT:  472275834  MISS:   24663963
L1D LOAD      ACCESS:  426874647  HIT:  402386265  MISS:   24488382
L1D RFO       ACCESS:   70065150  HIT:   69889569  MISS:     175581
L1D PREFETCH  ACCESS:          0  HIT:          0  MISS:          0
L1D WRITEBACK ACCESS:          0  HIT:          0  MISS:          0
L1I TOTAL     ACCESS:  271544392  HIT:  271543625  MISS:        767
L1I LOAD      ACCESS:  271544392  HIT:  271543625  MISS:        767
L1I RFO       ACCESS:          0  HIT:          0  MISS:          0
L1I PREFETCH  ACCESS:          0  HIT:          0  MISS:          0
L1I WRITEBACK ACCESS:          0  HIT:          0  MISS:          0
L2C TOTAL     ACCESS:   57839328  HIT:   38351001  MISS:   19488327
L2C LOAD      ACCESS:   24488672  HIT:   20944927  MISS:    3543745
L2C RFO       ACCESS:     175542  HIT:       5479  MISS:     170063
L2C PREFETCH  ACCESS:   25991095  HIT:   10218838  MISS:   15772257
L2C WRITEBACK ACCESS:    7184019  HIT:    7181757  MISS:       2262

Avg Lookahead Depth:	3.6226
TOTAL: 1.37111e+08	L2C: 1.14928e+08	LLC: 2.21833e+07	GOOD_L2C: 6.87321e+07
Printing all the perceptron weights to: perc_weights_0.csv
LLC TOTAL     ACCESS:   28739549  HIT:   14152571  MISS:   14586978
LLC LOAD      ACCESS:    3414551  HIT:    1145415  MISS:    2269136
LLC RFO       ACCESS:     170058  HIT:      83404  MISS:      86654
LLC PREFETCH  ACCESS:   19069432  HIT:    6866677  MISS:   12202755
LLC WRITEBACK ACCESS:    6085508  HIT:    6057075  MISS:      28433

Region of Interest Statistics

CPU 0 cumulative IPC: 1.102 instructions: 1000000003 cycles: 907442750
L1D TOTAL     ACCESS:  230614574  HIT:  208942882  MISS:   21671692
L1D LOAD      ACCESS:  162952568  HIT:  148752892  MISS:   14199676
L1D RFO       ACCESS:   67662006  HIT:   60189990  MISS:    7472016
L1D PREFETCH  ACCESS:          0  HIT:          0  MISS:          0
L1D WRITEBACK ACCESS:          0  HIT:          0  MISS:          0
L1D PREFETCH  REQUESTED:          0  ISSUED:          0  USEFUL:          0  USELESS:          0
L1I TOTAL     ACCESS:  248470377  HIT:  248470137  MISS:        240
L1I LOAD      ACCESS:  248470377  HIT:  248470137  MISS:        240
L1I RFO       ACCESS:          0  HIT:          0  MISS:          0
L1I PREFETCH  ACCESS:          0  HIT:          0  MISS:          0
L1I WRITEBACK ACCESS:          0  HIT:          0  MISS:          0
L1I PREFETCH  REQUESTED:          0  ISSUED:          0  USEFUL:          0  USELESS:          0
L2C TOTAL     ACCESS:   44433719  HIT:   39473372  MISS:    4960347
L2C LOAD      ACCESS:   14199783  HIT:   13427318  MISS:     772465
L2C RFO       ACCESS:    7458517  HIT:    6228609  MISS:    1229908
L2C PREFETCH  ACCESS:   12871884  HIT:    9938369  MISS:    2933515
L2C WRITEBACK ACCESS:    9903535  HIT:    9879076  MISS:      24459
L2C PREFETCH  REQUESTED:   31478763  ISSUED:   31122458  USEFUL:    4921918  USELESS:     632584
LLC TOTAL     ACCESS:    7921604  HIT:    4744377  MISS:    3177227
LLC LOAD      ACCESS:     690886  HIT:     419984  MISS:     270902
LLC RFO       ACCESS:    1228931  HIT:     548088  MISS:     680843
LLC PREFETCH  ACCESS:    4292425  HIT:    2087588  MISS:    2204837
LLC WRITEBACK ACCESS:    1709362  HIT:    1688717  MISS:      20645
LLC PREFETCH  REQUESTED:          0  ISSUED:          0  USEFUL:    1834134  USELESS:   48806383
Major fault: 0 Minor fault: 41401

CPU 1 cumulative IPC: 0.720364 instructions: 1000000003 cycles: 1388187433
L1D TOTAL     ACCESS:  510738365  HIT:  498763162  MISS:   11975203
L1D LOAD      ACCESS:  443313303  HIT:  431459313  MISS:   11853990
L1D RFO       ACCESS:   67425062  HIT:   67303849  MISS:     121213
L1D PREFETCH  ACCESS:          0  HIT:          0  MISS:          0
L1D WRITEBACK ACCESS:          0  HIT:          0  MISS:          0
L1D PREFETCH  REQUESTED:          0  ISSUED:          0  USEFUL:          0  USELESS:          0
L1I TOTAL     ACCESS:  264173991  HIT:  264173472  MISS:        519
L1I LOAD      ACCESS:  264173991  HIT:  264173472  MISS:        519
L1I RFO       ACCESS:          0  HIT:          0  MISS:          0
L1I PREFETCH  ACCESS:          0  HIT:          0  MISS:          0
L1I WRITEBACK ACCESS:          0  HIT:          0  MISS:          0
L1I PREFETCH  REQUESTED:          0  ISSUED:          0  USEFUL:          0  USELESS:          0
L2C TOTAL     ACCESS:   33993393  HIT:   21636914  MISS:   12356479
L2C LOAD      ACCESS:   11853453  HIT:   10539402  MISS:    1314051
L2C RFO       ACCESS:     121088  HIT:        660  MISS:     120428
L2C PREFETCH  ACCESS:   16863180  HIT:    5941778  MISS:   10921402
L2C WRITEBACK ACCESS:    5155672  HIT:    5155074  MISS:        598
L2C PREFETCH  REQUESTED:   39521198  ISSUED:   39519648  USEFUL:   21158585  USELESS:    2543008
LLC TOTAL     ACCESS:   19672220  HIT:    9076267  MISS:   10595953
LLC LOAD      ACCESS:    1247131  HIT:     311191  MISS:     935940
LLC RFO       ACCESS:     120427  HIT:      89499  MISS:      30928
LLC PREFETCH  ACCESS:   13179165  HIT:    3550788  MISS:    9628377
LLC WRITEBACK ACCESS:    5125497  HIT:    5124789  MISS:        708
LLC PREFETCH  REQUESTED:          0  ISSUED:          0  USEFUL:    1834134  USELESS:   48806383
Major fault: 0 Minor fault: 177516

CPU 2 cumulative IPC: 0.606875 instructions: 1000000000 cycles: 1647785145
L1D TOTAL     ACCESS:  543715805  HIT:  528151412  MISS:   15564393
L1D LOAD      ACCESS:  484560679  HIT:  469172383  MISS:   15388296
L1D RFO       ACCESS:   59155126  HIT:   58979029  MISS:     176097
L1D PREFETCH  ACCESS:          0  HIT:          0  MISS:          0
L1D WRITEBACK ACCESS:          0  HIT:          0  MISS:          0
L1D PREFETCH  REQUESTED:          0  ISSUED:          0  USEFUL:          0  USELESS:          0
L1I TOTAL     ACCESS:  273577570  HIT:  273576605  MISS:        965
L1I LOAD      ACCESS:  273577570  HIT:  273576605  MISS:        965
L1I RFO       ACCESS:          0  HIT:          0  MISS:          0
L1I PREFETCH  ACCESS:          0  HIT:          0  MISS:          0
L1I WRITEBACK ACCESS:          0  HIT:          0  MISS:          0
L1I PREFETCH  REQUESTED:          0  ISSUED:          0  USEFUL:          0  USELESS:          0
L2C TOTAL     ACCESS:   37868177  HIT:   27406714  MISS:   10461463
L2C LOAD      ACCESS:   15388357  HIT:   12693785  MISS:    2694572
L2C RFO       ACCESS:     176001  HIT:       2890  MISS:     173111
L2C PREFETCH  ACCESS:   17587656  HIT:    9995152  MISS:    7592504
L2C WRITEBACK ACCESS:    4716163  HIT:    4714887  MISS:       1276
L2C PREFETCH  REQUESTED:   32259055  ISSUED:   32259036  USEFUL:   13473583  USELESS:    2145983
LLC TOTAL     ACCESS:   17558905  HIT:    8674628  MISS:    8884277
LLC LOAD      ACCESS:    2636098  HIT:     776006  MISS:    1860092
LLC RFO       ACCESS:     173108  HIT:     116243  MISS:      56865
LLC PREFETCH  ACCESS:   10992000  HIT:    4038664  MISS:    6953336
LLC WRITEBACK ACCESS:    3757699  HIT:    3743715  MISS:      13984
LLC PREFETCH  REQUESTED:          0  ISSUED:          0  USEFUL:    1834134  USELESS:   48806383
Major fault: 0 Minor fault: 180666

CPU 3 cumulative IPC: 0.709298 instructions: 1000000000 cycles: 1409844347
L1D TOTAL     ACCESS:  420672552  HIT:  397204080  MISS:   23468472
L1D LOAD      ACCESS:  360580977  HIT:  337287960  MISS:   23293017
L1D RFO       ACCESS:   60091575  HIT:   59916120  MISS:     175455
L1D PREFETCH  ACCESS:          0  HIT:          0  MISS:          0
L1D WRITEBACK ACCESS:          0  HIT:          0  MISS:          0
L1D PREFETCH  REQUESTED:          0  ISSUED:          0  USEFUL:          0  USELESS:          0
L1I TOTAL     ACCESS:  234112462  HIT:  234111734  MISS:        728
L1I LOAD      ACCESS:  234112462  HIT:  234111734  MISS:        728
L1I RFO       ACCESS:          0  HIT:          0  MISS:          0
L1I PREFETCH  ACCESS:          0  HIT:          0  MISS:          0
L1I WRITEBACK ACCESS:          0  HIT:          0  MISS:          0
L1I PREFETCH  REQUESTED:          0  ISSUED:          0  USEFUL:          0  USELESS:          0
L2C TOTAL     ACCESS:   54677103  HIT:   36651476  MISS:   18025627
L2C LOAD      ACCESS:   23293444  HIT:   20129750  MISS:    3163694
L2C RFO       ACCESS:     175432  HIT:       5374  MISS:     170058
L2C PREFETCH  ACCESS:   24585448  HIT:    9895767  MISS:   14689681
L2C WRITEBACK ACCESS:    6622779  HIT:    6620585  MISS:       2194
L2C PREFETCH  REQUESTED:   33851963  ISSUED:   33851281  USEFUL:   14753213  USELESS:    2422992
LLC TOTAL     ACCESS:   26106090  HIT:   12901954  MISS:   13204136
LLC LOAD      ACCESS:    3035344  HIT:    1008762  MISS:    2026582
LLC RFO       ACCESS:     170053  HIT:      83404  MISS:      86649
LLC PREFETCH  ACCESS:   17374400  HIT:    6311833  MISS:   11062567
LLC WRITEBACK ACCESS:    5526293  HIT:    5497955  MISS:      28338
LLC PREFETCH  REQUESTED:          0  ISSUED:          0  USEFUL:    1834134  USELESS:   48806383
Major fault: 0 Minor fault: 176865

Avg Lookahead Depth:	3.6226
TOTAL: 1.37111e+08	L2C: 1.14928e+08	LLC: 2.21833e+07	GOOD_L2C: 6.87321e+07
Printing all the perceptron weights to: perc_weights_0.csv

Avg Lookahead Depth:	3.6226
TOTAL: 1.37111e+08	L2C: 1.14928e+08	LLC: 2.21833e+07	GOOD_L2C: 6.87321e+07
Printing all the perceptron weights to: perc_weights_0.csv

Avg Lookahead Depth:	3.6226
TOTAL: 1.37111e+08	L2C: 1.14928e+08	LLC: 2.21833e+07	GOOD_L2C: 6.87321e+07
Printing all the perceptron weights to: perc_weights_0.csv

Avg Lookahead Depth:	3.6226
TOTAL: 1.37111e+08	L2C: 1.14928e+08	LLC: 2.21833e+07	GOOD_L2C: 6.87321e+07
Printing all the perceptron weights to: perc_weights_0.csv

DRAM Statistics
 CHANNEL 0
 RQ ROW_BUFFER_HIT:    7357802  ROW_BUFFER_MISS:   14977462
 DBUS_CONGESTED:   37606289
 WQ ROW_BUFFER_HIT:     923024  ROW_BUFFER_MISS:    8163499  FULL:          0

 CHANNEL 1
 RQ ROW_BUFFER_HIT:    7361417  ROW_BUFFER_MISS:   15039378
 DBUS_CONGESTED:   37606289
 WQ ROW_BUFFER_HIT:     924876  ROW_BUFFER_MISS:    8164548  FULL:          0

 AVG_CONGESTED_CYCLE: 13
