Initialize SIGNATURE TABLE
ST_SET: 1
ST_WAY: 256
ST_TAG_BIT: 16
ST_TAG_MASK: ffff

Initialize PATTERN TABLE
PT_SET: 512
PT_WAY: 4
SIG_DELTA_BIT: 7
C_SIG_BIT: 4
C_DELTA_BIT: 4

Initialize PREFETCH FILTER
FILTER_SET: 1024

*** ChampSim Multicore Out-of-Order Simulator ***

Warmup Instructions: 20000000
Simulation Instructions: 100000000
Number of CPUs: 8
LLC sets: 16384
LLC ways: 16
Off-chip DRAM Size: 8192 MB Channels: 2 Width: 64-bit Data Rate: 1600 MT/s

CPU 0 runs /scratch/user/djimenez/champsim-traces/speccpu2006/xz/471.omnetpp-188B.champsimtrace.xz
CPU 1 runs /scratch/user/djimenez/champsim-traces/speccpu2006/xz/482.sphinx3-417B.champsimtrace.xz
CPU 2 runs /scratch/user/djimenez/champsim-traces/speccpu2006/xz/481.wrf-1281B.champsimtrace.xz
CPU 3 runs /scratch/user/djimenez/champsim-traces/speccpu2006/xz/410.bwaves-1963B.champsimtrace.xz
CPU 4 runs /scratch/user/djimenez/champsim-traces/speccpu2006/xz/437.leslie3d-271B.champsimtrace.xz
CPU 5 runs /scratch/user/djimenez/champsim-traces/speccpu2006/xz/482.sphinx3-234B.champsimtrace.xz
CPU 6 runs /scratch/user/djimenez/champsim-traces/speccpu2006/xz/429.mcf-22B.champsimtrace.xz
CPU 7 runs /scratch/user/djimenez/champsim-traces/speccpu2006/xz/429.mcf-217B.champsimtrace.xz
Heartbeat CPU 5 instructions: 10000003 cycles: 3842541 heartbeat IPC: 2.60245 cumulative IPC: 2.60245 (Simulation time: 0 hr 3 min 14 sec) 
Heartbeat CPU 1 instructions: 10000000 cycles: 4119924 heartbeat IPC: 2.42723 cumulative IPC: 2.42723 (Simulation time: 0 hr 3 min 27 sec) 
Heartbeat CPU 4 instructions: 10000003 cycles: 5158472 heartbeat IPC: 1.93856 cumulative IPC: 1.93856 (Simulation time: 0 hr 4 min 16 sec) 
Heartbeat CPU 2 instructions: 10000000 cycles: 5705396 heartbeat IPC: 1.75273 cumulative IPC: 1.75273 (Simulation time: 0 hr 4 min 42 sec) 
Heartbeat CPU 6 instructions: 10000001 cycles: 5803945 heartbeat IPC: 1.72297 cumulative IPC: 1.72297 (Simulation time: 0 hr 4 min 47 sec) 
Heartbeat CPU 7 instructions: 10000003 cycles: 5847312 heartbeat IPC: 1.71019 cumulative IPC: 1.71019 (Simulation time: 0 hr 4 min 49 sec) 
Heartbeat CPU 0 instructions: 10000001 cycles: 6124180 heartbeat IPC: 1.63287 cumulative IPC: 1.63287 (Simulation time: 0 hr 5 min 2 sec) 
Heartbeat CPU 3 instructions: 10000002 cycles: 6636914 heartbeat IPC: 1.50672 cumulative IPC: 1.50672 (Simulation time: 0 hr 5 min 27 sec) 
Heartbeat CPU 5 instructions: 20000000 cycles: 7689828 heartbeat IPC: 2.59923 cumulative IPC: 2.60084 (Simulation time: 0 hr 6 min 16 sec) 
Heartbeat CPU 1 instructions: 20000000 cycles: 8205988 heartbeat IPC: 2.44734 cumulative IPC: 2.43724 (Simulation time: 0 hr 6 min 41 sec) 
Heartbeat CPU 2 instructions: 20000000 cycles: 9676746 heartbeat IPC: 2.51804 cumulative IPC: 2.06681 (Simulation time: 0 hr 7 min 53 sec) 
Heartbeat CPU 4 instructions: 20000000 cycles: 10316724 heartbeat IPC: 1.93864 cumulative IPC: 1.9386 (Simulation time: 0 hr 8 min 24 sec) 
Heartbeat CPU 5 instructions: 30000000 cycles: 11630138 heartbeat IPC: 2.53787 cumulative IPC: 0.859835 (Simulation time: 0 hr 9 min 29 sec) 
Heartbeat CPU 1 instructions: 30000001 cycles: 12082055 heartbeat IPC: 2.57994 cumulative IPC: 0.827674 (Simulation time: 0 hr 9 min 51 sec) 
Heartbeat CPU 0 instructions: 20000000 cycles: 12255029 heartbeat IPC: 1.6311 cumulative IPC: 1.63198 (Simulation time: 0 hr 10 min 0 sec) 
Heartbeat CPU 6 instructions: 20000000 cycles: 12374693 heartbeat IPC: 1.5219 cumulative IPC: 1.6162 (Simulation time: 0 hr 10 min 6 sec) 
Heartbeat CPU 3 instructions: 20000000 cycles: 13319891 heartbeat IPC: 1.49634 cumulative IPC: 1.50151 (Simulation time: 0 hr 10 min 52 sec) 
Heartbeat CPU 7 instructions: 20000000 cycles: 13881633 heartbeat IPC: 1.24466 cumulative IPC: 1.44075 (Simulation time: 0 hr 11 min 20 sec) 

Warmup complete CPU 0 instructions: 22670385 cycles: 13881644 (Simulation time: 0 hr 11 min 20 sec) 
Warmup complete CPU 1 instructions: 34767333 cycles: 13881644 (Simulation time: 0 hr 11 min 20 sec) 
Warmup complete CPU 2 instructions: 29690397 cycles: 13881644 (Simulation time: 0 hr 11 min 20 sec) 
Warmup complete CPU 3 instructions: 20842788 cycles: 13881644 (Simulation time: 0 hr 11 min 20 sec) 
Warmup complete CPU 4 instructions: 26911746 cycles: 13881644 (Simulation time: 0 hr 11 min 20 sec) 
Warmup complete CPU 5 instructions: 36053117 cycles: 13881644 (Simulation time: 0 hr 11 min 20 sec) 
Warmup complete CPU 6 instructions: 22619651 cycles: 13881644 (Simulation time: 0 hr 11 min 20 sec) 
Warmup complete CPU 7 instructions: 20000001 cycles: 13881644 (Simulation time: 0 hr 11 min 20 sec) 

Heartbeat CPU 2 instructions: 30000000 cycles: 14193244 heartbeat IPC: 2.2141 cumulative IPC: 0.993591 (Simulation time: 0 hr 11 min 27 sec) 
Heartbeat CPU 4 instructions: 30000002 cycles: 16876379 heartbeat IPC: 1.52447 cumulative IPC: 1.03123 (Simulation time: 0 hr 12 min 25 sec) 
Heartbeat CPU 5 instructions: 40000000 cycles: 20211232 heartbeat IPC: 1.16535 cumulative IPC: 0.623561 (Simulation time: 0 hr 13 min 49 sec) 
Heartbeat CPU 3 instructions: 30000000 cycles: 23580501 heartbeat IPC: 0.974601 cumulative IPC: 0.944154 (Simulation time: 0 hr 15 min 20 sec) 
Heartbeat CPU 2 instructions: 40000000 cycles: 23933030 heartbeat IPC: 1.02672 cumulative IPC: 1.02569 (Simulation time: 0 hr 15 min 28 sec) 
Heartbeat CPU 1 instructions: 40000000 cycles: 24834191 heartbeat IPC: 0.784182 cumulative IPC: 0.477758 (Simulation time: 0 hr 15 min 53 sec) 
Heartbeat CPU 4 instructions: 40000000 cycles: 26709200 heartbeat IPC: 1.017 cumulative IPC: 1.02032 (Simulation time: 0 hr 16 min 48 sec) 
Heartbeat CPU 6 instructions: 30000002 cycles: 32838341 heartbeat IPC: 0.488672 cumulative IPC: 0.389327 (Simulation time: 0 hr 19 min 6 sec) 
Heartbeat CPU 2 instructions: 50000003 cycles: 33952319 heartbeat IPC: 0.998075 cumulative IPC: 1.0119 (Simulation time: 0 hr 19 min 31 sec) 
Heartbeat CPU 3 instructions: 40000000 cycles: 34419988 heartbeat IPC: 0.922553 cumulative IPC: 0.932754 (Simulation time: 0 hr 19 min 41 sec) 
Heartbeat CPU 5 instructions: 50000001 cycles: 35662022 heartbeat IPC: 0.647216 cumulative IPC: 0.640342 (Simulation time: 0 hr 20 min 6 sec) 
Heartbeat CPU 4 instructions: 50000001 cycles: 36686138 heartbeat IPC: 1.00231 cumulative IPC: 1.01244 (Simulation time: 0 hr 20 min 27 sec) 
Heartbeat CPU 1 instructions: 50000001 cycles: 41859075 heartbeat IPC: 0.587376 cumulative IPC: 0.544463 (Simulation time: 0 hr 22 min 22 sec) 
Heartbeat CPU 2 instructions: 60000000 cycles: 43742881 heartbeat IPC: 1.02139 cumulative IPC: 1.01502 (Simulation time: 0 hr 23 min 5 sec) 
Heartbeat CPU 3 instructions: 50000001 cycles: 45109342 heartbeat IPC: 0.93551 cumulative IPC: 0.933697 (Simulation time: 0 hr 23 min 35 sec) 
Heartbeat CPU 4 instructions: 60000000 cycles: 47040547 heartbeat IPC: 0.965772 cumulative IPC: 0.997869 (Simulation time: 0 hr 24 min 20 sec) 
Heartbeat CPU 5 instructions: 60000000 cycles: 51133318 heartbeat IPC: 0.646358 cumulative IPC: 0.64284 (Simulation time: 0 hr 25 min 51 sec) 
Heartbeat CPU 2 instructions: 70000001 cycles: 52479790 heartbeat IPC: 1.14457 cumulative IPC: 1.04434 (Simulation time: 0 hr 26 min 20 sec) 
Heartbeat CPU 3 instructions: 60000000 cycles: 55926938 heartbeat IPC: 0.92442 cumulative IPC: 0.93131 (Simulation time: 0 hr 27 min 30 sec) 
Heartbeat CPU 4 instructions: 70000003 cycles: 58496183 heartbeat IPC: 0.872933 cumulative IPC: 0.96579 (Simulation time: 0 hr 28 min 38 sec) 
Heartbeat CPU 0 instructions: 30000001 cycles: 58531886 heartbeat IPC: 0.216091 cumulative IPC: 0.164156 (Simulation time: 0 hr 28 min 38 sec) 
Heartbeat CPU 6 instructions: 40000000 cycles: 59795060 heartbeat IPC: 0.370965 cumulative IPC: 0.378546 (Simulation time: 0 hr 29 min 8 sec) 
Heartbeat CPU 2 instructions: 80000000 cycles: 61946668 heartbeat IPC: 1.05631 cumulative IPC: 1.0467 (Simulation time: 0 hr 30 min 1 sec) 
Heartbeat CPU 1 instructions: 60000000 cycles: 62661172 heartbeat IPC: 0.480721 cumulative IPC: 0.51728 (Simulation time: 0 hr 30 min 17 sec) 
Heartbeat CPU 5 instructions: 70000002 cycles: 65413138 heartbeat IPC: 0.700289 cumulative IPC: 0.65876 (Simulation time: 0 hr 31 min 17 sec) 
Heartbeat CPU 3 instructions: 70000003 cycles: 66584947 heartbeat IPC: 0.938262 cumulative IPC: 0.932716 (Simulation time: 0 hr 31 min 45 sec) 
Heartbeat CPU 2 instructions: 90000001 cycles: 69654292 heartbeat IPC: 1.29742 cumulative IPC: 1.08135 (Simulation time: 0 hr 32 min 57 sec) 
Heartbeat CPU 4 instructions: 80000000 cycles: 69703556 heartbeat IPC: 0.892269 cumulative IPC: 0.951029 (Simulation time: 0 hr 32 min 58 sec) 
Heartbeat CPU 3 instructions: 80000000 cycles: 77353121 heartbeat IPC: 0.928662 cumulative IPC: 0.932028 (Simulation time: 0 hr 35 min 35 sec) 
Heartbeat CPU 5 instructions: 80000000 cycles: 79614819 heartbeat IPC: 0.704142 cumulative IPC: 0.668565 (Simulation time: 0 hr 36 min 32 sec) 
Heartbeat CPU 7 instructions: 30000002 cycles: 80048965 heartbeat IPC: 0.151132 cumulative IPC: 0.151132 (Simulation time: 0 hr 36 min 44 sec) 
Heartbeat CPU 2 instructions: 100000000 cycles: 80097179 heartbeat IPC: 0.95759 cumulative IPC: 1.06183 (Simulation time: 0 hr 36 min 46 sec) 
Heartbeat CPU 1 instructions: 70000002 cycles: 81970897 heartbeat IPC: 0.517874 cumulative IPC: 0.517448 (Simulation time: 0 hr 37 min 33 sec) 
Heartbeat CPU 4 instructions: 90000003 cycles: 82199087 heartbeat IPC: 0.800286 cumulative IPC: 0.923458 (Simulation time: 0 hr 37 min 38 sec) 
Heartbeat CPU 3 instructions: 90000000 cycles: 87295420 heartbeat IPC: 1.0058 cumulative IPC: 0.94202 (Simulation time: 0 hr 39 min 34 sec) 
Heartbeat CPU 2 instructions: 110000002 cycles: 89520307 heartbeat IPC: 1.06122 cumulative IPC: 1.06175 (Simulation time: 0 hr 40 min 28 sec) 
Heartbeat CPU 5 instructions: 90000000 cycles: 92370635 heartbeat IPC: 0.783956 cumulative IPC: 0.687318 (Simulation time: 0 hr 41 min 42 sec) 
Heartbeat CPU 4 instructions: 100000000 cycles: 94618635 heartbeat IPC: 0.805182 cumulative IPC: 0.905264 (Simulation time: 0 hr 42 min 37 sec) 
Heartbeat CPU 6 instructions: 50000002 cycles: 95916672 heartbeat IPC: 0.276843 cumulative IPC: 0.333764 (Simulation time: 0 hr 43 min 8 sec) 
Heartbeat CPU 3 instructions: 100000000 cycles: 97189805 heartbeat IPC: 1.01067 cumulative IPC: 0.950174 (Simulation time: 0 hr 43 min 43 sec) 
Heartbeat CPU 2 instructions: 120000000 cycles: 98902118 heartbeat IPC: 1.06589 cumulative IPC: 1.06221 (Simulation time: 0 hr 44 min 25 sec) 
Heartbeat CPU 1 instructions: 80000000 cycles: 100754550 heartbeat IPC: 0.532378 cumulative IPC: 0.520676 (Simulation time: 0 hr 45 min 21 sec) 
Heartbeat CPU 7 instructions: 40000000 cycles: 101111217 heartbeat IPC: 0.474783 cumulative IPC: 0.22928 (Simulation time: 0 hr 45 min 33 sec) 
Heartbeat CPU 0 instructions: 40000000 cycles: 104600051 heartbeat IPC: 0.21707 cumulative IPC: 0.191026 (Simulation time: 0 hr 47 min 6 sec) 
Heartbeat CPU 5 instructions: 100000000 cycles: 105651725 heartbeat IPC: 0.75295 cumulative IPC: 0.696816 (Simulation time: 0 hr 47 min 36 sec) 
Heartbeat CPU 4 instructions: 110000003 cycles: 106823841 heartbeat IPC: 0.819323 cumulative IPC: 0.893978 (Simulation time: 0 hr 48 min 4 sec) 
Heartbeat CPU 3 instructions: 110000001 cycles: 107008907 heartbeat IPC: 1.01842 cumulative IPC: 0.95737 (Simulation time: 0 hr 48 min 9 sec) 
Finished CPU 2 instructions: 100000001 cycles: 94080150 cumulative IPC: 1.06292 (Simulation time: 0 hr 48 min 33 sec) 
Heartbeat CPU 2 instructions: 130000001 cycles: 108280697 heartbeat IPC: 1.06626 cumulative IPC: 1.06261 (Simulation time: 0 hr 48 min 41 sec) 
Heartbeat CPU 3 instructions: 120000000 cycles: 116797668 heartbeat IPC: 1.02158 cumulative IPC: 0.963477 (Simulation time: 0 hr 52 min 17 sec) 
Heartbeat CPU 2 instructions: 140000000 cycles: 117573749 heartbeat IPC: 1.07607 cumulative IPC: 1.06382 (Simulation time: 0 hr 52 min 32 sec) 
Finished CPU 3 instructions: 100000000 cycles: 103761455 cumulative IPC: 0.963749 (Simulation time: 0 hr 52 min 33 sec) 
Heartbeat CPU 5 instructions: 110000003 cycles: 118833026 heartbeat IPC: 0.758651 cumulative IPC: 0.704582 (Simulation time: 0 hr 52 min 58 sec) 
Heartbeat CPU 4 instructions: 120000000 cycles: 118988697 heartbeat IPC: 0.82204 cumulative IPC: 0.885652 (Simulation time: 0 hr 53 min 1 sec) 
Heartbeat CPU 1 instructions: 90000001 cycles: 121264987 heartbeat IPC: 0.487557 cumulative IPC: 0.51435 (Simulation time: 0 hr 53 min 48 sec) 
Finished CPU 4 instructions: 100000002 cycles: 111879095 cumulative IPC: 0.893822 (Simulation time: 0 hr 55 min 28 sec) 
Heartbeat CPU 3 instructions: 130000001 cycles: 126723137 heartbeat IPC: 1.00751 cumulative IPC: 0.96735 (Simulation time: 0 hr 55 min 50 sec) 
Heartbeat CPU 2 instructions: 150000001 cycles: 127004031 heartbeat IPC: 1.06041 cumulative IPC: 1.06353 (Simulation time: 0 hr 55 min 56 sec) 
Heartbeat CPU 6 instructions: 60000000 cycles: 128362300 heartbeat IPC: 0.308208 cumulative IPC: 0.326521 (Simulation time: 0 hr 56 min 27 sec) 
Heartbeat CPU 4 instructions: 130000002 cycles: 128744584 heartbeat IPC: 1.02502 cumulative IPC: 0.897489 (Simulation time: 0 hr 56 min 36 sec) 
Heartbeat CPU 5 instructions: 120000000 cycles: 132267259 heartbeat IPC: 0.744367 cumulative IPC: 0.709097 (Simulation time: 0 hr 57 min 56 sec) 
Heartbeat CPU 2 instructions: 160000000 cycles: 136014520 heartbeat IPC: 1.10982 cumulative IPC: 1.06695 (Simulation time: 0 hr 59 min 36 sec) 
Heartbeat CPU 3 instructions: 140000000 cycles: 136705825 heartbeat IPC: 1.00173 cumulative IPC: 0.970145 (Simulation time: 0 hr 59 min 53 sec) 
Heartbeat CPU 4 instructions: 140000000 cycles: 138355909 heartbeat IPC: 1.04044 cumulative IPC: 0.908527 (Simulation time: 1 hr 0 min 37 sec) 
Heartbeat CPU 7 instructions: 50000001 cycles: 138664957 heartbeat IPC: 0.266285 cumulative IPC: 0.240417 (Simulation time: 1 hr 0 min 46 sec) 
Heartbeat CPU 1 instructions: 100000000 cycles: 138665754 heartbeat IPC: 0.574687 cumulative IPC: 0.522764 (Simulation time: 1 hr 0 min 46 sec) 
Heartbeat CPU 2 instructions: 170000000 cycles: 144859068 heartbeat IPC: 1.13064 cumulative IPC: 1.07125 (Simulation time: 1 hr 3 min 12 sec) 
Heartbeat CPU 3 instructions: 150000002 cycles: 146726799 heartbeat IPC: 0.997907 cumulative IPC: 0.972239 (Simulation time: 1 hr 4 min 1 sec) 
Heartbeat CPU 5 instructions: 130000002 cycles: 146920458 heartbeat IPC: 0.682445 cumulative IPC: 0.706161 (Simulation time: 1 hr 4 min 6 sec) 
Heartbeat CPU 4 instructions: 150000000 cycles: 148039575 heartbeat IPC: 1.03267 cumulative IPC: 0.917488 (Simulation time: 1 hr 4 min 33 sec) 
Heartbeat CPU 2 instructions: 180000000 cycles: 153772377 heartbeat IPC: 1.12192 cumulative IPC: 1.07448 (Simulation time: 1 hr 6 min 53 sec) 
Heartbeat CPU 0 instructions: 50000003 cycles: 153814486 heartbeat IPC: 0.203192 cumulative IPC: 0.195305 (Simulation time: 1 hr 6 min 55 sec) 
Finished CPU 5 instructions: 100000000 cycles: 141193021 cumulative IPC: 0.70825 (Simulation time: 1 hr 7 min 25 sec) 
Heartbeat CPU 3 instructions: 160000000 cycles: 156744205 heartbeat IPC: 0.998262 cumulative IPC: 0.974064 (Simulation time: 1 hr 8 min 9 sec) 
Heartbeat CPU 6 instructions: 70000002 cycles: 157066066 heartbeat IPC: 0.348386 cumulative IPC: 0.330904 (Simulation time: 1 hr 8 min 18 sec) 
Heartbeat CPU 4 instructions: 160000000 cycles: 157683784 heartbeat IPC: 1.03689 cumulative IPC: 0.925496 (Simulation time: 1 hr 8 min 35 sec) 
Heartbeat CPU 1 instructions: 110000002 cycles: 157694440 heartbeat IPC: 0.525522 cumulative IPC: 0.523129 (Simulation time: 1 hr 8 min 35 sec) 
Heartbeat CPU 5 instructions: 140000000 cycles: 160545477 heartbeat IPC: 0.733944 cumulative IPC: 0.708742 (Simulation time: 1 hr 9 min 49 sec) 
Heartbeat CPU 2 instructions: 190000001 cycles: 162638375 heartbeat IPC: 1.1279 cumulative IPC: 1.07766 (Simulation time: 1 hr 10 min 40 sec) 
Heartbeat CPU 3 instructions: 170000000 cycles: 166730651 heartbeat IPC: 1.00136 cumulative IPC: 0.975847 (Simulation time: 1 hr 12 min 14 sec) 
Heartbeat CPU 4 instructions: 170000000 cycles: 167361259 heartbeat IPC: 1.03333 cumulative IPC: 0.932295 (Simulation time: 1 hr 12 min 33 sec) 
Heartbeat CPU 2 instructions: 200000000 cycles: 172952780 heartbeat IPC: 0.969518 cumulative IPC: 1.07065 (Simulation time: 1 hr 14 min 51 sec) 
Heartbeat CPU 5 instructions: 150000001 cycles: 175753657 heartbeat IPC: 0.657541 cumulative IPC: 0.703932 (Simulation time: 1 hr 15 min 52 sec) 
Heartbeat CPU 3 instructions: 180000000 cycles: 176699201 heartbeat IPC: 1.00315 cumulative IPC: 0.977519 (Simulation time: 1 hr 16 min 13 sec) 
Heartbeat CPU 4 instructions: 180000000 cycles: 177141094 heartbeat IPC: 1.02251 cumulative IPC: 0.937699 (Simulation time: 1 hr 16 min 23 sec) 
Heartbeat CPU 1 instructions: 120000000 cycles: 177840364 heartbeat IPC: 0.496378 cumulative IPC: 0.519842 (Simulation time: 1 hr 16 min 40 sec) 
Heartbeat CPU 2 instructions: 210000000 cycles: 184829474 heartbeat IPC: 0.841985 cumulative IPC: 1.05476 (Simulation time: 1 hr 19 min 21 sec) 
Heartbeat CPU 3 instructions: 190000003 cycles: 186635028 heartbeat IPC: 1.00646 cumulative IPC: 0.979183 (Simulation time: 1 hr 19 min 59 sec) 
Heartbeat CPU 4 instructions: 190000003 cycles: 186773632 heartbeat IPC: 1.03815 cumulative IPC: 0.943296 (Simulation time: 1 hr 20 min 2 sec) 
Heartbeat CPU 5 instructions: 160000000 cycles: 189715877 heartbeat IPC: 0.716218 cumulative IPC: 0.704908 (Simulation time: 1 hr 21 min 7 sec) 
Heartbeat CPU 6 instructions: 80000000 cycles: 190655090 heartbeat IPC: 0.297716 cumulative IPC: 0.324598 (Simulation time: 1 hr 21 min 25 sec) 
Heartbeat CPU 1 instructions: 130000001 cycles: 195922150 heartbeat IPC: 0.553043 cumulative IPC: 0.52314 (Simulation time: 1 hr 23 min 21 sec) 
Heartbeat CPU 4 instructions: 200000000 cycles: 196274701 heartbeat IPC: 1.05251 cumulative IPC: 0.948985 (Simulation time: 1 hr 23 min 29 sec) 
Heartbeat CPU 3 instructions: 200000000 cycles: 196449947 heartbeat IPC: 1.01886 cumulative IPC: 0.981316 (Simulation time: 1 hr 23 min 33 sec) 
Heartbeat CPU 2 instructions: 220000000 cycles: 196635274 heartbeat IPC: 0.847041 cumulative IPC: 1.04135 (Simulation time: 1 hr 23 min 38 sec) 
Heartbeat CPU 0 instructions: 60000000 cycles: 201533268 heartbeat IPC: 0.209561 cumulative IPC: 0.19893 (Simulation time: 1 hr 25 min 27 sec) 
Heartbeat CPU 5 instructions: 170000001 cycles: 203624522 heartbeat IPC: 0.718977 cumulative IPC: 0.705939 (Simulation time: 1 hr 26 min 11 sec) 
Finished CPU 1 instructions: 100000002 cycles: 190684103 cumulative IPC: 0.524428 (Simulation time: 1 hr 26 min 32 sec) 
Heartbeat CPU 4 instructions: 210000003 cycles: 205897136 heartbeat IPC: 1.03924 cumulative IPC: 0.953508 (Simulation time: 1 hr 27 min 6 sec) 
Heartbeat CPU 3 instructions: 210000001 cycles: 206278438 heartbeat IPC: 1.01745 cumulative IPC: 0.983162 (Simulation time: 1 hr 27 min 16 sec) 
Heartbeat CPU 7 instructions: 60000000 cycles: 206935229 heartbeat IPC: 0.146477 cumulative IPC: 0.207196 (Simulation time: 1 hr 27 min 34 sec) 
Heartbeat CPU 2 instructions: 230000003 cycles: 208544701 heartbeat IPC: 0.839671 cumulative IPC: 1.02901 (Simulation time: 1 hr 28 min 12 sec) 
Heartbeat CPU 1 instructions: 140000000 cycles: 214401282 heartbeat IPC: 0.541151 cumulative IPC: 0.5248 (Simulation time: 1 hr 30 min 24 sec) 
Heartbeat CPU 4 instructions: 220000000 cycles: 215612270 heartbeat IPC: 1.02932 cumulative IPC: 0.957159 (Simulation time: 1 hr 30 min 52 sec) 
Heartbeat CPU 3 instructions: 220000000 cycles: 216156582 heartbeat IPC: 1.01234 cumulative IPC: 0.984587 (Simulation time: 1 hr 31 min 4 sec) 
Heartbeat CPU 5 instructions: 180000000 cycles: 217886110 heartbeat IPC: 0.701184 cumulative IPC: 0.705607 (Simulation time: 1 hr 31 min 44 sec) 
Heartbeat CPU 2 instructions: 240000000 cycles: 219349280 heartbeat IPC: 0.925533 cumulative IPC: 1.02357 (Simulation time: 1 hr 32 min 19 sec) 
Heartbeat CPU 6 instructions: 90000003 cycles: 222353492 heartbeat IPC: 0.315473 cumulative IPC: 0.323211 (Simulation time: 1 hr 33 min 33 sec) 
Heartbeat CPU 4 instructions: 230000000 cycles: 225385308 heartbeat IPC: 1.02322 cumulative IPC: 0.960212 (Simulation time: 1 hr 34 min 45 sec) 
Heartbeat CPU 3 instructions: 230000002 cycles: 226354016 heartbeat IPC: 0.980639 cumulative IPC: 0.984397 (Simulation time: 1 hr 35 min 9 sec) 
Heartbeat CPU 2 instructions: 250000001 cycles: 227413637 heartbeat IPC: 1.24002 cumulative IPC: 1.03174 (Simulation time: 1 hr 35 min 33 sec) 
Heartbeat CPU 5 instructions: 190000000 cycles: 231800617 heartbeat IPC: 0.718674 cumulative IPC: 0.706441 (Simulation time: 1 hr 37 min 7 sec) 
Heartbeat CPU 1 instructions: 150000001 cycles: 233944945 heartbeat IPC: 0.511675 cumulative IPC: 0.523634 (Simulation time: 1 hr 37 min 51 sec) 
Heartbeat CPU 4 instructions: 240000000 cycles: 235002441 heartbeat IPC: 1.03981 cumulative IPC: 0.963674 (Simulation time: 1 hr 38 min 15 sec) 
Heartbeat CPU 2 instructions: 260000000 cycles: 235221034 heartbeat IPC: 1.28084 cumulative IPC: 1.04053 (Simulation time: 1 hr 38 min 20 sec) 
Heartbeat CPU 3 instructions: 240000000 cycles: 236400250 heartbeat IPC: 0.995398 cumulative IPC: 0.984894 (Simulation time: 1 hr 38 min 47 sec) 
Heartbeat CPU 7 instructions: 70000001 cycles: 243310653 heartbeat IPC: 0.274911 cumulative IPC: 0.217932 (Simulation time: 1 hr 41 min 12 sec) 
Heartbeat CPU 2 instructions: 270000002 cycles: 243766583 heartbeat IPC: 1.1702 cumulative IPC: 1.04535 (Simulation time: 1 hr 41 min 23 sec) 
Heartbeat CPU 4 instructions: 250000003 cycles: 244836499 heartbeat IPC: 1.01687 cumulative IPC: 0.965939 (Simulation time: 1 hr 41 min 45 sec) 
Heartbeat CPU 5 instructions: 200000000 cycles: 245971097 heartbeat IPC: 0.705692 cumulative IPC: 0.706395 (Simulation time: 1 hr 42 min 8 sec) 
Heartbeat CPU 3 instructions: 250000001 cycles: 246918184 heartbeat IPC: 0.950757 cumulative IPC: 0.983353 (Simulation time: 1 hr 42 min 27 sec) 
Heartbeat CPU 0 instructions: 70000000 cycles: 248426379 heartbeat IPC: 0.213251 cumulative IPC: 0.201794 (Simulation time: 1 hr 42 min 56 sec) 
Heartbeat CPU 6 instructions: 100000000 cycles: 249791250 heartbeat IPC: 0.364461 cumulative IPC: 0.328008 (Simulation time: 1 hr 43 min 24 sec) 
Heartbeat CPU 1 instructions: 160000000 cycles: 254723206 heartbeat IPC: 0.481272 cumulative IPC: 0.519979 (Simulation time: 1 hr 45 min 2 sec) 
Heartbeat CPU 4 instructions: 260000000 cycles: 254777114 heartbeat IPC: 1.00597 cumulative IPC: 0.967591 (Simulation time: 1 hr 45 min 3 sec) 
Heartbeat CPU 3 instructions: 260000000 cycles: 257330709 heartbeat IPC: 0.960382 cumulative IPC: 0.982371 (Simulation time: 1 hr 45 min 59 sec) 
Heartbeat CPU 2 instructions: 280000000 cycles: 258386265 heartbeat IPC: 0.684009 cumulative IPC: 1.02374 (Simulation time: 1 hr 46 min 23 sec) 
Heartbeat CPU 5 instructions: 210000003 cycles: 261044392 heartbeat IPC: 0.663425 cumulative IPC: 0.703775 (Simulation time: 1 hr 47 min 16 sec) 
Heartbeat CPU 4 instructions: 270000001 cycles: 264568696 heartbeat IPC: 1.02129 cumulative IPC: 0.969688 (Simulation time: 1 hr 48 min 31 sec) 
Heartbeat CPU 3 instructions: 270000001 cycles: 267610538 heartbeat IPC: 0.972779 cumulative IPC: 0.981982 (Simulation time: 1 hr 49 min 41 sec) 
Heartbeat CPU 2 instructions: 290000003 cycles: 269399111 heartbeat IPC: 0.908031 cumulative IPC: 1.01875 (Simulation time: 1 hr 50 min 20 sec) 
Heartbeat CPU 1 instructions: 170000003 cycles: 274512993 heartbeat IPC: 0.505311 cumulative IPC: 0.518866 (Simulation time: 1 hr 52 min 3 sec) 
Heartbeat CPU 4 instructions: 280000000 cycles: 274653988 heartbeat IPC: 0.991543 cumulative IPC: 0.970533 (Simulation time: 1 hr 52 min 6 sec) 
Heartbeat CPU 5 instructions: 220000000 cycles: 274804278 heartbeat IPC: 0.72675 cumulative IPC: 0.704986 (Simulation time: 1 hr 52 min 9 sec) 
Heartbeat CPU 3 instructions: 280000000 cycles: 277792525 heartbeat IPC: 0.982126 cumulative IPC: 0.981988 (Simulation time: 1 hr 53 min 16 sec) 
Heartbeat CPU 2 instructions: 300000000 cycles: 279523586 heartbeat IPC: 0.987705 cumulative IPC: 1.01757 (Simulation time: 1 hr 53 min 52 sec) 
Heartbeat CPU 6 instructions: 110000002 cycles: 281972124 heartbeat IPC: 0.310744 cumulative IPC: 0.325936 (Simulation time: 1 hr 54 min 47 sec) 
Heartbeat CPU 4 instructions: 290000000 cycles: 284667626 heartbeat IPC: 0.998638 cumulative IPC: 0.971573 (Simulation time: 1 hr 55 min 49 sec) 
Heartbeat CPU 5 instructions: 230000002 cycles: 287241145 heartbeat IPC: 0.804061 cumulative IPC: 0.709494 (Simulation time: 1 hr 56 min 50 sec) 
Heartbeat CPU 3 instructions: 290000001 cycles: 287834896 heartbeat IPC: 0.995781 cumulative IPC: 0.982493 (Simulation time: 1 hr 57 min 3 sec) 
Heartbeat CPU 2 instructions: 310000002 cycles: 289532563 heartbeat IPC: 0.999103 cumulative IPC: 1.0169 (Simulation time: 1 hr 57 min 40 sec) 
Heartbeat CPU 1 instructions: 180000000 cycles: 292704813 heartbeat IPC: 0.549697 cumulative IPC: 0.520877 (Simulation time: 1 hr 58 min 51 sec) 
Heartbeat CPU 4 instructions: 300000000 cycles: 294688865 heartbeat IPC: 0.997881 cumulative IPC: 0.972512 (Simulation time: 1 hr 59 min 39 sec) 
Heartbeat CPU 3 instructions: 300000000 cycles: 297884213 heartbeat IPC: 0.995092 cumulative IPC: 0.982939 (Simulation time: 2 hr 0 min 58 sec) 
Heartbeat CPU 2 instructions: 320000000 cycles: 299486798 heartbeat IPC: 1.0046 cumulative IPC: 1.01647 (Simulation time: 2 hr 1 min 37 sec) 
Heartbeat CPU 5 instructions: 240000000 cycles: 299532913 heartbeat IPC: 0.813552 cumulative IPC: 0.713972 (Simulation time: 2 hr 1 min 38 sec) 
Heartbeat CPU 0 instructions: 80000000 cycles: 299833496 heartbeat IPC: 0.194526 cumulative IPC: 0.200487 (Simulation time: 2 hr 1 min 45 sec) 
Heartbeat CPU 4 instructions: 310000000 cycles: 304780991 heartbeat IPC: 0.990871 cumulative IPC: 0.973148 (Simulation time: 2 hr 3 min 37 sec) 
Heartbeat CPU 7 instructions: 80000000 cycles: 306419236 heartbeat IPC: 0.158457 cumulative IPC: 0.205102 (Simulation time: 2 hr 4 min 17 sec) 
Heartbeat CPU 3 instructions: 310000000 cycles: 307857516 heartbeat IPC: 1.00268 cumulative IPC: 0.983609 (Simulation time: 2 hr 4 min 52 sec) 
Heartbeat CPU 2 instructions: 330000002 cycles: 309638620 heartbeat IPC: 0.985045 cumulative IPC: 1.01539 (Simulation time: 2 hr 5 min 35 sec) 
Heartbeat CPU 6 instructions: 120000000 cycles: 310099409 heartbeat IPC: 0.355527 cumulative IPC: 0.328746 (Simulation time: 2 hr 5 min 45 sec) 
Heartbeat CPU 1 instructions: 190000000 cycles: 310895568 heartbeat IPC: 0.54973 cumulative IPC: 0.522644 (Simulation time: 2 hr 6 min 3 sec) 
Heartbeat CPU 5 instructions: 250000000 cycles: 312263447 heartbeat IPC: 0.785513 cumulative IPC: 0.717024 (Simulation time: 2 hr 6 min 33 sec) 
Heartbeat CPU 4 instructions: 320000000 cycles: 314852177 heartbeat IPC: 0.992932 cumulative IPC: 0.97381 (Simulation time: 2 hr 7 min 24 sec) 
Heartbeat CPU 3 instructions: 320000000 cycles: 318036743 heartbeat IPC: 0.982393 cumulative IPC: 0.983568 (Simulation time: 2 hr 8 min 30 sec) 
Heartbeat CPU 2 instructions: 340000000 cycles: 319784512 heartbeat IPC: 0.98562 cumulative IPC: 1.01441 (Simulation time: 2 hr 9 min 6 sec) 
Finished CPU 6 instructions: 100000002 cycles: 307844726 cumulative IPC: 0.324839 (Simulation time: 2 hr 9 min 46 sec) 
Heartbeat CPU 4 instructions: 330000000 cycles: 324973903 heartbeat IPC: 0.987974 cumulative IPC: 0.974271 (Simulation time: 2 hr 10 min 58 sec) 
Heartbeat CPU 5 instructions: 260000000 cycles: 325324652 heartbeat IPC: 0.765626 cumulative IPC: 0.719062 (Simulation time: 2 hr 11 min 4 sec) 
Heartbeat CPU 3 instructions: 330000000 cycles: 328197392 heartbeat IPC: 0.984189 cumulative IPC: 0.983588 (Simulation time: 2 hr 12 min 1 sec) 
Heartbeat CPU 1 instructions: 200000000 cycles: 328320180 heartbeat IPC: 0.573901 cumulative IPC: 0.525485 (Simulation time: 2 hr 12 min 4 sec) 
Heartbeat CPU 2 instructions: 350000000 cycles: 330065439 heartbeat IPC: 0.972675 cumulative IPC: 1.01305 (Simulation time: 2 hr 12 min 38 sec) 
Heartbeat CPU 4 instructions: 340000000 cycles: 335477914 heartbeat IPC: 0.952017 cumulative IPC: 0.973544 (Simulation time: 2 hr 14 min 30 sec) 
Heartbeat CPU 3 instructions: 340000000 cycles: 338566806 heartbeat IPC: 0.964375 cumulative IPC: 0.982974 (Simulation time: 2 hr 15 min 28 sec) 
Heartbeat CPU 5 instructions: 270000001 cycles: 339686927 heartbeat IPC: 0.696269 cumulative IPC: 0.718057 (Simulation time: 2 hr 15 min 49 sec) 
Heartbeat CPU 2 instructions: 360000000 cycles: 340479445 heartbeat IPC: 0.960245 cumulative IPC: 1.01137 (Simulation time: 2 hr 16 min 4 sec) 
Heartbeat CPU 4 instructions: 350000003 cycles: 345741145 heartbeat IPC: 0.974352 cumulative IPC: 0.973569 (Simulation time: 2 hr 17 min 43 sec) 
Heartbeat CPU 1 instructions: 210000000 cycles: 347430166 heartbeat IPC: 0.523287 cumulative IPC: 0.525359 (Simulation time: 2 hr 18 min 16 sec) 
Heartbeat CPU 0 instructions: 90000002 cycles: 349617628 heartbeat IPC: 0.200867 cumulative IPC: 0.200543 (Simulation time: 2 hr 19 min 4 sec) 
Heartbeat CPU 2 instructions: 370000003 cycles: 350557937 heartbeat IPC: 0.992212 cumulative IPC: 1.01079 (Simulation time: 2 hr 19 min 24 sec) 
Heartbeat CPU 3 instructions: 350000000 cycles: 350764463 heartbeat IPC: 0.81983 cumulative IPC: 0.977067 (Simulation time: 2 hr 19 min 28 sec) 
Heartbeat CPU 7 instructions: 90000000 cycles: 351493874 heartbeat IPC: 0.221854 cumulative IPC: 0.207338 (Simulation time: 2 hr 19 min 42 sec) 
Heartbeat CPU 6 instructions: 130000001 cycles: 352065271 heartbeat IPC: 0.238289 cumulative IPC: 0.317521 (Simulation time: 2 hr 19 min 51 sec) 
Heartbeat CPU 5 instructions: 280000000 cycles: 353325174 heartbeat IPC: 0.733232 cumulative IPC: 0.718667 (Simulation time: 2 hr 20 min 13 sec) 
Heartbeat CPU 4 instructions: 360000000 cycles: 356941162 heartbeat IPC: 0.892856 cumulative IPC: 0.970934 (Simulation time: 2 hr 21 min 18 sec) 
Heartbeat CPU 2 instructions: 380000000 cycles: 360497644 heartbeat IPC: 1.00607 cumulative IPC: 1.01066 (Simulation time: 2 hr 22 min 20 sec) 
Heartbeat CPU 1 instructions: 220000000 cycles: 364640650 heartbeat IPC: 0.581041 cumulative IPC: 0.528091 (Simulation time: 2 hr 23 min 33 sec) 
Heartbeat CPU 3 instructions: 360000000 cycles: 366645723 heartbeat IPC: 0.629673 cumulative IPC: 0.961428 (Simulation time: 2 hr 24 min 10 sec) 
Heartbeat CPU 5 instructions: 290000000 cycles: 368327172 heartbeat IPC: 0.666578 cumulative IPC: 0.716462 (Simulation time: 2 hr 24 min 38 sec) 
Heartbeat CPU 2 instructions: 390000000 cycles: 369424429 heartbeat IPC: 1.12022 cumulative IPC: 1.01341 (Simulation time: 2 hr 24 min 59 sec) 
Heartbeat CPU 4 instructions: 370000002 cycles: 369901032 heartbeat IPC: 0.771613 cumulative IPC: 0.963679 (Simulation time: 2 hr 25 min 7 sec) 
Heartbeat CPU 3 instructions: 370000002 cycles: 380099003 heartbeat IPC: 0.743313 cumulative IPC: 0.953415 (Simulation time: 2 hr 28 min 7 sec) 
Heartbeat CPU 2 instructions: 400000000 cycles: 380414372 heartbeat IPC: 0.909923 cumulative IPC: 1.0103 (Simulation time: 2 hr 28 min 13 sec) 
Heartbeat CPU 1 instructions: 230000002 cycles: 382335071 heartbeat IPC: 0.56515 cumulative IPC: 0.529871 (Simulation time: 2 hr 28 min 47 sec) 
Heartbeat CPU 4 instructions: 380000000 cycles: 383093424 heartbeat IPC: 0.758012 cumulative IPC: 0.95633 (Simulation time: 2 hr 29 min 1 sec) 
Heartbeat CPU 5 instructions: 300000000 cycles: 383226419 heartbeat IPC: 0.671175 cumulative IPC: 0.714635 (Simulation time: 2 hr 29 min 3 sec) 
Heartbeat CPU 2 instructions: 410000000 cycles: 389975723 heartbeat IPC: 1.04588 cumulative IPC: 1.01121 (Simulation time: 2 hr 31 min 18 sec) 
Heartbeat CPU 3 instructions: 380000000 cycles: 391803547 heartbeat IPC: 0.854369 cumulative IPC: 0.950348 (Simulation time: 2 hr 31 min 56 sec) 
Heartbeat CPU 6 instructions: 140000000 cycles: 392543698 heartbeat IPC: 0.247045 cumulative IPC: 0.309987 (Simulation time: 2 hr 32 min 12 sec) 
Heartbeat CPU 4 instructions: 390000002 cycles: 395904405 heartbeat IPC: 0.780581 cumulative IPC: 0.950436 (Simulation time: 2 hr 33 min 24 sec) 
Heartbeat CPU 5 instructions: 310000000 cycles: 397706518 heartbeat IPC: 0.690603 cumulative IPC: 0.713729 (Simulation time: 2 hr 34 min 0 sec) 
Heartbeat CPU 2 instructions: 420000000 cycles: 399422860 heartbeat IPC: 1.05852 cumulative IPC: 1.01237 (Simulation time: 2 hr 34 min 38 sec) 
Heartbeat CPU 7 instructions: 100000000 cycles: 400030363 heartbeat IPC: 0.206031 cumulative IPC: 0.207174 (Simulation time: 2 hr 34 min 51 sec) 
Heartbeat CPU 1 instructions: 240000000 cycles: 400426245 heartbeat IPC: 0.552756 cumulative IPC: 0.530942 (Simulation time: 2 hr 35 min 0 sec) 
Heartbeat CPU 3 instructions: 390000000 cycles: 401760038 heartbeat IPC: 1.00437 cumulative IPC: 0.951734 (Simulation time: 2 hr 35 min 31 sec) 
Heartbeat CPU 0 instructions: 100000000 cycles: 402758106 heartbeat IPC: 0.18818 cumulative IPC: 0.198854 (Simulation time: 2 hr 35 min 55 sec) 
Heartbeat CPU 4 instructions: 400000000 cycles: 406721965 heartbeat IPC: 0.924423 cumulative IPC: 0.94972 (Simulation time: 2 hr 37 min 14 sec) 
Heartbeat CPU 2 instructions: 430000001 cycles: 408832697 heartbeat IPC: 1.06272 cumulative IPC: 1.01357 (Simulation time: 2 hr 37 min 56 sec) 
Heartbeat CPU 5 instructions: 320000000 cycles: 410316536 heartbeat IPC: 0.79302 cumulative IPC: 0.716251 (Simulation time: 2 hr 38 min 28 sec) 
Heartbeat CPU 3 instructions: 400000000 cycles: 411804186 heartbeat IPC: 0.995605 cumulative IPC: 0.952842 (Simulation time: 2 hr 38 min 57 sec) 
Heartbeat CPU 1 instructions: 250000003 cycles: 416634108 heartbeat IPC: 0.616985 cumulative IPC: 0.534404 (Simulation time: 2 hr 40 min 42 sec) 
Heartbeat CPU 4 instructions: 410000003 cycles: 416767417 heartbeat IPC: 0.995476 cumulative IPC: 0.950861 (Simulation time: 2 hr 40 min 45 sec) 
Heartbeat CPU 2 instructions: 440000000 cycles: 418172600 heartbeat IPC: 1.07067 cumulative IPC: 1.01489 (Simulation time: 2 hr 41 min 20 sec) 
Heartbeat CPU 3 instructions: 410000001 cycles: 421708616 heartbeat IPC: 1.00965 cumulative IPC: 0.954221 (Simulation time: 2 hr 42 min 37 sec) 
Heartbeat CPU 5 instructions: 330000000 cycles: 423312508 heartbeat IPC: 0.769469 cumulative IPC: 0.71794 (Simulation time: 2 hr 43 min 9 sec) 
Heartbeat CPU 6 instructions: 150000001 cycles: 425598227 heartbeat IPC: 0.30253 cumulative IPC: 0.309388 (Simulation time: 2 hr 43 min 55 sec) 
Heartbeat CPU 4 instructions: 420000000 cycles: 426905646 heartbeat IPC: 0.986365 cumulative IPC: 0.951732 (Simulation time: 2 hr 44 min 24 sec) 
Heartbeat CPU 2 instructions: 450000001 cycles: 427610541 heartbeat IPC: 1.05955 cumulative IPC: 1.01591 (Simulation time: 2 hr 44 min 39 sec) 
Heartbeat CPU 3 instructions: 420000000 cycles: 431707615 heartbeat IPC: 1.0001 cumulative IPC: 0.955319 (Simulation time: 2 hr 46 min 3 sec) 
Heartbeat CPU 7 instructions: 110000002 cycles: 432246807 heartbeat IPC: 0.310401 cumulative IPC: 0.215123 (Simulation time: 2 hr 46 min 15 sec) 
Heartbeat CPU 1 instructions: 260000000 cycles: 433768832 heartbeat IPC: 0.58361 cumulative IPC: 0.536412 (Simulation time: 2 hr 46 min 51 sec) 
Heartbeat CPU 2 instructions: 460000000 cycles: 436697260 heartbeat IPC: 1.10051 cumulative IPC: 1.01772 (Simulation time: 2 hr 47 min 58 sec) 
Heartbeat CPU 5 instructions: 340000000 cycles: 436751324 heartbeat IPC: 0.744113 cumulative IPC: 0.718772 (Simulation time: 2 hr 47 min 59 sec) 
Heartbeat CPU 4 instructions: 430000003 cycles: 437026646 heartbeat IPC: 0.988045 cumulative IPC: 0.952601 (Simulation time: 2 hr 48 min 5 sec) 
Heartbeat CPU 3 instructions: 430000002 cycles: 441862146 heartbeat IPC: 0.984782 cumulative IPC: 0.956018 (Simulation time: 2 hr 49 min 45 sec) 
Heartbeat CPU 2 instructions: 470000001 cycles: 445528088 heartbeat IPC: 1.1324 cumulative IPC: 1.02007 (Simulation time: 2 hr 51 min 3 sec) 
Heartbeat CPU 4 instructions: 440000000 cycles: 447138187 heartbeat IPC: 0.988969 cumulative IPC: 0.95345 (Simulation time: 2 hr 51 min 42 sec) 
Heartbeat CPU 1 instructions: 270000002 cycles: 449577293 heartbeat IPC: 0.632573 cumulative IPC: 0.539901 (Simulation time: 2 hr 52 min 38 sec) 
Heartbeat CPU 7 instructions: 120000000 cycles: 449703101 heartbeat IPC: 0.572859 cumulative IPC: 0.229452 (Simulation time: 2 hr 52 min 41 sec) 
Finished CPU 7 instructions: 100000000 cycles: 435821470 cumulative IPC: 0.229452 (Simulation time: 2 hr 52 min 41 sec) 
Heartbeat CPU 5 instructions: 350000002 cycles: 449994703 heartbeat IPC: 0.755094 cumulative IPC: 0.719875 (Simulation time: 2 hr 52 min 48 sec) 
Heartbeat CPU 3 instructions: 440000000 cycles: 451988148 heartbeat IPC: 0.987556 cumulative IPC: 0.956747 (Simulation time: 2 hr 53 min 25 sec) 
Heartbeat CPU 0 instructions: 110000000 cycles: 452259476 heartbeat IPC: 0.202015 cumulative IPC: 0.199211 (Simulation time: 2 hr 53 min 30 sec) 
Heartbeat CPU 2 instructions: 480000000 cycles: 454333174 heartbeat IPC: 1.13571 cumulative IPC: 1.02238 (Simulation time: 2 hr 54 min 9 sec) 
Heartbeat CPU 4 instructions: 450000000 cycles: 457194222 heartbeat IPC: 0.994428 cumulative IPC: 0.954379 (Simulation time: 2 hr 55 min 7 sec) 
Heartbeat CPU 6 instructions: 160000000 cycles: 459791486 heartbeat IPC: 0.292455 cumulative IPC: 0.30809 (Simulation time: 2 hr 56 min 3 sec) 
Heartbeat CPU 3 instructions: 450000001 cycles: 462019241 heartbeat IPC: 0.9969 cumulative IPC: 0.957646 (Simulation time: 2 hr 56 min 48 sec) 
Heartbeat CPU 2 instructions: 490000002 cycles: 463129633 heartbeat IPC: 1.13682 cumulative IPC: 1.02462 (Simulation time: 2 hr 57 min 12 sec) 
Heartbeat CPU 5 instructions: 360000000 cycles: 463324939 heartbeat IPC: 0.750174 cumulative IPC: 0.720774 (Simulation time: 2 hr 57 min 16 sec) 
Heartbeat CPU 1 instructions: 280000000 cycles: 466706802 heartbeat IPC: 0.583788 cumulative IPC: 0.541561 (Simulation time: 2 hr 58 min 25 sec) 
Heartbeat CPU 4 instructions: 460000000 cycles: 467386008 heartbeat IPC: 0.981182 cumulative IPC: 0.954981 (Simulation time: 2 hr 58 min 40 sec) 
Heartbeat CPU 3 instructions: 460000000 cycles: 472351519 heartbeat IPC: 0.967841 cumulative IPC: 0.957876 (Simulation time: 3 hr 0 min 18 sec) 
Heartbeat CPU 2 instructions: 500000000 cycles: 473642180 heartbeat IPC: 0.951244 cumulative IPC: 1.02294 (Simulation time: 3 hr 0 min 46 sec) 
Heartbeat CPU 5 instructions: 370000000 cycles: 477069457 heartbeat IPC: 0.727563 cumulative IPC: 0.720975 (Simulation time: 3 hr 2 min 3 sec) 
Heartbeat CPU 4 instructions: 470000003 cycles: 477653513 heartbeat IPC: 0.973947 cumulative IPC: 0.955401 (Simulation time: 3 hr 2 min 17 sec) 
Heartbeat CPU 3 instructions: 470000000 cycles: 482361636 heartbeat IPC: 0.998989 cumulative IPC: 0.958754 (Simulation time: 3 hr 3 min 53 sec) 
Heartbeat CPU 1 instructions: 290000000 cycles: 483208198 heartbeat IPC: 0.606009 cumulative IPC: 0.543827 (Simulation time: 3 hr 4 min 11 sec) 
Heartbeat CPU 6 instructions: 170000003 cycles: 485510669 heartbeat IPC: 0.388815 cumulative IPC: 0.312492 (Simulation time: 3 hr 4 min 59 sec) 
Heartbeat CPU 2 instructions: 510000000 cycles: 485569889 heartbeat IPC: 0.838384 cumulative IPC: 1.01828 (Simulation time: 3 hr 5 min 0 sec) 
Heartbeat CPU 4 instructions: 480000000 cycles: 487821885 heartbeat IPC: 0.983441 cumulative IPC: 0.956003 (Simulation time: 3 hr 5 min 44 sec) 
Heartbeat CPU 5 instructions: 380000000 cycles: 490641670 heartbeat IPC: 0.7368 cumulative IPC: 0.721426 (Simulation time: 3 hr 6 min 44 sec) 
Heartbeat CPU 3 instructions: 480000000 cycles: 492436572 heartbeat IPC: 0.992562 cumulative IPC: 0.959466 (Simulation time: 3 hr 7 min 19 sec) 
Heartbeat CPU 2 instructions: 520000000 cycles: 497539296 heartbeat IPC: 0.835463 cumulative IPC: 1.01375 (Simulation time: 3 hr 9 min 3 sec) 
Heartbeat CPU 4 instructions: 490000001 cycles: 498005715 heartbeat IPC: 0.981949 cumulative IPC: 0.956549 (Simulation time: 3 hr 9 min 12 sec) 
Heartbeat CPU 1 instructions: 300000000 cycles: 499188424 heartbeat IPC: 0.625773 cumulative IPC: 0.546526 (Simulation time: 3 hr 9 min 36 sec) 
Heartbeat CPU 0 instructions: 120000000 cycles: 502007381 heartbeat IPC: 0.201013 cumulative IPC: 0.199395 (Simulation time: 3 hr 10 min 33 sec) 
Heartbeat CPU 3 instructions: 490000001 cycles: 502462651 heartbeat IPC: 0.997399 cumulative IPC: 0.960244 (Simulation time: 3 hr 10 min 44 sec) 
Heartbeat CPU 7 instructions: 130000000 cycles: 503574666 heartbeat IPC: 0.185627 cumulative IPC: 0.224631 (Simulation time: 3 hr 11 min 10 sec) 
Heartbeat CPU 5 instructions: 390000003 cycles: 504765754 heartbeat IPC: 0.708011 cumulative IPC: 0.72104 (Simulation time: 3 hr 11 min 36 sec) 
Heartbeat CPU 4 instructions: 500000000 cycles: 507929192 heartbeat IPC: 1.00771 cumulative IPC: 0.957576 (Simulation time: 3 hr 12 min 49 sec) 
Heartbeat CPU 2 instructions: 530000002 cycles: 509395863 heartbeat IPC: 0.843415 cumulative IPC: 1.00968 (Simulation time: 3 hr 13 min 20 sec) 
Heartbeat CPU 6 instructions: 180000000 cycles: 510490911 heartbeat IPC: 0.400316 cumulative IPC: 0.31691 (Simulation time: 3 hr 13 min 43 sec) 
Finished CPU 0 instructions: 100000000 cycles: 498313599 cumulative IPC: 0.200677 (Simulation time: 3 hr 14 min 18 sec) 

CPU 0 Branch Prediction Accuracy: 97.1896% MPKI: 4.97496

CPU 1 Branch Prediction Accuracy: 97.2032% MPKI: 2.49745

CPU 2 Branch Prediction Accuracy: 99.2039% MPKI: 0.346273

CPU 3 Branch Prediction Accuracy: 97.9157% MPKI: 0.729983

CPU 4 Branch Prediction Accuracy: 99.1402% MPKI: 0.197417

CPU 5 Branch Prediction Accuracy: 96.9256% MPKI: 2.62257

CPU 6 Branch Prediction Accuracy: 97.5808% MPKI: 2.07185

CPU 7 Branch Prediction Accuracy: 98.1725% MPKI: 2.01774

ChampSim completed all CPUs

Total Simulation Statistics (not including warmup)

CPU 0 cumulative IPC: 0.200677 instructions: 100000000 cycles: 498313599
L1D TOTAL     ACCESS:   34811765  HIT:   32348925  MISS:    2462840
L1D LOAD      ACCESS:   19174738  HIT:   17047525  MISS:    2127213
L1D RFO       ACCESS:   15637027  HIT:   15301400  MISS:     335627
L1D PREFETCH  ACCESS:          0  HIT:          0  MISS:          0
L1D WRITEBACK ACCESS:          0  HIT:          0  MISS:          0
L1I TOTAL     ACCESS:   29906170  HIT:   29903205  MISS:       2965
L1I LOAD      ACCESS:   29906170  HIT:   29903205  MISS:       2965
L1I RFO       ACCESS:          0  HIT:          0  MISS:          0
L1I PREFETCH  ACCESS:          0  HIT:          0  MISS:          0
L1I WRITEBACK ACCESS:          0  HIT:          0  MISS:          0
L2C TOTAL     ACCESS:    3922110  HIT:    1713713  MISS:    2208397
L2C LOAD      ACCESS:    2130046  HIT:     303069  MISS:    1826977
L2C RFO       ACCESS:     335623  HIT:      16983  MISS:     318640
L2C PREFETCH  ACCESS:     406010  HIT:     347176  MISS:      58834
L2C WRITEBACK ACCESS:    1050431  HIT:    1046485  MISS:       3946
LLC TOTAL     ACCESS:    4537515  HIT:    1799314  MISS:    2738201
LLC LOAD      ACCESS:    1817058  HIT:     454472  MISS:    1362586
LLC RFO       ACCESS:     318388  HIT:      55922  MISS:     262466
LLC PREFETCH  ACCESS:    1471383  HIT:     365798  MISS:    1105585
LLC WRITEBACK ACCESS:     930686  HIT:     923122  MISS:       7564

CPU 1 cumulative IPC: 0.550007 instructions: 274075746 cycles: 498313599
L1D TOTAL     ACCESS:   49920511  HIT:   44731975  MISS:    5188536
L1D LOAD      ACCESS:   42886674  HIT:   37994495  MISS:    4892179
L1D RFO       ACCESS:    7033837  HIT:    6737480  MISS:     296357
L1D PREFETCH  ACCESS:          0  HIT:          0  MISS:          0
L1D WRITEBACK ACCESS:          0  HIT:          0  MISS:          0
L1I TOTAL     ACCESS:   72273075  HIT:   72272724  MISS:        351
L1I LOAD      ACCESS:   72273075  HIT:   72272724  MISS:        351
L1I RFO       ACCESS:          0  HIT:          0  MISS:          0
L1I PREFETCH  ACCESS:          0  HIT:          0  MISS:          0
L1I WRITEBACK ACCESS:          0  HIT:          0  MISS:          0
L2C TOTAL     ACCESS:    7855309  HIT:    3873342  MISS:    3981967
L2C LOAD      ACCESS:    4892530  HIT:    2129039  MISS:    2763491
L2C RFO       ACCESS:     296332  HIT:      54589  MISS:     241743
L2C PREFETCH  ACCESS:    2182885  HIT:    1206926  MISS:     975959
L2C WRITEBACK ACCESS:     483562  HIT:     482788  MISS:        774
LLC TOTAL     ACCESS:   11744531  HIT:    7256607  MISS:    4487924
LLC LOAD      ACCESS:    2474046  HIT:    1354737  MISS:    1119309
LLC RFO       ACCESS:     241740  HIT:      31081  MISS:     210659
LLC PREFETCH  ACCESS:    8633300  HIT:    5478900  MISS:    3154400
LLC WRITEBACK ACCESS:     395445  HIT:     391889  MISS:       3556

CPU 2 cumulative IPC: 1.00869 instructions: 502644583 cycles: 498313599
L1D TOTAL     ACCESS:  148989298  HIT:  143367625  MISS:    5621673
L1D LOAD      ACCESS:  121529318  HIT:  116844237  MISS:    4685081
L1D RFO       ACCESS:   27459980  HIT:   26523388  MISS:     936592
L1D PREFETCH  ACCESS:          0  HIT:          0  MISS:          0
L1D WRITEBACK ACCESS:          0  HIT:          0  MISS:          0
L1I TOTAL     ACCESS:  121219344  HIT:  121217788  MISS:       1556
L1I LOAD      ACCESS:  121219344  HIT:  121217788  MISS:       1556
L1I RFO       ACCESS:          0  HIT:          0  MISS:          0
L1I PREFETCH  ACCESS:          0  HIT:          0  MISS:          0
L1I WRITEBACK ACCESS:          0  HIT:          0  MISS:          0
L2C TOTAL     ACCESS:   15510214  HIT:   11592027  MISS:    3918187
L2C LOAD      ACCESS:    4686624  HIT:    3089930  MISS:    1596694
L2C RFO       ACCESS:     936592  HIT:     317166  MISS:     619426
L2C PREFETCH  ACCESS:    8078388  HIT:    6377155  MISS:    1701233
L2C WRITEBACK ACCESS:    1808610  HIT:    1807776  MISS:        834
LLC TOTAL     ACCESS:   16037189  HIT:   12406498  MISS:    3630691
LLC LOAD      ACCESS:    1365228  HIT:    1135230  MISS:     229998
LLC RFO       ACCESS:     619420  HIT:      79244  MISS:     540176
LLC PREFETCH  ACCESS:   12809644  HIT:    9957558  MISS:    2852086
LLC WRITEBACK ACCESS:    1242897  HIT:    1234466  MISS:       8431

CPU 3 cumulative IPC: 0.961181 instructions: 478969671 cycles: 498313599
L1D TOTAL     ACCESS:  225777670  HIT:  216010700  MISS:    9766970
L1D LOAD      ACCESS:  191369028  HIT:  181841065  MISS:    9527963
L1D RFO       ACCESS:   34408642  HIT:   34169635  MISS:     239007
L1D PREFETCH  ACCESS:          0  HIT:          0  MISS:          0
L1D WRITEBACK ACCESS:          0  HIT:          0  MISS:          0
L1I TOTAL     ACCESS:  112150373  HIT:  112150319  MISS:         54
L1I LOAD      ACCESS:  112150373  HIT:  112150319  MISS:         54
L1I RFO       ACCESS:          0  HIT:          0  MISS:          0
L1I PREFETCH  ACCESS:          0  HIT:          0  MISS:          0
L1I WRITEBACK ACCESS:          0  HIT:          0  MISS:          0
L2C TOTAL     ACCESS:   14544482  HIT:    5662477  MISS:    8882005
L2C LOAD      ACCESS:    9525300  HIT:    3577408  MISS:    5947892
L2C RFO       ACCESS:     236528  HIT:      26197  MISS:     210331
L2C PREFETCH  ACCESS:    4328266  HIT:    1606751  MISS:    2721515
L2C WRITEBACK ACCESS:     454388  HIT:     452121  MISS:       2267
LLC TOTAL     ACCESS:   28379225  HIT:   19503482  MISS:    8875743
LLC LOAD      ACCESS:    4958217  HIT:    4542698  MISS:     415519
LLC RFO       ACCESS:     210331  HIT:          1  MISS:     210330
LLC PREFETCH  ACCESS:   22828902  HIT:   14579368  MISS:    8249534
LLC WRITEBACK ACCESS:     381775  HIT:     381415  MISS:        360

CPU 4 cumulative IPC: 0.957895 instructions: 477331857 cycles: 498313599
L1D TOTAL     ACCESS:  147197581  HIT:  142352038  MISS:    4845543
L1D LOAD      ACCESS:  136017648  HIT:  132425981  MISS:    3591667
L1D RFO       ACCESS:   11179933  HIT:    9926057  MISS:    1253876
L1D PREFETCH  ACCESS:          0  HIT:          0  MISS:          0
L1D WRITEBACK ACCESS:          0  HIT:          0  MISS:          0
L1I TOTAL     ACCESS:  113070942  HIT:  113070674  MISS:        268
L1I LOAD      ACCESS:  113070942  HIT:  113070674  MISS:        268
L1I RFO       ACCESS:          0  HIT:          0  MISS:          0
L1I PREFETCH  ACCESS:          0  HIT:          0  MISS:          0
L1I WRITEBACK ACCESS:          0  HIT:          0  MISS:          0
L2C TOTAL     ACCESS:   10204098  HIT:    6748164  MISS:    3455934
L2C LOAD      ACCESS:    3591921  HIT:    2323708  MISS:    1268213
L2C RFO       ACCESS:    1252344  HIT:     418913  MISS:     833431
L2C PREFETCH  ACCESS:    3797477  HIT:    2443264  MISS:    1354213
L2C WRITEBACK ACCESS:    1562356  HIT:    1562279  MISS:         77
LLC TOTAL     ACCESS:   13329920  HIT:    9915236  MISS:    3414684
LLC LOAD      ACCESS:    1136840  HIT:    1039225  MISS:      97615
LLC RFO       ACCESS:     833431  HIT:      35059  MISS:     798372
LLC PREFETCH  ACCESS:   10428255  HIT:    7912353  MISS:    2515902
LLC WRITEBACK ACCESS:     931394  HIT:     928599  MISS:       2795

CPU 5 cumulative IPC: 0.722669 instructions: 360115748 cycles: 498313599
L1D TOTAL     ACCESS:   60306022  HIT:   54888768  MISS:    5417254
L1D LOAD      ACCESS:   54524974  HIT:   49338345  MISS:    5186629
L1D RFO       ACCESS:    5781048  HIT:    5550423  MISS:     230625
L1D PREFETCH  ACCESS:          0  HIT:          0  MISS:          0
L1D WRITEBACK ACCESS:          0  HIT:          0  MISS:          0
L1I TOTAL     ACCESS:   94277662  HIT:   94277428  MISS:        234
L1I LOAD      ACCESS:   94277662  HIT:   94277428  MISS:        234
L1I RFO       ACCESS:          0  HIT:          0  MISS:          0
L1I PREFETCH  ACCESS:          0  HIT:          0  MISS:          0
L1I WRITEBACK ACCESS:          0  HIT:          0  MISS:          0
L2C TOTAL     ACCESS:    8205177  HIT:    3575037  MISS:    4630140
L2C LOAD      ACCESS:    5186862  HIT:    2316898  MISS:    2869964
L2C RFO       ACCESS:     230612  HIT:      29999  MISS:     200613
L2C PREFETCH  ACCESS:    2449858  HIT:     891097  MISS:    1558761
L2C WRITEBACK ACCESS:     337845  HIT:     337043  MISS:        802
LLC TOTAL     ACCESS:   14917858  HIT:   10114578  MISS:    4803280
LLC LOAD      ACCESS:    2427151  HIT:    1698852  MISS:     728299
LLC RFO       ACCESS:     200607  HIT:      37713  MISS:     162894
LLC PREFETCH  ACCESS:   12000173  HIT:    8089522  MISS:    3910651
LLC WRITEBACK ACCESS:     289927  HIT:     288491  MISS:       1436

CPU 6 cumulative IPC: 0.317014 instructions: 157972367 cycles: 498313599
L1D TOTAL     ACCESS:   58756799  HIT:   54242797  MISS:    4514002
L1D LOAD      ACCESS:   20419556  HIT:   15906406  MISS:    4513150
L1D RFO       ACCESS:   38337243  HIT:   38336391  MISS:        852
L1D PREFETCH  ACCESS:          0  HIT:          0  MISS:          0
L1D WRITEBACK ACCESS:          0  HIT:          0  MISS:          0
L1I TOTAL     ACCESS:   39890375  HIT:   39890375  MISS:          0
L1I LOAD      ACCESS:   39890375  HIT:   39890375  MISS:          0
L1I RFO       ACCESS:          0  HIT:          0  MISS:          0
L1I PREFETCH  ACCESS:          0  HIT:          0  MISS:          0
L1I WRITEBACK ACCESS:          0  HIT:          0  MISS:          0
L2C TOTAL     ACCESS:    7547276  HIT:    3124197  MISS:    4423079
L2C LOAD      ACCESS:    4512712  HIT:     441979  MISS:    4070733
L2C RFO       ACCESS:        852  HIT:        736  MISS:        116
L2C PREFETCH  ACCESS:     894135  HIT:     546353  MISS:     347782
L2C WRITEBACK ACCESS:    2139577  HIT:    2135129  MISS:       4448
LLC TOTAL     ACCESS:   11108432  HIT:    5413365  MISS:    5695067
LLC LOAD      ACCESS:    3879055  HIT:    1259542  MISS:    2619513
LLC RFO       ACCESS:        116  HIT:         79  MISS:         37
LLC PREFETCH  ACCESS:    5184162  HIT:    2109515  MISS:    3074647
LLC WRITEBACK ACCESS:    2045099  HIT:    2044229  MISS:        870

CPU 7 cumulative IPC: 0.228058 instructions: 113644213 cycles: 498313599
L1D TOTAL     ACCESS:   42603343  HIT:   36982894  MISS:    5620449
L1D LOAD      ACCESS:   19043881  HIT:   13425077  MISS:    5618804
L1D RFO       ACCESS:   23559462  HIT:   23557817  MISS:       1645
L1D PREFETCH  ACCESS:          0  HIT:          0  MISS:          0
L1D WRITEBACK ACCESS:          0  HIT:          0  MISS:          0
L1I TOTAL     ACCESS:   33046128  HIT:   33046128  MISS:          0
L1I LOAD      ACCESS:   33046128  HIT:   33046128  MISS:          0
L1I RFO       ACCESS:          0  HIT:          0  MISS:          0
L1I PREFETCH  ACCESS:          0  HIT:          0  MISS:          0
L1I WRITEBACK ACCESS:          0  HIT:          0  MISS:          0
L2C TOTAL     ACCESS:    6797644  HIT:    1219910  MISS:    5577734
L2C LOAD      ACCESS:    5618485  HIT:     665097  MISS:    4953388
L2C RFO       ACCESS:       1645  HIT:       1208  MISS:        437
L2C PREFETCH  ACCESS:     945237  HIT:     323138  MISS:     622099
L2C WRITEBACK ACCESS:     232277  HIT:     230467  MISS:       1810
LLC TOTAL     ACCESS:   12226944  HIT:    6453190  MISS:    5773754
LLC LOAD      ACCESS:    4539906  HIT:    2618824  MISS:    1921082
LLC RFO       ACCESS:        435  HIT:        280  MISS:        155
LLC PREFETCH  ACCESS:    7489838  HIT:    3637911  MISS:    3851927
LLC WRITEBACK ACCESS:     196765  HIT:     196175  MISS:        590

Region of Interest Statistics

CPU 0 cumulative IPC: 0.200677 instructions: 100000000 cycles: 498313599
L1D TOTAL     ACCESS:   34811765  HIT:   32348925  MISS:    2462840
L1D LOAD      ACCESS:   19174738  HIT:   17047525  MISS:    2127213
L1D RFO       ACCESS:   15637027  HIT:   15301400  MISS:     335627
L1D PREFETCH  ACCESS:          0  HIT:          0  MISS:          0
L1D WRITEBACK ACCESS:          0  HIT:          0  MISS:          0
L1D PREFETCH  REQUESTED:          0  ISSUED:          0  USEFUL:          0  USELESS:          0
L1I TOTAL     ACCESS:   29906170  HIT:   29903205  MISS:       2965
L1I LOAD      ACCESS:   29906170  HIT:   29903205  MISS:       2965
L1I RFO       ACCESS:          0  HIT:          0  MISS:          0
L1I PREFETCH  ACCESS:          0  HIT:          0  MISS:          0
L1I WRITEBACK ACCESS:          0  HIT:          0  MISS:          0
L1I PREFETCH  REQUESTED:          0  ISSUED:          0  USEFUL:          0  USELESS:          0
L2C TOTAL     ACCESS:    3922110  HIT:    1713713  MISS:    2208397
L2C LOAD      ACCESS:    2130046  HIT:     303069  MISS:    1826977
L2C RFO       ACCESS:     335623  HIT:      16983  MISS:     318640
L2C PREFETCH  ACCESS:     406010  HIT:     347176  MISS:      58834
L2C WRITEBACK ACCESS:    1050431  HIT:    1046485  MISS:       3946
L2C PREFETCH  REQUESTED:    3108537  ISSUED:    3108537  USEFUL:      24996  USELESS:      48160
LLC TOTAL     ACCESS:    4537515  HIT:    1799314  MISS:    2738201
LLC LOAD      ACCESS:    1817058  HIT:     454472  MISS:    1362586
LLC RFO       ACCESS:     318388  HIT:      55922  MISS:     262466
LLC PREFETCH  ACCESS:    1471383  HIT:     365798  MISS:    1105585
LLC WRITEBACK ACCESS:     930686  HIT:     923122  MISS:       7564
LLC PREFETCH  REQUESTED:          0  ISSUED:          0  USEFUL:   14302218  USELESS:   16685973
Major fault: 0 Minor fault: 33797

CPU 1 cumulative IPC: 0.524428 instructions: 100000002 cycles: 190684103
L1D TOTAL     ACCESS:   18389018  HIT:   16433249  MISS:    1955769
L1D LOAD      ACCESS:   15672611  HIT:   13821143  MISS:    1851468
L1D RFO       ACCESS:    2716407  HIT:    2612106  MISS:     104301
L1D PREFETCH  ACCESS:          0  HIT:          0  MISS:          0
L1D WRITEBACK ACCESS:          0  HIT:          0  MISS:          0
L1D PREFETCH  REQUESTED:          0  ISSUED:          0  USEFUL:          0  USELESS:          0
L1I TOTAL     ACCESS:   26167839  HIT:   26167692  MISS:        147
L1I LOAD      ACCESS:   26167839  HIT:   26167692  MISS:        147
L1I RFO       ACCESS:          0  HIT:          0  MISS:          0
L1I PREFETCH  ACCESS:          0  HIT:          0  MISS:          0
L1I WRITEBACK ACCESS:          0  HIT:          0  MISS:          0
L1I PREFETCH  REQUESTED:          0  ISSUED:          0  USEFUL:          0  USELESS:          0
L2C TOTAL     ACCESS:    2928862  HIT:    1446144  MISS:    1482718
L2C LOAD      ACCESS:    1851615  HIT:     794580  MISS:    1057035
L2C RFO       ACCESS:     104289  HIT:      21317  MISS:      82972
L2C PREFETCH  ACCESS:     790121  HIT:     447697  MISS:     342424
L2C WRITEBACK ACCESS:     182837  HIT:     182550  MISS:        287
L2C PREFETCH  REQUESTED:   14680366  ISSUED:   14680365  USEFUL:    1051587  USELESS:      72267
LLC TOTAL     ACCESS:    4259408  HIT:    2577155  MISS:    1682253
LLC LOAD      ACCESS:     956290  HIT:     515342  MISS:     440948
LLC RFO       ACCESS:      82970  HIT:       9931  MISS:      73039
LLC PREFETCH  ACCESS:    3071520  HIT:    1904477  MISS:    1167043
LLC WRITEBACK ACCESS:     148628  HIT:     147405  MISS:       1223
LLC PREFETCH  REQUESTED:          0  ISSUED:          0  USEFUL:   14302218  USELESS:   16685973
Major fault: 0 Minor fault: 4320

CPU 2 cumulative IPC: 1.06292 instructions: 100000001 cycles: 94080150
L1D TOTAL     ACCESS:   26165680  HIT:   25010165  MISS:    1155515
L1D LOAD      ACCESS:   22182860  HIT:   21364579  MISS:     818281
L1D RFO       ACCESS:    3982820  HIT:    3645586  MISS:     337234
L1D PREFETCH  ACCESS:          0  HIT:          0  MISS:          0
L1D WRITEBACK ACCESS:          0  HIT:          0  MISS:          0
L1D PREFETCH  REQUESTED:          0  ISSUED:          0  USEFUL:          0  USELESS:          0
L1I TOTAL     ACCESS:   23106842  HIT:   23106405  MISS:        437
L1I LOAD      ACCESS:   23106842  HIT:   23106405  MISS:        437
L1I RFO       ACCESS:          0  HIT:          0  MISS:          0
L1I PREFETCH  ACCESS:          0  HIT:          0  MISS:          0
L1I WRITEBACK ACCESS:          0  HIT:          0  MISS:          0
L1I PREFETCH  REQUESTED:          0  ISSUED:          0  USEFUL:          0  USELESS:          0
L2C TOTAL     ACCESS:    2769646  HIT:    1815308  MISS:     954338
L2C LOAD      ACCESS:     818717  HIT:     490226  MISS:     328491
L2C RFO       ACCESS:     337234  HIT:      30288  MISS:     306946
L2C PREFETCH  ACCESS:    1101144  HIT:     782281  MISS:     318863
L2C WRITEBACK ACCESS:     512551  HIT:     512513  MISS:         38
L2C PREFETCH  REQUESTED:   22804871  ISSUED:   22801862  USEFUL:    1833613  USELESS:      11639
LLC TOTAL     ACCESS:    3443688  HIT:    2484295  MISS:     959393
LLC LOAD      ACCESS:     258756  HIT:     213801  MISS:      44955
LLC RFO       ACCESS:     306945  HIT:       4795  MISS:     302150
LLC PREFETCH  ACCESS:    2432220  HIT:    1820529  MISS:     611691
LLC WRITEBACK ACCESS:     445767  HIT:     445170  MISS:        597
LLC PREFETCH  REQUESTED:          0  ISSUED:          0  USEFUL:   14302218  USELESS:   16685973
Major fault: 0 Minor fault: 20401

CPU 3 cumulative IPC: 0.963749 instructions: 100000000 cycles: 103761455
L1D TOTAL     ACCESS:   49455810  HIT:   47427853  MISS:    2027957
L1D LOAD      ACCESS:   42061543  HIT:   40084329  MISS:    1977214
L1D RFO       ACCESS:    7394267  HIT:    7343524  MISS:      50743
L1D PREFETCH  ACCESS:          0  HIT:          0  MISS:          0
L1D WRITEBACK ACCESS:          0  HIT:          0  MISS:          0
L1D PREFETCH  REQUESTED:          0  ISSUED:          0  USEFUL:          0  USELESS:          0
L1I TOTAL     ACCESS:   23562390  HIT:   23562390  MISS:          0
L1I LOAD      ACCESS:   23562390  HIT:   23562390  MISS:          0
L1I RFO       ACCESS:          0  HIT:          0  MISS:          0
L1I PREFETCH  ACCESS:          0  HIT:          0  MISS:          0
L1I WRITEBACK ACCESS:          0  HIT:          0  MISS:          0
L1I PREFETCH  REQUESTED:          0  ISSUED:          0  USEFUL:          0  USELESS:          0
L2C TOTAL     ACCESS:    2995569  HIT:    1159768  MISS:    1835801
L2C LOAD      ACCESS:    1976623  HIT:     744716  MISS:    1231907
L2C RFO       ACCESS:      50406  HIT:       3353  MISS:      47053
L2C PREFETCH  ACCESS:     906481  HIT:     350086  MISS:     556395
L2C WRITEBACK ACCESS:      62059  HIT:      61613  MISS:        446
L2C PREFETCH  REQUESTED:   45139465  ISSUED:   35914650  USEFUL:    2916760  USELESS:        287
LLC TOTAL     ACCESS:    5820959  HIT:    3986041  MISS:    1834918
LLC LOAD      ACCESS:    1036840  HIT:     953583  MISS:      83257
LLC RFO       ACCESS:      47053  HIT:          0  MISS:      47053
LLC PREFETCH  ACCESS:    4689546  HIT:    2985022  MISS:    1704524
LLC WRITEBACK ACCESS:      47520  HIT:      47436  MISS:         84
LLC PREFETCH  REQUESTED:          0  ISSUED:          0  USEFUL:   14302218  USELESS:   16685973
Major fault: 0 Minor fault: 103882

CPU 4 cumulative IPC: 0.893822 instructions: 100000002 cycles: 111879095
L1D TOTAL     ACCESS:   31340326  HIT:   30446063  MISS:     894263
L1D LOAD      ACCESS:   30026616  HIT:   29398609  MISS:     628007
L1D RFO       ACCESS:    1313710  HIT:    1047454  MISS:     266256
L1D PREFETCH  ACCESS:          0  HIT:          0  MISS:          0
L1D WRITEBACK ACCESS:          0  HIT:          0  MISS:          0
L1D PREFETCH  REQUESTED:          0  ISSUED:          0  USEFUL:          0  USELESS:          0
L1I TOTAL     ACCESS:   22439850  HIT:   22439768  MISS:         82
L1I LOAD      ACCESS:   22439850  HIT:   22439768  MISS:         82
L1I RFO       ACCESS:          0  HIT:          0  MISS:          0
L1I PREFETCH  ACCESS:          0  HIT:          0  MISS:          0
L1I WRITEBACK ACCESS:          0  HIT:          0  MISS:          0
L1I PREFETCH  REQUESTED:          0  ISSUED:          0  USEFUL:          0  USELESS:          0
L2C TOTAL     ACCESS:    1565635  HIT:     726932  MISS:     838703
L2C LOAD      ACCESS:     628088  HIT:     374007  MISS:     254081
L2C RFO       ACCESS:     264764  HIT:      13829  MISS:     250935
L2C PREFETCH  ACCESS:     400179  HIT:      66508  MISS:     333671
L2C WRITEBACK ACCESS:     272604  HIT:     272588  MISS:         16
L2C PREFETCH  REQUESTED:   14576992  ISSUED:   14574788  USEFUL:    1390292  USELESS:       1201
LLC TOTAL     ACCESS:    3203754  HIT:    2363550  MISS:     840204
LLC LOAD      ACCESS:     217517  HIT:     201546  MISS:      15971
LLC RFO       ACCESS:     250935  HIT:         10  MISS:     250925
LLC PREFETCH  ACCESS:    2483166  HIT:    1909934  MISS:     573232
LLC WRITEBACK ACCESS:     252136  HIT:     252060  MISS:         76
LLC PREFETCH  REQUESTED:          0  ISSUED:          0  USEFUL:   14302218  USELESS:   16685973
Major fault: 0 Minor fault: 14592

CPU 5 cumulative IPC: 0.70825 instructions: 100000000 cycles: 141193021
L1D TOTAL     ACCESS:   16664630  HIT:   15182851  MISS:    1481779
L1D LOAD      ACCESS:   15110143  HIT:   13697577  MISS:    1412566
L1D RFO       ACCESS:    1554487  HIT:    1485274  MISS:      69213
L1D PREFETCH  ACCESS:          0  HIT:          0  MISS:          0
L1D WRITEBACK ACCESS:          0  HIT:          0  MISS:          0
L1D PREFETCH  REQUESTED:          0  ISSUED:          0  USEFUL:          0  USELESS:          0
L1I TOTAL     ACCESS:   26323395  HIT:   26323302  MISS:         93
L1I LOAD      ACCESS:   26323395  HIT:   26323302  MISS:         93
L1I RFO       ACCESS:          0  HIT:          0  MISS:          0
L1I PREFETCH  ACCESS:          0  HIT:          0  MISS:          0
L1I WRITEBACK ACCESS:          0  HIT:          0  MISS:          0
L1I PREFETCH  REQUESTED:          0  ISSUED:          0  USEFUL:          0  USELESS:          0
L2C TOTAL     ACCESS:    2243509  HIT:     966213  MISS:    1277296
L2C LOAD      ACCESS:    1412659  HIT:     615003  MISS:     797656
L2C RFO       ACCESS:      69211  HIT:       7535  MISS:      61676
L2C PREFETCH  ACCESS:     669979  HIT:     252250  MISS:     417729
L2C WRITEBACK ACCESS:      91660  HIT:      91425  MISS:        235
L2C PREFETCH  REQUESTED:   19294653  ISSUED:   19294653  USEFUL:    1649156  USELESS:      83995
LLC TOTAL     ACCESS:    4026438  HIT:    2690534  MISS:    1335904
LLC LOAD      ACCESS:     665138  HIT:     461654  MISS:     203484
LLC RFO       ACCESS:      61674  HIT:      11639  MISS:      50035
LLC PREFETCH  ACCESS:    3219428  HIT:    2137534  MISS:    1081894
LLC WRITEBACK ACCESS:      80198  HIT:      79707  MISS:        491
LLC PREFETCH  REQUESTED:          0  ISSUED:          0  USEFUL:   14302218  USELESS:   16685973
Major fault: 0 Minor fault: 4303

CPU 6 cumulative IPC: 0.324839 instructions: 100000002 cycles: 307844726
L1D TOTAL     ACCESS:   37206681  HIT:   34406537  MISS:    2800144
L1D LOAD      ACCESS:   12995976  HIT:   10196352  MISS:    2799624
L1D RFO       ACCESS:   24210705  HIT:   24210185  MISS:        520
L1D PREFETCH  ACCESS:          0  HIT:          0  MISS:          0
L1D WRITEBACK ACCESS:          0  HIT:          0  MISS:          0
L1D PREFETCH  REQUESTED:          0  ISSUED:          0  USEFUL:          0  USELESS:          0
L1I TOTAL     ACCESS:   25188966  HIT:   25188966  MISS:          0
L1I LOAD      ACCESS:   25188966  HIT:   25188966  MISS:          0
L1I RFO       ACCESS:          0  HIT:          0  MISS:          0
L1I PREFETCH  ACCESS:          0  HIT:          0  MISS:          0
L1I WRITEBACK ACCESS:          0  HIT:          0  MISS:          0
L1I PREFETCH  REQUESTED:          0  ISSUED:          0  USEFUL:          0  USELESS:          0
L2C TOTAL     ACCESS:    4631113  HIT:    1889984  MISS:    2741129
L2C LOAD      ACCESS:    2799310  HIT:     283056  MISS:    2516254
L2C RFO       ACCESS:        520  HIT:        442  MISS:         78
L2C PREFETCH  ACCESS:     555592  HIT:     333596  MISS:     221996
L2C WRITEBACK ACCESS:    1275691  HIT:    1272890  MISS:       2801
L2C PREFETCH  REQUESTED:   12616253  ISSUED:   12616238  USEFUL:     363565  USELESS:      33849
LLC TOTAL     ACCESS:    6843822  HIT:    3396985  MISS:    3446837
LLC LOAD      ACCESS:    2393353  HIT:     808662  MISS:    1584691
LLC RFO       ACCESS:         78  HIT:         53  MISS:         25
LLC PREFETCH  ACCESS:    3232927  HIT:    1371380  MISS:    1861547
LLC WRITEBACK ACCESS:    1217464  HIT:    1216890  MISS:        574
LLC PREFETCH  REQUESTED:          0  ISSUED:          0  USEFUL:   14302218  USELESS:   16685973
Major fault: 0 Minor fault: 240591

CPU 7 cumulative IPC: 0.229452 instructions: 100000000 cycles: 435821470
L1D TOTAL     ACCESS:   37486973  HIT:   32600650  MISS:    4886323
L1D LOAD      ACCESS:   16704942  HIT:   11820048  MISS:    4884894
L1D RFO       ACCESS:   20782031  HIT:   20780602  MISS:       1429
L1D PREFETCH  ACCESS:          0  HIT:          0  MISS:          0
L1D WRITEBACK ACCESS:          0  HIT:          0  MISS:          0
L1D PREFETCH  REQUESTED:          0  ISSUED:          0  USEFUL:          0  USELESS:          0
L1I TOTAL     ACCESS:   29006369  HIT:   29006369  MISS:          0
L1I LOAD      ACCESS:   29006369  HIT:   29006369  MISS:          0
L1I RFO       ACCESS:          0  HIT:          0  MISS:          0
L1I PREFETCH  ACCESS:          0  HIT:          0  MISS:          0
L1I WRITEBACK ACCESS:          0  HIT:          0  MISS:          0
L1I PREFETCH  REQUESTED:          0  ISSUED:          0  USEFUL:          0  USELESS:          0
L2C TOTAL     ACCESS:    5910776  HIT:    1061927  MISS:    4848849
L2C LOAD      ACCESS:    4884595  HIT:     577191  MISS:    4307404
L2C RFO       ACCESS:       1429  HIT:       1042  MISS:        387
L2C PREFETCH  ACCESS:     817412  HIT:     277884  MISS:     539528
L2C WRITEBACK ACCESS:     207340  HIT:     205810  MISS:       1530
L2C PREFETCH  REQUESTED:   22841013  ISSUED:   22840978  USEFUL:     764379  USELESS:       5639
LLC TOTAL     ACCESS:   10634244  HIT:    5615187  MISS:    5019057
LLC LOAD      ACCESS:    3947438  HIT:    2278205  MISS:    1669233
LLC RFO       ACCESS:        385  HIT:        250  MISS:        135
LLC PREFETCH  ACCESS:    6510976  HIT:    3161791  MISS:    3349185
LLC WRITEBACK ACCESS:     175445  HIT:     174941  MISS:        504
LLC PREFETCH  REQUESTED:          0  ISSUED:          0  USEFUL:   14302218  USELESS:   16685973
Major fault: 0 Minor fault: 11146

DRAM Statistics
 CHANNEL 0
 RQ ROW_BUFFER_HIT:    6950085  ROW_BUFFER_MISS:   12878603
 DBUS_CONGESTED:   36530503
 WQ ROW_BUFFER_HIT:     128574  ROW_BUFFER_MISS:    2920371  FULL:          0

 CHANNEL 1
 RQ ROW_BUFFER_HIT:    6853918  ROW_BUFFER_MISS:   12710526
 DBUS_CONGESTED:   36530503
 WQ ROW_BUFFER_HIT:     130724  ROW_BUFFER_MISS:    2906243  FULL:          0

 AVG_CONGESTED_CYCLE: 13
