Initialize SIGNATURE TABLE
ST_SET: 1
ST_WAY: 256
ST_TAG_BIT: 16
ST_TAG_MASK: ffff

Initialize PATTERN TABLE
PT_SET: 512
PT_WAY: 4
SIG_DELTA_BIT: 7
C_SIG_BIT: 4
C_DELTA_BIT: 4

Initialize PREFETCH FILTER
FILTER_SET: 1024

*** ChampSim Multicore Out-of-Order Simulator ***

Warmup Instructions: 20000000
Simulation Instructions: 100000000
Number of CPUs: 8
LLC sets: 16384
LLC ways: 16
Off-chip DRAM Size: 8192 MB Channels: 2 Width: 64-bit Data Rate: 1600 MT/s

CPU 0 runs /scratch/user/djimenez/champsim-traces/speccpu2006/xz/481.wrf-1254B.champsimtrace.xz
CPU 1 runs /scratch/user/djimenez/champsim-traces/speccpu2006/xz/437.leslie3d-134B.champsimtrace.xz
CPU 2 runs /scratch/user/djimenez/champsim-traces/speccpu2006/xz/454.calculix-460B.champsimtrace.xz
CPU 3 runs /scratch/user/djimenez/champsim-traces/speccpu2006/xz/429.mcf-22B.champsimtrace.xz
CPU 4 runs /scratch/user/djimenez/champsim-traces/speccpu2006/xz/410.bwaves-2097B.champsimtrace.xz
CPU 5 runs /scratch/user/djimenez/champsim-traces/speccpu2006/xz/437.leslie3d-265B.champsimtrace.xz
CPU 6 runs /scratch/user/djimenez/champsim-traces/speccpu2006/xz/473.astar-359B.champsimtrace.xz
CPU 7 runs /scratch/user/djimenez/champsim-traces/speccpu2006/xz/403.gcc-48B.champsimtrace.xz
Heartbeat CPU 2 instructions: 10000000 cycles: 3329884 heartbeat IPC: 3.00311 cumulative IPC: 3.00311 (Simulation time: 0 hr 3 min 0 sec) 
Heartbeat CPU 0 instructions: 10000001 cycles: 3594342 heartbeat IPC: 2.78215 cumulative IPC: 2.78215 (Simulation time: 0 hr 3 min 14 sec) 
Heartbeat CPU 5 instructions: 10000001 cycles: 4936449 heartbeat IPC: 2.02575 cumulative IPC: 2.02575 (Simulation time: 0 hr 4 min 24 sec) 
Heartbeat CPU 1 instructions: 10000000 cycles: 5001560 heartbeat IPC: 1.99938 cumulative IPC: 1.99938 (Simulation time: 0 hr 4 min 27 sec) 
Heartbeat CPU 7 instructions: 10000001 cycles: 5486182 heartbeat IPC: 1.82276 cumulative IPC: 1.82276 (Simulation time: 0 hr 4 min 53 sec) 
Heartbeat CPU 3 instructions: 10000001 cycles: 5793989 heartbeat IPC: 1.72593 cumulative IPC: 1.72593 (Simulation time: 0 hr 5 min 9 sec) 
Heartbeat CPU 2 instructions: 20000000 cycles: 6557316 heartbeat IPC: 3.09844 cumulative IPC: 3.05003 (Simulation time: 0 hr 5 min 50 sec) 
Heartbeat CPU 4 instructions: 10000000 cycles: 6592116 heartbeat IPC: 1.51696 cumulative IPC: 1.51696 (Simulation time: 0 hr 5 min 51 sec) 
Heartbeat CPU 0 instructions: 20000000 cycles: 7384615 heartbeat IPC: 2.63833 cumulative IPC: 2.70833 (Simulation time: 0 hr 6 min 33 sec) 
Heartbeat CPU 6 instructions: 10000000 cycles: 7482924 heartbeat IPC: 1.33638 cumulative IPC: 1.33638 (Simulation time: 0 hr 6 min 39 sec) 
Heartbeat CPU 2 instructions: 30000001 cycles: 9866447 heartbeat IPC: 3.02194 cumulative IPC: 1.01354 (Simulation time: 0 hr 8 min 47 sec) 
Heartbeat CPU 5 instructions: 20000000 cycles: 9866852 heartbeat IPC: 2.02823 cumulative IPC: 2.02699 (Simulation time: 0 hr 8 min 47 sec) 
Heartbeat CPU 1 instructions: 20000000 cycles: 9993568 heartbeat IPC: 2.0032 cumulative IPC: 2.00129 (Simulation time: 0 hr 8 min 53 sec) 
Heartbeat CPU 7 instructions: 20000000 cycles: 10965456 heartbeat IPC: 1.82506 cumulative IPC: 1.82391 (Simulation time: 0 hr 9 min 46 sec) 
Heartbeat CPU 0 instructions: 30000002 cycles: 11125537 heartbeat IPC: 2.67314 cumulative IPC: 0.898833 (Simulation time: 0 hr 9 min 55 sec) 
Heartbeat CPU 3 instructions: 20000000 cycles: 11843617 heartbeat IPC: 1.65299 cumulative IPC: 1.68867 (Simulation time: 0 hr 10 min 34 sec) 
Heartbeat CPU 2 instructions: 40000000 cycles: 13094230 heartbeat IPC: 3.0981 cumulative IPC: 1.52739 (Simulation time: 0 hr 11 min 42 sec) 
Heartbeat CPU 4 instructions: 20000000 cycles: 13184892 heartbeat IPC: 1.51681 cumulative IPC: 1.51689 (Simulation time: 0 hr 11 min 47 sec) 
Heartbeat CPU 6 instructions: 20000000 cycles: 14768697 heartbeat IPC: 1.37254 cumulative IPC: 1.35422 (Simulation time: 0 hr 13 min 10 sec) 

Warmup complete CPU 0 instructions: 39734676 cycles: 14768699 (Simulation time: 0 hr 13 min 10 sec) 
Warmup complete CPU 1 instructions: 29562011 cycles: 14768699 (Simulation time: 0 hr 13 min 10 sec) 
Warmup complete CPU 2 instructions: 45212004 cycles: 14768699 (Simulation time: 0 hr 13 min 10 sec) 
Warmup complete CPU 3 instructions: 25106146 cycles: 14768699 (Simulation time: 0 hr 13 min 10 sec) 
Warmup complete CPU 4 instructions: 22403574 cycles: 14768699 (Simulation time: 0 hr 13 min 10 sec) 
Warmup complete CPU 5 instructions: 29933267 cycles: 14768699 (Simulation time: 0 hr 13 min 10 sec) 
Warmup complete CPU 6 instructions: 20000001 cycles: 14768699 (Simulation time: 0 hr 13 min 10 sec) 
Warmup complete CPU 7 instructions: 26949016 cycles: 14768698 (Simulation time: 0 hr 13 min 10 sec) 

Heartbeat CPU 5 instructions: 30000000 cycles: 14833175 heartbeat IPC: 2.01356 cumulative IPC: 1.03501 (Simulation time: 0 hr 13 min 12 sec) 
Heartbeat CPU 0 instructions: 40000000 cycles: 14933068 heartbeat IPC: 2.62637 cumulative IPC: 1.6142 (Simulation time: 0 hr 13 min 15 sec) 
Heartbeat CPU 1 instructions: 30000000 cycles: 15190949 heartbeat IPC: 1.92405 cumulative IPC: 1.03727 (Simulation time: 0 hr 13 min 23 sec) 
Heartbeat CPU 2 instructions: 50000001 cycles: 17581210 heartbeat IPC: 2.22867 cumulative IPC: 1.70239 (Simulation time: 0 hr 14 min 33 sec) 
Heartbeat CPU 7 instructions: 30000001 cycles: 19289076 heartbeat IPC: 1.2014 cumulative IPC: 0.67494 (Simulation time: 0 hr 15 min 24 sec) 
Heartbeat CPU 0 instructions: 50000001 cycles: 21212444 heartbeat IPC: 1.59252 cumulative IPC: 1.59307 (Simulation time: 0 hr 16 min 22 sec) 
Heartbeat CPU 4 instructions: 30000002 cycles: 22177598 heartbeat IPC: 1.11201 cumulative IPC: 1.02531 (Simulation time: 0 hr 16 min 51 sec) 
Heartbeat CPU 2 instructions: 60000000 cycles: 23359984 heartbeat IPC: 1.73047 cumulative IPC: 1.72128 (Simulation time: 0 hr 17 min 25 sec) 
Heartbeat CPU 5 instructions: 40000000 cycles: 24259372 heartbeat IPC: 1.06087 cumulative IPC: 1.0607 (Simulation time: 0 hr 17 min 51 sec) 
Heartbeat CPU 1 instructions: 40000000 cycles: 24848134 heartbeat IPC: 1.0355 cumulative IPC: 1.03557 (Simulation time: 0 hr 18 min 7 sec) 
Heartbeat CPU 3 instructions: 30000002 cycles: 25229334 heartbeat IPC: 0.747065 cumulative IPC: 0.467835 (Simulation time: 0 hr 18 min 18 sec) 
Heartbeat CPU 0 instructions: 60000000 cycles: 27351497 heartbeat IPC: 1.62892 cumulative IPC: 1.61056 (Simulation time: 0 hr 19 min 18 sec) 
Heartbeat CPU 4 instructions: 40000000 cycles: 31669947 heartbeat IPC: 1.05348 cumulative IPC: 1.04113 (Simulation time: 0 hr 21 min 25 sec) 
Heartbeat CPU 2 instructions: 70000001 cycles: 32423236 heartbeat IPC: 1.10336 cumulative IPC: 1.40406 (Simulation time: 0 hr 21 min 47 sec) 
Heartbeat CPU 5 instructions: 50000000 cycles: 33559583 heartbeat IPC: 1.07524 cumulative IPC: 1.0679 (Simulation time: 0 hr 22 min 22 sec) 
Heartbeat CPU 0 instructions: 70000000 cycles: 33585219 heartbeat IPC: 1.60418 cumulative IPC: 1.60844 (Simulation time: 0 hr 22 min 22 sec) 
Heartbeat CPU 7 instructions: 40000000 cycles: 34043671 heartbeat IPC: 0.677755 cumulative IPC: 0.677095 (Simulation time: 0 hr 22 min 36 sec) 
Heartbeat CPU 1 instructions: 50000000 cycles: 34346596 heartbeat IPC: 1.0528 cumulative IPC: 1.04393 (Simulation time: 0 hr 22 min 45 sec) 
Heartbeat CPU 0 instructions: 80000000 cycles: 39920317 heartbeat IPC: 1.57851 cumulative IPC: 1.6009 (Simulation time: 0 hr 25 min 38 sec) 
Heartbeat CPU 2 instructions: 80000000 cycles: 41192537 heartbeat IPC: 1.14034 cumulative IPC: 1.31654 (Simulation time: 0 hr 26 min 17 sec) 
Heartbeat CPU 4 instructions: 50000000 cycles: 41312970 heartbeat IPC: 1.03702 cumulative IPC: 1.03964 (Simulation time: 0 hr 26 min 21 sec) 
Heartbeat CPU 5 instructions: 60000000 cycles: 42825245 heartbeat IPC: 1.07925 cumulative IPC: 1.07165 (Simulation time: 0 hr 27 min 5 sec) 
Heartbeat CPU 1 instructions: 60000000 cycles: 43958303 heartbeat IPC: 1.0404 cumulative IPC: 1.04277 (Simulation time: 0 hr 27 min 36 sec) 
Heartbeat CPU 0 instructions: 90000000 cycles: 46959690 heartbeat IPC: 1.42058 cumulative IPC: 1.56147 (Simulation time: 0 hr 29 min 4 sec) 
Heartbeat CPU 3 instructions: 40000000 cycles: 47255721 heartbeat IPC: 0.454001 cumulative IPC: 0.458456 (Simulation time: 0 hr 29 min 12 sec) 
Heartbeat CPU 2 instructions: 90000002 cycles: 47806940 heartbeat IPC: 1.51185 cumulative IPC: 1.35564 (Simulation time: 0 hr 29 min 28 sec) 
Heartbeat CPU 7 instructions: 50000003 cycles: 48768378 heartbeat IPC: 0.679131 cumulative IPC: 0.677977 (Simulation time: 0 hr 29 min 55 sec) 
Heartbeat CPU 4 instructions: 60000000 cycles: 51194788 heartbeat IPC: 1.01196 cumulative IPC: 1.03213 (Simulation time: 0 hr 31 min 7 sec) 
Heartbeat CPU 5 instructions: 70000003 cycles: 52455860 heartbeat IPC: 1.03836 cumulative IPC: 1.06314 (Simulation time: 0 hr 31 min 53 sec) 
Heartbeat CPU 1 instructions: 70000000 cycles: 53885518 heartbeat IPC: 1.00733 cumulative IPC: 1.03377 (Simulation time: 0 hr 32 min 37 sec) 
Heartbeat CPU 2 instructions: 100000000 cycles: 54009276 heartbeat IPC: 1.6123 cumulative IPC: 1.39621 (Simulation time: 0 hr 32 min 41 sec) 
Heartbeat CPU 0 instructions: 100000000 cycles: 57813517 heartbeat IPC: 0.921334 cumulative IPC: 1.40006 (Simulation time: 0 hr 34 min 26 sec) 
Heartbeat CPU 4 instructions: 70000001 cycles: 61263184 heartbeat IPC: 0.993207 cumulative IPC: 1.0237 (Simulation time: 0 hr 36 min 4 sec) 
Heartbeat CPU 2 instructions: 110000002 cycles: 61485768 heartbeat IPC: 1.33753 cumulative IPC: 1.38682 (Simulation time: 0 hr 36 min 10 sec) 
Heartbeat CPU 5 instructions: 80000000 cycles: 62118946 heartbeat IPC: 1.03487 cumulative IPC: 1.05737 (Simulation time: 0 hr 36 min 30 sec) 
Heartbeat CPU 7 instructions: 60000000 cycles: 63553712 heartbeat IPC: 0.676346 cumulative IPC: 0.677482 (Simulation time: 0 hr 37 min 13 sec) 
Heartbeat CPU 1 instructions: 80000000 cycles: 63812761 heartbeat IPC: 1.00733 cumulative IPC: 1.02842 (Simulation time: 0 hr 37 min 20 sec) 
Heartbeat CPU 0 instructions: 110000002 cycles: 64487342 heartbeat IPC: 1.49839 cumulative IPC: 1.41326 (Simulation time: 0 hr 37 min 39 sec) 
Heartbeat CPU 2 instructions: 120000000 cycles: 68263203 heartbeat IPC: 1.47548 cumulative IPC: 1.39805 (Simulation time: 0 hr 39 min 33 sec) 
Heartbeat CPU 0 instructions: 120000000 cycles: 70679248 heartbeat IPC: 1.61501 cumulative IPC: 1.4356 (Simulation time: 0 hr 40 min 47 sec) 
Heartbeat CPU 4 instructions: 80000000 cycles: 70909681 heartbeat IPC: 1.03665 cumulative IPC: 1.02592 (Simulation time: 0 hr 40 min 54 sec) 
Heartbeat CPU 5 instructions: 90000000 cycles: 71504370 heartbeat IPC: 1.06548 cumulative IPC: 1.05871 (Simulation time: 0 hr 41 min 12 sec) 
Heartbeat CPU 1 instructions: 90000002 cycles: 73447863 heartbeat IPC: 1.03787 cumulative IPC: 1.02997 (Simulation time: 0 hr 42 min 9 sec) 
Heartbeat CPU 2 instructions: 130000001 cycles: 74764398 heartbeat IPC: 1.53818 cumulative IPC: 1.41323 (Simulation time: 0 hr 42 min 48 sec) 
Heartbeat CPU 0 instructions: 130000000 cycles: 76887905 heartbeat IPC: 1.61065 cumulative IPC: 1.4531 (Simulation time: 0 hr 43 min 52 sec) 
Heartbeat CPU 7 instructions: 70000001 cycles: 78309992 heartbeat IPC: 0.677678 cumulative IPC: 0.677528 (Simulation time: 0 hr 44 min 35 sec) 
Heartbeat CPU 4 instructions: 90000001 cycles: 80460962 heartbeat IPC: 1.04698 cumulative IPC: 1.02899 (Simulation time: 0 hr 45 min 40 sec) 
Heartbeat CPU 5 instructions: 100000000 cycles: 80866915 heartbeat IPC: 1.06809 cumulative IPC: 1.06004 (Simulation time: 0 hr 45 min 52 sec) 
Heartbeat CPU 2 instructions: 140000000 cycles: 81182293 heartbeat IPC: 1.55814 cumulative IPC: 1.42724 (Simulation time: 0 hr 46 min 1 sec) 
Heartbeat CPU 3 instructions: 50000002 cycles: 81536222 heartbeat IPC: 0.291711 cumulative IPC: 0.372844 (Simulation time: 0 hr 46 min 12 sec) 
Finished CPU 0 instructions: 100000001 cycles: 68199221 cumulative IPC: 1.46629 (Simulation time: 0 hr 46 min 55 sec) 
Heartbeat CPU 1 instructions: 100000000 cycles: 83063434 heartbeat IPC: 1.03998 cumulative IPC: 1.03138 (Simulation time: 0 hr 46 min 58 sec) 
Heartbeat CPU 0 instructions: 140000000 cycles: 83131731 heartbeat IPC: 1.60158 cumulative IPC: 1.46666 (Simulation time: 0 hr 47 min 0 sec) 
Finished CPU 2 instructions: 100000000 cycles: 69557673 cumulative IPC: 1.43766 (Simulation time: 0 hr 47 min 36 sec) 
Heartbeat CPU 2 instructions: 150000003 cycles: 87208082 heartbeat IPC: 1.65953 cumulative IPC: 1.44656 (Simulation time: 0 hr 49 min 3 sec) 
Heartbeat CPU 0 instructions: 150000002 cycles: 89351113 heartbeat IPC: 1.60788 cumulative IPC: 1.47844 (Simulation time: 0 hr 50 min 8 sec) 
Heartbeat CPU 4 instructions: 100000000 cycles: 89880293 heartbeat IPC: 1.06165 cumulative IPC: 1.03308 (Simulation time: 0 hr 50 min 25 sec) 
Heartbeat CPU 5 instructions: 110000001 cycles: 90229454 heartbeat IPC: 1.06809 cumulative IPC: 1.06104 (Simulation time: 0 hr 50 min 35 sec) 
Heartbeat CPU 1 instructions: 110000001 cycles: 92692288 heartbeat IPC: 1.03855 cumulative IPC: 1.03227 (Simulation time: 0 hr 51 min 50 sec) 
Heartbeat CPU 7 instructions: 80000000 cycles: 93011641 heartbeat IPC: 0.680196 cumulative IPC: 0.678029 (Simulation time: 0 hr 51 min 59 sec) 
Heartbeat CPU 2 instructions: 160000000 cycles: 93621532 heartbeat IPC: 1.55922 cumulative IPC: 1.45572 (Simulation time: 0 hr 52 min 18 sec) 
Heartbeat CPU 6 instructions: 30000003 cycles: 95199906 heartbeat IPC: 0.12433 cumulative IPC: 0.12433 (Simulation time: 0 hr 53 min 5 sec) 
Heartbeat CPU 0 instructions: 160000000 cycles: 95787950 heartbeat IPC: 1.55356 cumulative IPC: 1.4844 (Simulation time: 0 hr 53 min 23 sec) 
Heartbeat CPU 4 instructions: 110000001 cycles: 99540954 heartbeat IPC: 1.03513 cumulative IPC: 1.03331 (Simulation time: 0 hr 55 min 15 sec) 
Heartbeat CPU 5 instructions: 120000000 cycles: 99630228 heartbeat IPC: 1.06374 cumulative IPC: 1.06134 (Simulation time: 0 hr 55 min 18 sec) 
Heartbeat CPU 2 instructions: 170000000 cycles: 100297454 heartbeat IPC: 1.49792 cumulative IPC: 1.45902 (Simulation time: 0 hr 55 min 36 sec) 
Heartbeat CPU 1 instructions: 120000000 cycles: 102435076 heartbeat IPC: 1.0264 cumulative IPC: 1.03162 (Simulation time: 0 hr 56 min 40 sec) 
Heartbeat CPU 0 instructions: 170000002 cycles: 102508012 heartbeat IPC: 1.48808 cumulative IPC: 1.48469 (Simulation time: 0 hr 56 min 42 sec) 
Heartbeat CPU 2 instructions: 180000000 cycles: 106589507 heartbeat IPC: 1.58931 cumulative IPC: 1.46795 (Simulation time: 0 hr 58 min 38 sec) 
Heartbeat CPU 7 instructions: 90000001 cycles: 107811619 heartbeat IPC: 0.675677 cumulative IPC: 0.677655 (Simulation time: 0 hr 59 min 13 sec) 
Finished CPU 5 instructions: 100000001 cycles: 94207088 cumulative IPC: 1.06149 (Simulation time: 0 hr 59 min 48 sec) 
Heartbeat CPU 5 instructions: 130000000 cycles: 109037332 heartbeat IPC: 1.06303 cumulative IPC: 1.06151 (Simulation time: 0 hr 59 min 50 sec) 
Heartbeat CPU 4 instructions: 120000000 cycles: 109121903 heartbeat IPC: 1.04374 cumulative IPC: 1.03437 (Simulation time: 0 hr 59 min 52 sec) 
Heartbeat CPU 0 instructions: 180000000 cycles: 109291539 heartbeat IPC: 1.47416 cumulative IPC: 1.48393 (Simulation time: 0 hr 59 min 57 sec) 
Finished CPU 4 instructions: 100000000 cycles: 96707143 cumulative IPC: 1.03405 (Simulation time: 1 hr 1 min 0 sec) 
Finished CPU 1 instructions: 100000003 cycles: 96956612 cumulative IPC: 1.03139 (Simulation time: 1 hr 1 min 8 sec) 
Heartbeat CPU 1 instructions: 130000000 cycles: 112150359 heartbeat IPC: 1.02931 cumulative IPC: 1.03139 (Simulation time: 1 hr 1 min 20 sec) 
Heartbeat CPU 3 instructions: 60000000 cycles: 112762615 heartbeat IPC: 0.320242 cumulative IPC: 0.356082 (Simulation time: 1 hr 1 min 38 sec) 
Heartbeat CPU 2 instructions: 190000002 cycles: 113091555 heartbeat IPC: 1.53798 cumulative IPC: 1.47258 (Simulation time: 1 hr 1 min 48 sec) 
Heartbeat CPU 5 instructions: 140000000 cycles: 118772037 heartbeat IPC: 1.02725 cumulative IPC: 1.0583 (Simulation time: 1 hr 4 min 47 sec) 
Heartbeat CPU 4 instructions: 130000000 cycles: 118929499 heartbeat IPC: 1.01962 cumulative IPC: 1.03298 (Simulation time: 1 hr 4 min 53 sec) 
Heartbeat CPU 0 instructions: 190000000 cycles: 119317842 heartbeat IPC: 0.997377 cumulative IPC: 1.43727 (Simulation time: 1 hr 5 min 5 sec) 
Heartbeat CPU 2 instructions: 200000000 cycles: 119698474 heartbeat IPC: 1.51356 cumulative IPC: 1.47516 (Simulation time: 1 hr 5 min 16 sec) 
Heartbeat CPU 1 instructions: 140000000 cycles: 121842543 heartbeat IPC: 1.03176 cumulative IPC: 1.03142 (Simulation time: 1 hr 6 min 17 sec) 
Heartbeat CPU 7 instructions: 100000000 cycles: 122586952 heartbeat IPC: 0.676804 cumulative IPC: 0.677538 (Simulation time: 1 hr 6 min 37 sec) 
Heartbeat CPU 0 instructions: 200000000 cycles: 126044451 heartbeat IPC: 1.48663 cumulative IPC: 1.44025 (Simulation time: 1 hr 8 min 19 sec) 
Heartbeat CPU 2 instructions: 210000001 cycles: 126669872 heartbeat IPC: 1.43443 cumulative IPC: 1.47262 (Simulation time: 1 hr 8 min 38 sec) 
Heartbeat CPU 5 instructions: 150000000 cycles: 128666354 heartbeat IPC: 1.01068 cumulative IPC: 1.05416 (Simulation time: 1 hr 9 min 38 sec) 
Heartbeat CPU 4 instructions: 140000000 cycles: 128733304 heartbeat IPC: 1.02001 cumulative IPC: 1.03187 (Simulation time: 1 hr 9 min 40 sec) 
Heartbeat CPU 0 instructions: 210000001 cycles: 132271821 heartbeat IPC: 1.60581 cumulative IPC: 1.44903 (Simulation time: 1 hr 11 min 20 sec) 
Heartbeat CPU 1 instructions: 150000002 cycles: 132338060 heartbeat IPC: 0.952788 cumulative IPC: 1.0244 (Simulation time: 1 hr 11 min 22 sec) 
Heartbeat CPU 2 instructions: 220000000 cycles: 133483735 heartbeat IPC: 1.4676 cumulative IPC: 1.47233 (Simulation time: 1 hr 11 min 56 sec) 
Heartbeat CPU 7 instructions: 110000002 cycles: 137294225 heartbeat IPC: 0.679936 cumulative IPC: 0.677826 (Simulation time: 1 hr 13 min 46 sec) 
Heartbeat CPU 5 instructions: 160000000 cycles: 138619225 heartbeat IPC: 1.00474 cumulative IPC: 1.05019 (Simulation time: 1 hr 14 min 22 sec) 
Heartbeat CPU 0 instructions: 220000000 cycles: 138649216 heartbeat IPC: 1.56804 cumulative IPC: 1.45515 (Simulation time: 1 hr 14 min 23 sec) 
Heartbeat CPU 4 instructions: 150000002 cycles: 138666588 heartbeat IPC: 1.00672 cumulative IPC: 1.02985 (Simulation time: 1 hr 14 min 23 sec) 
Heartbeat CPU 2 instructions: 230000003 cycles: 139866908 heartbeat IPC: 1.56662 cumulative IPC: 1.47714 (Simulation time: 1 hr 14 min 57 sec) 
Heartbeat CPU 3 instructions: 70000002 cycles: 142224201 heartbeat IPC: 0.339425 cumulative IPC: 0.352232 (Simulation time: 1 hr 16 min 2 sec) 
Heartbeat CPU 0 instructions: 230000000 cycles: 145235456 heartbeat IPC: 1.51832 cumulative IPC: 1.45834 (Simulation time: 1 hr 17 min 21 sec) 
Heartbeat CPU 1 instructions: 160000000 cycles: 145257729 heartbeat IPC: 0.774013 cumulative IPC: 0.999609 (Simulation time: 1 hr 17 min 22 sec) 
Heartbeat CPU 2 instructions: 240000000 cycles: 146871072 heartbeat IPC: 1.42772 cumulative IPC: 1.47452 (Simulation time: 1 hr 18 min 6 sec) 
Heartbeat CPU 5 instructions: 170000001 cycles: 148737014 heartbeat IPC: 0.988358 cumulative IPC: 1.04552 (Simulation time: 1 hr 18 min 58 sec) 
Heartbeat CPU 4 instructions: 160000000 cycles: 148766949 heartbeat IPC: 0.990063 cumulative IPC: 1.02685 (Simulation time: 1 hr 18 min 59 sec) 
Heartbeat CPU 0 instructions: 240000000 cycles: 151547790 heartbeat IPC: 1.5842 cumulative IPC: 1.46415 (Simulation time: 1 hr 20 min 17 sec) 
Heartbeat CPU 7 instructions: 120000000 cycles: 152204598 heartbeat IPC: 0.670674 cumulative IPC: 0.67705 (Simulation time: 1 hr 20 min 35 sec) 
Heartbeat CPU 2 instructions: 250000000 cycles: 152504669 heartbeat IPC: 1.77506 cumulative IPC: 1.48682 (Simulation time: 1 hr 20 min 43 sec) 
Heartbeat CPU 2 instructions: 260000000 cycles: 158160317 heartbeat IPC: 1.76814 cumulative IPC: 1.49791 (Simulation time: 1 hr 23 min 18 sec) 
Heartbeat CPU 1 instructions: 170000001 cycles: 158164189 heartbeat IPC: 0.774806 cumulative IPC: 0.979375 (Simulation time: 1 hr 23 min 18 sec) 
Heartbeat CPU 0 instructions: 250000002 cycles: 158167929 heartbeat IPC: 1.51054 cumulative IPC: 1.46629 (Simulation time: 1 hr 23 min 18 sec) 
Heartbeat CPU 4 instructions: 170000000 cycles: 158709447 heartbeat IPC: 1.00578 cumulative IPC: 1.0254 (Simulation time: 1 hr 23 min 33 sec) 
Heartbeat CPU 5 instructions: 180000000 cycles: 158734136 heartbeat IPC: 1.00029 cumulative IPC: 1.04238 (Simulation time: 1 hr 23 min 34 sec) 
Finished CPU 7 instructions: 100000000 cycles: 147790834 cumulative IPC: 0.676632 (Simulation time: 1 hr 25 min 19 sec) 
Heartbeat CPU 2 instructions: 270000000 cycles: 164927762 heartbeat IPC: 1.47766 cumulative IPC: 1.497 (Simulation time: 1 hr 26 min 24 sec) 
Heartbeat CPU 0 instructions: 260000000 cycles: 165223223 heartbeat IPC: 1.41738 cumulative IPC: 1.464 (Simulation time: 1 hr 26 min 33 sec) 
Heartbeat CPU 7 instructions: 130000003 cycles: 167113365 heartbeat IPC: 0.670747 cumulative IPC: 0.676433 (Simulation time: 1 hr 27 min 26 sec) 
Heartbeat CPU 5 instructions: 190000000 cycles: 168784844 heartbeat IPC: 0.994955 cumulative IPC: 1.03929 (Simulation time: 1 hr 28 min 13 sec) 
Heartbeat CPU 4 instructions: 180000000 cycles: 168806785 heartbeat IPC: 0.99036 cumulative IPC: 1.0231 (Simulation time: 1 hr 28 min 14 sec) 
Heartbeat CPU 1 instructions: 180000000 cycles: 171044374 heartbeat IPC: 0.776386 cumulative IPC: 0.962645 (Simulation time: 1 hr 29 min 11 sec) 
Heartbeat CPU 0 instructions: 270000000 cycles: 172144570 heartbeat IPC: 1.44481 cumulative IPC: 1.46316 (Simulation time: 1 hr 29 min 39 sec) 
Heartbeat CPU 2 instructions: 280000000 cycles: 175535290 heartbeat IPC: 0.942727 cumulative IPC: 1.46043 (Simulation time: 1 hr 30 min 59 sec) 
Heartbeat CPU 3 instructions: 80000000 cycles: 177228910 heartbeat IPC: 0.285676 cumulative IPC: 0.337891 (Simulation time: 1 hr 31 min 38 sec) 
Heartbeat CPU 5 instructions: 200000000 cycles: 178756456 heartbeat IPC: 1.00285 cumulative IPC: 1.03707 (Simulation time: 1 hr 32 min 14 sec) 
Heartbeat CPU 4 instructions: 190000003 cycles: 179216951 heartbeat IPC: 0.9606 cumulative IPC: 1.01914 (Simulation time: 1 hr 32 min 25 sec) 
Heartbeat CPU 7 instructions: 140000000 cycles: 181973948 heartbeat IPC: 0.672921 cumulative IPC: 0.676121 (Simulation time: 1 hr 33 min 33 sec) 
Heartbeat CPU 6 instructions: 40000000 cycles: 182323615 heartbeat IPC: 0.114779 cumulative IPC: 0.119364 (Simulation time: 1 hr 33 min 41 sec) 
Heartbeat CPU 0 instructions: 280000000 cycles: 182763274 heartbeat IPC: 0.941734 cumulative IPC: 1.4302 (Simulation time: 1 hr 33 min 53 sec) 
Heartbeat CPU 1 instructions: 190000003 cycles: 183893609 heartbeat IPC: 0.778257 cumulative IPC: 0.948636 (Simulation time: 1 hr 34 min 19 sec) 
Heartbeat CPU 2 instructions: 290000001 cycles: 185063265 heartbeat IPC: 1.04954 cumulative IPC: 1.43744 (Simulation time: 1 hr 34 min 44 sec) 
Heartbeat CPU 5 instructions: 210000003 cycles: 190178198 heartbeat IPC: 0.875523 cumulative IPC: 1.02655 (Simulation time: 1 hr 36 min 48 sec) 
Heartbeat CPU 4 instructions: 200000000 cycles: 190233947 heartbeat IPC: 0.907688 cumulative IPC: 1.01215 (Simulation time: 1 hr 36 min 50 sec) 
Heartbeat CPU 0 instructions: 290000000 cycles: 190981248 heartbeat IPC: 1.21684 cumulative IPC: 1.42025 (Simulation time: 1 hr 37 min 8 sec) 
Heartbeat CPU 2 instructions: 300000000 cycles: 191964822 heartbeat IPC: 1.44895 cumulative IPC: 1.43789 (Simulation time: 1 hr 37 min 32 sec) 
Heartbeat CPU 7 instructions: 150000001 cycles: 196840478 heartbeat IPC: 0.672652 cumulative IPC: 0.675838 (Simulation time: 1 hr 39 min 46 sec) 
Heartbeat CPU 0 instructions: 300000000 cycles: 197540986 heartbeat IPC: 1.52445 cumulative IPC: 1.42399 (Simulation time: 1 hr 40 min 5 sec) 
Heartbeat CPU 2 instructions: 310000002 cycles: 199151918 heartbeat IPC: 1.39138 cumulative IPC: 1.43607 (Simulation time: 1 hr 40 min 52 sec) 
Heartbeat CPU 1 instructions: 200000000 cycles: 199293481 heartbeat IPC: 0.649356 cumulative IPC: 0.923659 (Simulation time: 1 hr 40 min 57 sec) 
Heartbeat CPU 4 instructions: 210000000 cycles: 200667858 heartbeat IPC: 0.958413 cumulative IPC: 1.00913 (Simulation time: 1 hr 41 min 37 sec) 
Heartbeat CPU 5 instructions: 220000000 cycles: 200741551 heartbeat IPC: 0.946669 cumulative IPC: 1.02201 (Simulation time: 1 hr 41 min 39 sec) 
Heartbeat CPU 0 instructions: 310000001 cycles: 204113922 heartbeat IPC: 1.52139 cumulative IPC: 1.42737 (Simulation time: 1 hr 43 min 17 sec) 
Heartbeat CPU 2 instructions: 320000000 cycles: 205395649 heartbeat IPC: 1.60161 cumulative IPC: 1.4415 (Simulation time: 1 hr 43 min 54 sec) 
Heartbeat CPU 1 instructions: 210000003 cycles: 209222312 heartbeat IPC: 1.00717 cumulative IPC: 0.927923 (Simulation time: 1 hr 45 min 41 sec) 
Heartbeat CPU 0 instructions: 320000000 cycles: 210583443 heartbeat IPC: 1.54571 cumulative IPC: 1.43128 (Simulation time: 1 hr 46 min 20 sec) 
Heartbeat CPU 4 instructions: 220000000 cycles: 210584054 heartbeat IPC: 1.00845 cumulative IPC: 1.0091 (Simulation time: 1 hr 46 min 20 sec) 
Heartbeat CPU 7 instructions: 160000000 cycles: 211669974 heartbeat IPC: 0.674332 cumulative IPC: 0.675724 (Simulation time: 1 hr 46 min 53 sec) 
Heartbeat CPU 3 instructions: 90000003 cycles: 212423784 heartbeat IPC: 0.284132 cumulative IPC: 0.328319 (Simulation time: 1 hr 47 min 16 sec) 
Heartbeat CPU 2 instructions: 330000002 cycles: 212456802 heartbeat IPC: 1.4162 cumulative IPC: 1.44059 (Simulation time: 1 hr 47 min 17 sec) 
Heartbeat CPU 5 instructions: 230000000 cycles: 212928670 heartbeat IPC: 0.820538 cumulative IPC: 1.00962 (Simulation time: 1 hr 47 min 31 sec) 
Heartbeat CPU 0 instructions: 330000001 cycles: 216922720 heartbeat IPC: 1.57747 cumulative IPC: 1.43586 (Simulation time: 1 hr 49 min 26 sec) 
Heartbeat CPU 1 instructions: 220000000 cycles: 219135212 heartbeat IPC: 1.00879 cumulative IPC: 0.931845 (Simulation time: 1 hr 50 min 31 sec) 
Heartbeat CPU 2 instructions: 340000000 cycles: 219556429 heartbeat IPC: 1.40852 cumulative IPC: 1.43948 (Simulation time: 1 hr 50 min 43 sec) 
Heartbeat CPU 4 instructions: 230000001 cycles: 220380263 heartbeat IPC: 1.0208 cumulative IPC: 1.00965 (Simulation time: 1 hr 51 min 7 sec) 
Heartbeat CPU 0 instructions: 340000000 cycles: 223481301 heartbeat IPC: 1.52472 cumulative IPC: 1.43865 (Simulation time: 1 hr 52 min 30 sec) 
Heartbeat CPU 5 instructions: 240000000 cycles: 225191219 heartbeat IPC: 0.815491 cumulative IPC: 0.998309 (Simulation time: 1 hr 53 min 13 sec) 
Heartbeat CPU 2 instructions: 350000001 cycles: 226142425 heartbeat IPC: 1.51837 cumulative IPC: 1.44194 (Simulation time: 1 hr 53 min 39 sec) 
Heartbeat CPU 7 instructions: 170000002 cycles: 226409251 heartbeat IPC: 0.678459 cumulative IPC: 0.675915 (Simulation time: 1 hr 53 min 46 sec) 
Heartbeat CPU 1 instructions: 230000002 cycles: 228627639 heartbeat IPC: 1.05347 cumulative IPC: 0.937244 (Simulation time: 1 hr 54 min 46 sec) 
Heartbeat CPU 0 instructions: 350000000 cycles: 230038072 heartbeat IPC: 1.52514 cumulative IPC: 1.44129 (Simulation time: 1 hr 55 min 24 sec) 
Heartbeat CPU 4 instructions: 240000000 cycles: 230174317 heartbeat IPC: 1.02103 cumulative IPC: 1.01017 (Simulation time: 1 hr 55 min 28 sec) 
Heartbeat CPU 2 instructions: 360000000 cycles: 232512934 heartbeat IPC: 1.56973 cumulative IPC: 1.44568 (Simulation time: 1 hr 56 min 31 sec) 
Heartbeat CPU 0 instructions: 360000000 cycles: 236607106 heartbeat IPC: 1.52229 cumulative IPC: 1.44369 (Simulation time: 1 hr 58 min 21 sec) 
Heartbeat CPU 5 instructions: 250000000 cycles: 237166975 heartbeat IPC: 0.83502 cumulative IPC: 0.989516 (Simulation time: 1 hr 58 min 36 sec) 
Heartbeat CPU 3 instructions: 100000000 cycles: 237719117 heartbeat IPC: 0.39533 cumulative IPC: 0.335922 (Simulation time: 1 hr 58 min 51 sec) 
Heartbeat CPU 1 instructions: 240000000 cycles: 238102409 heartbeat IPC: 1.05543 cumulative IPC: 0.942258 (Simulation time: 1 hr 59 min 1 sec) 
Heartbeat CPU 2 instructions: 370000000 cycles: 238712471 heartbeat IPC: 1.61302 cumulative IPC: 1.45031 (Simulation time: 1 hr 59 min 17 sec) 
Heartbeat CPU 4 instructions: 250000003 cycles: 239939183 heartbeat IPC: 1.02408 cumulative IPC: 1.01077 (Simulation time: 1 hr 59 min 48 sec) 
Heartbeat CPU 7 instructions: 180000000 cycles: 241154114 heartbeat IPC: 0.678202 cumulative IPC: 0.676064 (Simulation time: 2 hr 0 min 17 sec) 
Heartbeat CPU 2 instructions: 380000000 cycles: 245392674 heartbeat IPC: 1.49696 cumulative IPC: 1.45166 (Simulation time: 2 hr 2 min 7 sec) 
Heartbeat CPU 0 instructions: 370000000 cycles: 246578412 heartbeat IPC: 1.00288 cumulative IPC: 1.42473 (Simulation time: 2 hr 2 min 39 sec) 
Heartbeat CPU 1 instructions: 250000001 cycles: 247631203 heartbeat IPC: 1.04945 cumulative IPC: 0.946644 (Simulation time: 2 hr 3 min 6 sec) 
Heartbeat CPU 5 instructions: 260000000 cycles: 249094316 heartbeat IPC: 0.83841 cumulative IPC: 0.981825 (Simulation time: 2 hr 3 min 43 sec) 
Heartbeat CPU 4 instructions: 260000000 cycles: 249882606 heartbeat IPC: 1.00569 cumulative IPC: 1.01056 (Simulation time: 2 hr 4 min 5 sec) 
Heartbeat CPU 2 instructions: 390000002 cycles: 252039488 heartbeat IPC: 1.50448 cumulative IPC: 1.45314 (Simulation time: 2 hr 5 min 1 sec) 
Heartbeat CPU 7 instructions: 190000002 cycles: 255878641 heartbeat IPC: 0.679139 cumulative IPC: 0.676252 (Simulation time: 2 hr 6 min 39 sec) 
Heartbeat CPU 1 instructions: 260000000 cycles: 257135795 heartbeat IPC: 1.05212 cumulative IPC: 0.950781 (Simulation time: 2 hr 7 min 9 sec) 
Heartbeat CPU 2 instructions: 400000000 cycles: 258173765 heartbeat IPC: 1.63018 cumulative IPC: 1.4576 (Simulation time: 2 hr 7 min 34 sec) 
Heartbeat CPU 5 instructions: 270000000 cycles: 258773601 heartbeat IPC: 1.03313 cumulative IPC: 0.98386 (Simulation time: 2 hr 7 min 49 sec) 
Heartbeat CPU 4 instructions: 270000003 cycles: 259458299 heartbeat IPC: 1.04431 cumulative IPC: 1.01188 (Simulation time: 2 hr 8 min 6 sec) 
Heartbeat CPU 0 instructions: 380000000 cycles: 262040817 heartbeat IPC: 0.64673 cumulative IPC: 1.37608 (Simulation time: 2 hr 9 min 10 sec) 
Heartbeat CPU 3 instructions: 110000002 cycles: 263941011 heartbeat IPC: 0.381361 cumulative IPC: 0.340703 (Simulation time: 2 hr 9 min 59 sec) 
Heartbeat CPU 2 instructions: 410000000 cycles: 264300674 heartbeat IPC: 1.63214 cumulative IPC: 1.46189 (Simulation time: 2 hr 10 min 9 sec) 
Heartbeat CPU 1 instructions: 270000000 cycles: 266611557 heartbeat IPC: 1.05532 cumulative IPC: 0.954714 (Simulation time: 2 hr 11 min 8 sec) 
Heartbeat CPU 5 instructions: 280000000 cycles: 268348134 heartbeat IPC: 1.04444 cumulative IPC: 0.986148 (Simulation time: 2 hr 11 min 54 sec) 
Heartbeat CPU 6 instructions: 50000003 cycles: 268509337 heartbeat IPC: 0.116029 cumulative IPC: 0.118231 (Simulation time: 2 hr 11 min 59 sec) 
Heartbeat CPU 4 instructions: 280000000 cycles: 269103396 heartbeat IPC: 1.0368 cumulative IPC: 1.01282 (Simulation time: 2 hr 12 min 15 sec) 
Heartbeat CPU 7 instructions: 200000000 cycles: 270594282 heartbeat IPC: 0.679549 cumulative IPC: 0.676441 (Simulation time: 2 hr 12 min 52 sec) 
Heartbeat CPU 2 instructions: 420000000 cycles: 270631359 heartbeat IPC: 1.57961 cumulative IPC: 1.4648 (Simulation time: 2 hr 12 min 53 sec) 
Heartbeat CPU 1 instructions: 280000000 cycles: 276080915 heartbeat IPC: 1.05604 cumulative IPC: 0.958386 (Simulation time: 2 hr 15 min 9 sec) 
Heartbeat CPU 2 instructions: 430000003 cycles: 276896291 heartbeat IPC: 1.59619 cumulative IPC: 1.46794 (Simulation time: 2 hr 15 min 30 sec) 
Heartbeat CPU 5 instructions: 290000003 cycles: 277972740 heartbeat IPC: 1.039 cumulative IPC: 0.98808 (Simulation time: 2 hr 15 min 58 sec) 
Heartbeat CPU 4 instructions: 290000003 cycles: 278696033 heartbeat IPC: 1.04247 cumulative IPC: 1.0139 (Simulation time: 2 hr 16 min 15 sec) 
Heartbeat CPU 0 instructions: 390000002 cycles: 280681368 heartbeat IPC: 0.536465 cumulative IPC: 1.31722 (Simulation time: 2 hr 17 min 6 sec) 
Heartbeat CPU 2 instructions: 440000000 cycles: 283771987 heartbeat IPC: 1.4544 cumulative IPC: 1.4676 (Simulation time: 2 hr 18 min 22 sec) 
Heartbeat CPU 7 instructions: 210000001 cycles: 285393602 heartbeat IPC: 0.675707 cumulative IPC: 0.676401 (Simulation time: 2 hr 19 min 3 sec) 
Heartbeat CPU 1 instructions: 290000002 cycles: 285710896 heartbeat IPC: 1.03842 cumulative IPC: 0.961231 (Simulation time: 2 hr 19 min 11 sec) 
Heartbeat CPU 5 instructions: 300000000 cycles: 287608495 heartbeat IPC: 1.0378 cumulative IPC: 0.989836 (Simulation time: 2 hr 19 min 59 sec) 
Heartbeat CPU 4 instructions: 300000000 cycles: 288348339 heartbeat IPC: 1.03602 cumulative IPC: 1.01468 (Simulation time: 2 hr 20 min 18 sec) 
Heartbeat CPU 3 instructions: 120000000 cycles: 289769887 heartbeat IPC: 0.387163 cumulative IPC: 0.345067 (Simulation time: 2 hr 20 min 53 sec) 
Heartbeat CPU 2 instructions: 450000001 cycles: 290249204 heartbeat IPC: 1.54387 cumulative IPC: 1.46939 (Simulation time: 2 hr 21 min 5 sec) 
Heartbeat CPU 1 instructions: 300000000 cycles: 295538368 heartbeat IPC: 1.01756 cumulative IPC: 0.963202 (Simulation time: 2 hr 23 min 10 sec) 
Heartbeat CPU 2 instructions: 460000000 cycles: 296752455 heartbeat IPC: 1.53769 cumulative IPC: 1.47096 (Simulation time: 2 hr 23 min 41 sec) 
Heartbeat CPU 5 instructions: 310000001 cycles: 297406530 heartbeat IPC: 1.02061 cumulative IPC: 0.990903 (Simulation time: 2 hr 23 min 58 sec) 
Heartbeat CPU 4 instructions: 310000000 cycles: 298305291 heartbeat IPC: 1.00432 cumulative IPC: 1.01432 (Simulation time: 2 hr 24 min 20 sec) 
Heartbeat CPU 0 instructions: 400000000 cycles: 299328493 heartbeat IPC: 0.536276 cumulative IPC: 1.26604 (Simulation time: 2 hr 24 min 47 sec) 
Heartbeat CPU 7 instructions: 220000000 cycles: 300222629 heartbeat IPC: 0.674353 cumulative IPC: 0.676295 (Simulation time: 2 hr 25 min 9 sec) 
Heartbeat CPU 2 instructions: 470000001 cycles: 302310169 heartbeat IPC: 1.7993 cumulative IPC: 1.47731 (Simulation time: 2 hr 26 min 2 sec) 
Heartbeat CPU 1 instructions: 310000001 cycles: 305947866 heartbeat IPC: 0.960661 cumulative IPC: 0.963111 (Simulation time: 2 hr 27 min 36 sec) 
Heartbeat CPU 5 instructions: 320000000 cycles: 307214536 heartbeat IPC: 1.01958 cumulative IPC: 0.991865 (Simulation time: 2 hr 28 min 7 sec) 
Heartbeat CPU 2 instructions: 480000000 cycles: 307712442 heartbeat IPC: 1.85107 cumulative IPC: 1.4842 (Simulation time: 2 hr 28 min 19 sec) 
Finished CPU 3 instructions: 100000000 cycles: 293092851 cumulative IPC: 0.341189 (Simulation time: 2 hr 28 min 23 sec) 
Heartbeat CPU 4 instructions: 320000000 cycles: 308359376 heartbeat IPC: 0.994621 cumulative IPC: 1.01364 (Simulation time: 2 hr 28 min 35 sec) 
Heartbeat CPU 7 instructions: 230000002 cycles: 315011439 heartbeat IPC: 0.676187 cumulative IPC: 0.676289 (Simulation time: 2 hr 31 min 10 sec) 
Heartbeat CPU 2 instructions: 490000001 cycles: 315444580 heartbeat IPC: 1.2933 cumulative IPC: 1.47929 (Simulation time: 2 hr 31 min 19 sec) 
Heartbeat CPU 5 instructions: 330000000 cycles: 316725593 heartbeat IPC: 1.05141 cumulative IPC: 0.99374 (Simulation time: 2 hr 31 min 48 sec) 
Heartbeat CPU 0 instructions: 410000001 cycles: 317934026 heartbeat IPC: 0.537475 cumulative IPC: 1.22133 (Simulation time: 2 hr 32 min 16 sec) 
Heartbeat CPU 1 instructions: 320000000 cycles: 317977382 heartbeat IPC: 0.831289 cumulative IPC: 0.957882 (Simulation time: 2 hr 32 min 17 sec) 
Heartbeat CPU 4 instructions: 330000000 cycles: 319494079 heartbeat IPC: 0.898093 cumulative IPC: 1.00942 (Simulation time: 2 hr 32 min 52 sec) 
Heartbeat CPU 2 instructions: 500000000 cycles: 324400281 heartbeat IPC: 1.11661 cumulative IPC: 1.4688 (Simulation time: 2 hr 34 min 48 sec) 
Heartbeat CPU 3 instructions: 130000001 cycles: 325504654 heartbeat IPC: 0.27984 cumulative IPC: 0.337566 (Simulation time: 2 hr 35 min 15 sec) 
Heartbeat CPU 5 instructions: 340000000 cycles: 326199772 heartbeat IPC: 1.0555 cumulative IPC: 0.995619 (Simulation time: 2 hr 35 min 32 sec) 
Heartbeat CPU 7 instructions: 240000000 cycles: 329725204 heartbeat IPC: 0.679636 cumulative IPC: 0.676446 (Simulation time: 2 hr 36 min 52 sec) 
Heartbeat CPU 1 instructions: 330000003 cycles: 330057293 heartbeat IPC: 0.827821 cumulative IPC: 0.952898 (Simulation time: 2 hr 37 min 0 sec) 
Heartbeat CPU 4 instructions: 340000000 cycles: 330167555 heartbeat IPC: 0.936902 cumulative IPC: 1.00697 (Simulation time: 2 hr 37 min 3 sec) 
Heartbeat CPU 2 instructions: 510000001 cycles: 331406350 heartbeat IPC: 1.42733 cumulative IPC: 1.46789 (Simulation time: 2 hr 37 min 31 sec) 
Heartbeat CPU 5 instructions: 350000002 cycles: 336238794 heartbeat IPC: 0.996113 cumulative IPC: 0.995635 (Simulation time: 2 hr 39 min 21 sec) 
Heartbeat CPU 0 instructions: 420000000 cycles: 336584388 heartbeat IPC: 0.536183 cumulative IPC: 1.18162 (Simulation time: 2 hr 39 min 28 sec) 
Heartbeat CPU 2 instructions: 520000000 cycles: 337370497 heartbeat IPC: 1.67669 cumulative IPC: 1.47175 (Simulation time: 2 hr 39 min 46 sec) 
Heartbeat CPU 4 instructions: 350000000 cycles: 342748696 heartbeat IPC: 0.79484 cumulative IPC: 0.99883 (Simulation time: 2 hr 41 min 49 sec) 
Heartbeat CPU 1 instructions: 340000000 cycles: 342773291 heartbeat IPC: 0.786411 cumulative IPC: 0.946444 (Simulation time: 2 hr 41 min 50 sec) 
Heartbeat CPU 2 instructions: 530000001 cycles: 344072767 heartbeat IPC: 1.49203 cumulative IPC: 1.47216 (Simulation time: 2 hr 42 min 22 sec) 
Heartbeat CPU 7 instructions: 250000002 cycles: 344596720 heartbeat IPC: 0.672427 cumulative IPC: 0.676265 (Simulation time: 2 hr 42 min 35 sec) 
Heartbeat CPU 5 instructions: 360000000 cycles: 346273052 heartbeat IPC: 0.996586 cumulative IPC: 0.995663 (Simulation time: 2 hr 43 min 17 sec) 
Heartbeat CPU 2 instructions: 540000000 cycles: 350607563 heartbeat IPC: 1.53027 cumulative IPC: 1.47329 (Simulation time: 2 hr 45 min 3 sec) 
Heartbeat CPU 4 instructions: 360000000 cycles: 352444152 heartbeat IPC: 1.03141 cumulative IPC: 0.999766 (Simulation time: 2 hr 45 min 50 sec) 
Heartbeat CPU 6 instructions: 60000000 cycles: 353152159 heartbeat IPC: 0.118143 cumulative IPC: 0.118209 (Simulation time: 2 hr 46 min 8 sec) 
Heartbeat CPU 1 instructions: 350000001 cycles: 353959068 heartbeat IPC: 0.893993 cumulative IPC: 0.944714 (Simulation time: 2 hr 46 min 28 sec) 
Heartbeat CPU 0 instructions: 430000001 cycles: 355234251 heartbeat IPC: 0.536197 cumulative IPC: 1.14627 (Simulation time: 2 hr 47 min 1 sec) 
Heartbeat CPU 5 instructions: 370000002 cycles: 356107610 heartbeat IPC: 1.01682 cumulative IPC: 0.996273 (Simulation time: 2 hr 47 min 23 sec) 
Heartbeat CPU 2 instructions: 550000003 cycles: 356467249 heartbeat IPC: 1.70658 cumulative IPC: 1.47729 (Simulation time: 2 hr 47 min 32 sec) 
Heartbeat CPU 7 instructions: 260000000 cycles: 359405625 heartbeat IPC: 0.675269 cumulative IPC: 0.676222 (Simulation time: 2 hr 48 min 45 sec) 
Heartbeat CPU 4 instructions: 370000000 cycles: 361855350 heartbeat IPC: 1.06256 cumulative IPC: 1.00147 (Simulation time: 2 hr 49 min 47 sec) 
Heartbeat CPU 3 instructions: 140000000 cycles: 361864894 heartbeat IPC: 0.275026 cumulative IPC: 0.331014 (Simulation time: 2 hr 49 min 47 sec) 
Heartbeat CPU 2 instructions: 560000000 cycles: 363189290 heartbeat IPC: 1.48764 cumulative IPC: 1.47749 (Simulation time: 2 hr 50 min 21 sec) 
Heartbeat CPU 1 instructions: 360000000 cycles: 363406741 heartbeat IPC: 1.05846 cumulative IPC: 0.947797 (Simulation time: 2 hr 50 min 26 sec) 
Heartbeat CPU 5 instructions: 380000000 cycles: 365920110 heartbeat IPC: 1.01911 cumulative IPC: 0.996911 (Simulation time: 2 hr 51 min 32 sec) 
Heartbeat CPU 2 instructions: 570000001 cycles: 369858014 heartbeat IPC: 1.49954 cumulative IPC: 1.4779 (Simulation time: 2 hr 53 min 11 sec) 
Heartbeat CPU 4 instructions: 380000000 cycles: 371326710 heartbeat IPC: 1.05581 cumulative IPC: 1.00291 (Simulation time: 2 hr 53 min 48 sec) 
Heartbeat CPU 1 instructions: 370000003 cycles: 372801774 heartbeat IPC: 1.06439 cumulative IPC: 0.950856 (Simulation time: 2 hr 54 min 25 sec) 
Heartbeat CPU 0 instructions: 440000000 cycles: 373852651 heartbeat IPC: 0.537103 cumulative IPC: 1.11468 (Simulation time: 2 hr 54 min 50 sec) 
Heartbeat CPU 7 instructions: 270000000 cycles: 374166139 heartbeat IPC: 0.677483 cumulative IPC: 0.676274 (Simulation time: 2 hr 54 min 57 sec) 
Heartbeat CPU 5 instructions: 390000002 cycles: 375652319 heartbeat IPC: 1.02752 cumulative IPC: 0.997736 (Simulation time: 2 hr 55 min 33 sec) 
Heartbeat CPU 2 instructions: 580000000 cycles: 376295071 heartbeat IPC: 1.5535 cumulative IPC: 1.47925 (Simulation time: 2 hr 55 min 49 sec) 
Heartbeat CPU 4 instructions: 390000001 cycles: 380784797 heartbeat IPC: 1.0573 cumulative IPC: 1.00432 (Simulation time: 2 hr 57 min 42 sec) 
Heartbeat CPU 1 instructions: 380000000 cycles: 382159135 heartbeat IPC: 1.06868 cumulative IPC: 0.953857 (Simulation time: 2 hr 58 min 16 sec) 
Heartbeat CPU 2 instructions: 590000001 cycles: 382660044 heartbeat IPC: 1.5711 cumulative IPC: 1.48084 (Simulation time: 2 hr 58 min 28 sec) 
Heartbeat CPU 5 instructions: 400000000 cycles: 385315870 heartbeat IPC: 1.03482 cumulative IPC: 0.998703 (Simulation time: 2 hr 59 min 37 sec) 
Heartbeat CPU 7 instructions: 280000000 cycles: 388960994 heartbeat IPC: 0.675911 cumulative IPC: 0.676259 (Simulation time: 3 hr 1 min 8 sec) 
Heartbeat CPU 2 instructions: 600000000 cycles: 389345702 heartbeat IPC: 1.49574 cumulative IPC: 1.48111 (Simulation time: 3 hr 1 min 17 sec) 
Heartbeat CPU 4 instructions: 400000000 cycles: 390445961 heartbeat IPC: 1.03507 cumulative IPC: 1.00511 (Simulation time: 3 hr 1 min 45 sec) 
Heartbeat CPU 1 instructions: 390000003 cycles: 391651246 heartbeat IPC: 1.05351 cumulative IPC: 0.956367 (Simulation time: 3 hr 2 min 15 sec) 
Heartbeat CPU 3 instructions: 150000001 cycles: 391783415 heartbeat IPC: 0.334241 cumulative IPC: 0.331271 (Simulation time: 3 hr 2 min 19 sec) 
Heartbeat CPU 0 instructions: 450000000 cycles: 392504717 heartbeat IPC: 0.536134 cumulative IPC: 1.08612 (Simulation time: 3 hr 2 min 37 sec) 
Heartbeat CPU 2 instructions: 610000002 cycles: 395423612 heartbeat IPC: 1.6453 cumulative IPC: 1.48373 (Simulation time: 3 hr 3 min 51 sec) 
Heartbeat CPU 5 instructions: 410000000 cycles: 395596167 heartbeat IPC: 0.972735 cumulative IPC: 0.998002 (Simulation time: 3 hr 3 min 55 sec) 
Heartbeat CPU 4 instructions: 410000003 cycles: 399945287 heartbeat IPC: 1.05271 cumulative IPC: 1.00628 (Simulation time: 3 hr 5 min 43 sec) 
Heartbeat CPU 1 instructions: 400000000 cycles: 401063040 heartbeat IPC: 1.0625 cumulative IPC: 0.958953 (Simulation time: 3 hr 6 min 11 sec) 
Heartbeat CPU 2 instructions: 620000000 cycles: 401619481 heartbeat IPC: 1.61398 cumulative IPC: 1.48581 (Simulation time: 3 hr 6 min 25 sec) 
Heartbeat CPU 7 instructions: 290000002 cycles: 403687296 heartbeat IPC: 0.679057 cumulative IPC: 0.676365 (Simulation time: 3 hr 7 min 16 sec) 
Heartbeat CPU 5 instructions: 420000000 cycles: 406197913 heartbeat IPC: 0.943241 cumulative IPC: 0.996519 (Simulation time: 3 hr 8 min 18 sec) 
Heartbeat CPU 2 instructions: 630000001 cycles: 407672007 heartbeat IPC: 1.6522 cumulative IPC: 1.48838 (Simulation time: 3 hr 8 min 55 sec) 
Heartbeat CPU 4 instructions: 420000000 cycles: 409376305 heartbeat IPC: 1.06033 cumulative IPC: 1.00757 (Simulation time: 3 hr 9 min 37 sec) 
Heartbeat CPU 1 instructions: 410000003 cycles: 410402186 heartbeat IPC: 1.07076 cumulative IPC: 0.961592 (Simulation time: 3 hr 10 min 3 sec) 
Heartbeat CPU 0 instructions: 460000000 cycles: 411126358 heartbeat IPC: 0.53701 cumulative IPC: 1.06032 (Simulation time: 3 hr 10 min 22 sec) 
Heartbeat CPU 2 instructions: 640000000 cycles: 413617761 heartbeat IPC: 1.68187 cumulative IPC: 1.49126 (Simulation time: 3 hr 11 min 25 sec) 
Heartbeat CPU 5 instructions: 430000003 cycles: 416722301 heartbeat IPC: 0.950174 cumulative IPC: 0.995306 (Simulation time: 3 hr 12 min 39 sec) 
Heartbeat CPU 7 instructions: 300000000 cycles: 418417317 heartbeat IPC: 0.678886 cumulative IPC: 0.676457 (Simulation time: 3 hr 13 min 19 sec) 
Heartbeat CPU 4 instructions: 430000001 cycles: 418832941 heartbeat IPC: 1.05746 cumulative IPC: 1.00874 (Simulation time: 3 hr 13 min 30 sec) 
Heartbeat CPU 1 instructions: 420000000 cycles: 419734115 heartbeat IPC: 1.07159 cumulative IPC: 0.964127 (Simulation time: 3 hr 13 min 54 sec) 
Heartbeat CPU 2 instructions: 650000003 cycles: 419974891 heartbeat IPC: 1.57304 cumulative IPC: 1.49254 (Simulation time: 3 hr 14 min 0 sec) 
Heartbeat CPU 3 instructions: 160000000 cycles: 420690216 heartbeat IPC: 0.345939 cumulative IPC: 0.332315 (Simulation time: 3 hr 14 min 17 sec) 
Heartbeat CPU 2 instructions: 660000000 cycles: 426274980 heartbeat IPC: 1.58728 cumulative IPC: 1.49399 (Simulation time: 3 hr 16 min 38 sec) 
Heartbeat CPU 5 instructions: 440000000 cycles: 427256123 heartbeat IPC: 0.949323 cumulative IPC: 0.994132 (Simulation time: 3 hr 17 min 4 sec) 
Heartbeat CPU 4 instructions: 440000000 cycles: 428239587 heartbeat IPC: 1.06308 cumulative IPC: 1.00998 (Simulation time: 3 hr 17 min 30 sec) 
Heartbeat CPU 1 instructions: 430000001 cycles: 429098191 heartbeat IPC: 1.06791 cumulative IPC: 0.966472 (Simulation time: 3 hr 17 min 53 sec) 
Heartbeat CPU 0 instructions: 470000003 cycles: 429743050 heartbeat IPC: 0.537153 cumulative IPC: 1.03685 (Simulation time: 3 hr 18 min 8 sec) 
Heartbeat CPU 2 instructions: 670000000 cycles: 432893793 heartbeat IPC: 1.51084 cumulative IPC: 1.49426 (Simulation time: 3 hr 19 min 26 sec) 
Heartbeat CPU 7 instructions: 310000000 cycles: 433184621 heartbeat IPC: 0.677172 cumulative IPC: 0.676482 (Simulation time: 3 hr 19 min 33 sec) 
Heartbeat CPU 6 instructions: 70000003 cycles: 435076586 heartbeat IPC: 0.122064 cumulative IPC: 0.11896 (Simulation time: 3 hr 20 min 20 sec) 
Heartbeat CPU 5 instructions: 450000000 cycles: 437891930 heartbeat IPC: 0.94022 cumulative IPC: 0.992776 (Simulation time: 3 hr 21 min 28 sec) 
Heartbeat CPU 4 instructions: 450000001 cycles: 437897614 heartbeat IPC: 1.03541 cumulative IPC: 1.01056 (Simulation time: 3 hr 21 min 29 sec) 
Heartbeat CPU 1 instructions: 440000000 cycles: 438574210 heartbeat IPC: 1.0553 cumulative IPC: 0.968458 (Simulation time: 3 hr 21 min 45 sec) 
Heartbeat CPU 2 instructions: 680000000 cycles: 439064882 heartbeat IPC: 1.62046 cumulative IPC: 1.4961 (Simulation time: 3 hr 21 min 57 sec) 
Heartbeat CPU 3 instructions: 170000003 cycles: 444781478 heartbeat IPC: 0.415088 cumulative IPC: 0.336952 (Simulation time: 3 hr 24 min 20 sec) 
Heartbeat CPU 2 instructions: 690000002 cycles: 445255057 heartbeat IPC: 1.61546 cumulative IPC: 1.49781 (Simulation time: 3 hr 24 min 33 sec) 
Heartbeat CPU 4 instructions: 460000000 cycles: 447544168 heartbeat IPC: 1.03664 cumulative IPC: 1.01114 (Simulation time: 3 hr 25 min 33 sec) 
Heartbeat CPU 7 instructions: 320000000 cycles: 447980949 heartbeat IPC: 0.675843 cumulative IPC: 0.676461 (Simulation time: 3 hr 25 min 44 sec) 
Heartbeat CPU 1 instructions: 450000000 cycles: 447995213 heartbeat IPC: 1.06146 cumulative IPC: 0.970481 (Simulation time: 3 hr 25 min 44 sec) 
Heartbeat CPU 5 instructions: 460000000 cycles: 448257614 heartbeat IPC: 0.964722 cumulative IPC: 0.992105 (Simulation time: 3 hr 25 min 51 sec) 
Heartbeat CPU 0 instructions: 480000000 cycles: 448404198 heartbeat IPC: 0.535873 cumulative IPC: 1.01529 (Simulation time: 3 hr 25 min 54 sec) 
Heartbeat CPU 2 instructions: 700000000 cycles: 450609454 heartbeat IPC: 1.86762 cumulative IPC: 1.50236 (Simulation time: 3 hr 26 min 51 sec) 
Heartbeat CPU 4 instructions: 470000002 cycles: 457301232 heartbeat IPC: 1.0249 cumulative IPC: 1.01144 (Simulation time: 3 hr 29 min 31 sec) 
Heartbeat CPU 1 instructions: 460000000 cycles: 457502222 heartbeat IPC: 1.05186 cumulative IPC: 0.972228 (Simulation time: 3 hr 29 min 36 sec) 
Heartbeat CPU 5 instructions: 470000000 cycles: 458245366 heartbeat IPC: 1.00123 cumulative IPC: 0.992311 (Simulation time: 3 hr 29 min 54 sec) 
Heartbeat CPU 2 instructions: 710000000 cycles: 459285736 heartbeat IPC: 1.15257 cumulative IPC: 1.49553 (Simulation time: 3 hr 30 min 20 sec) 
Heartbeat CPU 7 instructions: 330000000 cycles: 462833180 heartbeat IPC: 0.673299 cumulative IPC: 0.676356 (Simulation time: 3 hr 31 min 48 sec) 
Heartbeat CPU 1 instructions: 470000000 cycles: 466865184 heartbeat IPC: 1.06804 cumulative IPC: 0.974212 (Simulation time: 3 hr 33 min 29 sec) 
Heartbeat CPU 0 instructions: 490000001 cycles: 467037454 heartbeat IPC: 0.536675 cumulative IPC: 0.99557 (Simulation time: 3 hr 33 min 33 sec) 
Heartbeat CPU 4 instructions: 480000000 cycles: 467191827 heartbeat IPC: 1.01106 cumulative IPC: 1.01143 (Simulation time: 3 hr 33 min 37 sec) 
Heartbeat CPU 5 instructions: 480000000 cycles: 467969710 heartbeat IPC: 1.02835 cumulative IPC: 0.993084 (Simulation time: 3 hr 33 min 57 sec) 
Heartbeat CPU 2 instructions: 720000000 cycles: 468284980 heartbeat IPC: 1.1112 cumulative IPC: 1.4879 (Simulation time: 3 hr 34 min 5 sec) 
Heartbeat CPU 3 instructions: 180000000 cycles: 469130359 heartbeat IPC: 0.410696 cumulative IPC: 0.340904 (Simulation time: 3 hr 34 min 26 sec) 
Heartbeat CPU 2 instructions: 730000002 cycles: 474918035 heartbeat IPC: 1.5076 cumulative IPC: 1.48819 (Simulation time: 3 hr 36 min 50 sec) 
Heartbeat CPU 1 instructions: 480000000 cycles: 476332775 heartbeat IPC: 1.05623 cumulative IPC: 0.975895 (Simulation time: 3 hr 37 min 25 sec) 
Heartbeat CPU 4 instructions: 490000002 cycles: 476778704 heartbeat IPC: 1.04309 cumulative IPC: 1.01209 (Simulation time: 3 hr 37 min 37 sec) 
Heartbeat CPU 7 instructions: 340000000 cycles: 477582043 heartbeat IPC: 0.678018 cumulative IPC: 0.676409 (Simulation time: 3 hr 37 min 56 sec) 
Heartbeat CPU 5 instructions: 490000000 cycles: 480013807 heartbeat IPC: 0.830282 cumulative IPC: 0.98887 (Simulation time: 3 hr 38 min 55 sec) 
Heartbeat CPU 2 instructions: 740000000 cycles: 481220468 heartbeat IPC: 1.58669 cumulative IPC: 1.48952 (Simulation time: 3 hr 39 min 22 sec) 
Heartbeat CPU 0 instructions: 500000000 cycles: 485650965 heartbeat IPC: 0.537244 cumulative IPC: 0.977453 (Simulation time: 3 hr 41 min 11 sec) 
Heartbeat CPU 1 instructions: 490000001 cycles: 485781497 heartbeat IPC: 1.05834 cumulative IPC: 0.977549 (Simulation time: 3 hr 41 min 15 sec) 
Heartbeat CPU 4 instructions: 500000000 cycles: 486275696 heartbeat IPC: 1.05296 cumulative IPC: 1.01291 (Simulation time: 3 hr 41 min 27 sec) 
Heartbeat CPU 2 instructions: 750000000 cycles: 487188262 heartbeat IPC: 1.67566 cumulative IPC: 1.49187 (Simulation time: 3 hr 41 min 50 sec) 
Heartbeat CPU 5 instructions: 500000000 cycles: 492020225 heartbeat IPC: 0.832888 cumulative IPC: 0.984945 (Simulation time: 3 hr 43 min 50 sec) 
Heartbeat CPU 7 instructions: 350000000 cycles: 492341128 heartbeat IPC: 0.677549 cumulative IPC: 0.676444 (Simulation time: 3 hr 43 min 58 sec) 
Heartbeat CPU 2 instructions: 760000000 cycles: 493662992 heartbeat IPC: 1.54447 cumulative IPC: 1.49258 (Simulation time: 3 hr 44 min 32 sec) 
Heartbeat CPU 1 instructions: 500000000 cycles: 495415056 heartbeat IPC: 1.03804 cumulative IPC: 0.978761 (Simulation time: 3 hr 45 min 16 sec) 
Heartbeat CPU 4 instructions: 510000001 cycles: 495832023 heartbeat IPC: 1.04643 cumulative IPC: 1.01358 (Simulation time: 3 hr 45 min 26 sec) 
Heartbeat CPU 3 instructions: 190000000 cycles: 497447666 heartbeat IPC: 0.353141 cumulative IPC: 0.341622 (Simulation time: 3 hr 46 min 7 sec) 
Heartbeat CPU 2 instructions: 770000000 cycles: 499714636 heartbeat IPC: 1.65244 cumulative IPC: 1.49457 (Simulation time: 3 hr 47 min 3 sec) 
Heartbeat CPU 5 instructions: 510000000 cycles: 504280434 heartbeat IPC: 0.815647 cumulative IPC: 0.980705 (Simulation time: 3 hr 48 min 53 sec) 
Heartbeat CPU 0 instructions: 510000002 cycles: 504317247 heartbeat IPC: 0.535725 cumulative IPC: 0.96061 (Simulation time: 3 hr 48 min 54 sec) 
Heartbeat CPU 1 instructions: 510000002 cycles: 505418437 heartbeat IPC: 0.999662 cumulative IPC: 0.979187 (Simulation time: 3 hr 49 min 21 sec) 
Heartbeat CPU 4 instructions: 520000000 cycles: 505472068 heartbeat IPC: 1.03734 cumulative IPC: 1.01405 (Simulation time: 3 hr 49 min 22 sec) 
Heartbeat CPU 2 instructions: 780000000 cycles: 506174078 heartbeat IPC: 1.54812 cumulative IPC: 1.49528 (Simulation time: 3 hr 49 min 40 sec) 
Heartbeat CPU 7 instructions: 360000000 cycles: 507132517 heartbeat IPC: 0.676069 cumulative IPC: 0.676433 (Simulation time: 3 hr 50 min 4 sec) 
Heartbeat CPU 2 instructions: 790000001 cycles: 512802206 heartbeat IPC: 1.50872 cumulative IPC: 1.49546 (Simulation time: 3 hr 52 min 28 sec) 
Heartbeat CPU 5 instructions: 520000000 cycles: 514326052 heartbeat IPC: 0.995459 cumulative IPC: 0.981002 (Simulation time: 3 hr 53 min 8 sec) 
Heartbeat CPU 4 instructions: 530000002 cycles: 514951984 heartbeat IPC: 1.05486 cumulative IPC: 1.01482 (Simulation time: 3 hr 53 min 24 sec) 
Heartbeat CPU 6 instructions: 80000000 cycles: 515295452 heartbeat IPC: 0.124659 cumulative IPC: 0.119874 (Simulation time: 3 hr 53 min 32 sec) 
Heartbeat CPU 1 instructions: 520000000 cycles: 515337756 heartbeat IPC: 1.00813 cumulative IPC: 0.979761 (Simulation time: 3 hr 53 min 34 sec) 
Heartbeat CPU 2 instructions: 800000000 cycles: 519408689 heartbeat IPC: 1.51366 cumulative IPC: 1.4957 (Simulation time: 3 hr 55 min 15 sec) 
Heartbeat CPU 3 instructions: 200000000 cycles: 519452850 heartbeat IPC: 0.454438 cumulative IPC: 0.346541 (Simulation time: 3 hr 55 min 16 sec) 
Heartbeat CPU 7 instructions: 370000003 cycles: 521875618 heartbeat IPC: 0.678284 cumulative IPC: 0.676486 (Simulation time: 3 hr 56 min 17 sec) 
Heartbeat CPU 0 instructions: 520000000 cycles: 522942941 heartbeat IPC: 0.536893 cumulative IPC: 0.94508 (Simulation time: 3 hr 56 min 44 sec) 
Heartbeat CPU 5 instructions: 530000001 cycles: 523968589 heartbeat IPC: 1.03707 cumulative IPC: 0.982064 (Simulation time: 3 hr 57 min 9 sec) 
Heartbeat CPU 4 instructions: 540000000 cycles: 524358927 heartbeat IPC: 1.06304 cumulative IPC: 1.01571 (Simulation time: 3 hr 57 min 19 sec) 
Heartbeat CPU 1 instructions: 530000001 cycles: 525228300 heartbeat IPC: 1.01107 cumulative IPC: 0.980367 (Simulation time: 3 hr 57 min 42 sec) 
Heartbeat CPU 2 instructions: 810000000 cycles: 525746292 heartbeat IPC: 1.57788 cumulative IPC: 1.49672 (Simulation time: 3 hr 57 min 55 sec) 
Heartbeat CPU 2 instructions: 820000000 cycles: 532194020 heartbeat IPC: 1.55093 cumulative IPC: 1.49739 (Simulation time: 4 hr 0 min 34 sec) 
Heartbeat CPU 5 instructions: 540000000 cycles: 533656300 heartbeat IPC: 1.03224 cumulative IPC: 0.983 (Simulation time: 4 hr 1 min 11 sec) 
Heartbeat CPU 4 instructions: 550000002 cycles: 533996341 heartbeat IPC: 1.03762 cumulative IPC: 1.01612 (Simulation time: 4 hr 1 min 20 sec) 
Heartbeat CPU 1 instructions: 540000000 cycles: 535151597 heartbeat IPC: 1.00773 cumulative IPC: 0.980889 (Simulation time: 4 hr 1 min 49 sec) 
Heartbeat CPU 7 instructions: 380000000 cycles: 536662997 heartbeat IPC: 0.676252 cumulative IPC: 0.67648 (Simulation time: 4 hr 2 min 26 sec) 
Heartbeat CPU 2 instructions: 830000002 cycles: 538537283 heartbeat IPC: 1.57648 cumulative IPC: 1.49835 (Simulation time: 4 hr 3 min 12 sec) 
Heartbeat CPU 0 instructions: 530000001 cycles: 541569034 heartbeat IPC: 0.536881 cumulative IPC: 0.930647 (Simulation time: 4 hr 4 min 28 sec) 
Heartbeat CPU 5 instructions: 550000000 cycles: 543240509 heartbeat IPC: 1.04338 cumulative IPC: 0.984096 (Simulation time: 4 hr 5 min 10 sec) 
Heartbeat CPU 4 instructions: 560000000 cycles: 543442355 heartbeat IPC: 1.05865 cumulative IPC: 1.01688 (Simulation time: 4 hr 5 min 15 sec) 
Heartbeat CPU 2 instructions: 840000000 cycles: 544721655 heartbeat IPC: 1.61698 cumulative IPC: 1.49973 (Simulation time: 4 hr 5 min 46 sec) 
Heartbeat CPU 1 instructions: 550000000 cycles: 545033071 heartbeat IPC: 1.01199 cumulative IPC: 0.981469 (Simulation time: 4 hr 5 min 54 sec) 
Heartbeat CPU 3 instructions: 210000001 cycles: 546210797 heartbeat IPC: 0.373721 cumulative IPC: 0.34791 (Simulation time: 4 hr 6 min 23 sec) 
Heartbeat CPU 2 instructions: 850000000 cycles: 550866081 heartbeat IPC: 1.62749 cumulative IPC: 1.5012 (Simulation time: 4 hr 8 min 19 sec) 
Heartbeat CPU 7 instructions: 390000003 cycles: 551362459 heartbeat IPC: 0.680297 cumulative IPC: 0.676584 (Simulation time: 4 hr 8 min 30 sec) 
Heartbeat CPU 4 instructions: 570000003 cycles: 552885060 heartbeat IPC: 1.05902 cumulative IPC: 1.01762 (Simulation time: 4 hr 9 min 8 sec) 
Heartbeat CPU 5 instructions: 560000000 cycles: 552907446 heartbeat IPC: 1.03445 cumulative IPC: 0.985 (Simulation time: 4 hr 9 min 8 sec) 
Heartbeat CPU 1 instructions: 560000000 cycles: 554851973 heartbeat IPC: 1.01844 cumulative IPC: 0.982141 (Simulation time: 4 hr 9 min 55 sec) 
Heartbeat CPU 2 instructions: 860000000 cycles: 557495361 heartbeat IPC: 1.50846 cumulative IPC: 1.50129 (Simulation time: 4 hr 10 min 59 sec) 
Heartbeat CPU 0 instructions: 540000000 cycles: 560234952 heartbeat IPC: 0.535736 cumulative IPC: 0.917133 (Simulation time: 4 hr 12 min 4 sec) 
Heartbeat CPU 4 instructions: 580000000 cycles: 562396042 heartbeat IPC: 1.05142 cumulative IPC: 1.0182 (Simulation time: 4 hr 12 min 57 sec) 
Heartbeat CPU 5 instructions: 570000001 cycles: 562609331 heartbeat IPC: 1.03073 cumulative IPC: 0.98581 (Simulation time: 4 hr 13 min 2 sec) 
Heartbeat CPU 2 instructions: 870000000 cycles: 564293945 heartbeat IPC: 1.47089 cumulative IPC: 1.50091 (Simulation time: 4 hr 13 min 43 sec) 
Heartbeat CPU 1 instructions: 570000003 cycles: 564627921 heartbeat IPC: 1.02292 cumulative IPC: 0.982866 (Simulation time: 4 hr 13 min 50 sec) 
Heartbeat CPU 7 instructions: 400000000 cycles: 566220679 heartbeat IPC: 0.673028 cumulative IPC: 0.676489 (Simulation time: 4 hr 14 min 32 sec) 
Heartbeat CPU 2 instructions: 880000000 cycles: 571168948 heartbeat IPC: 1.45454 cumulative IPC: 1.50034 (Simulation time: 4 hr 16 min 33 sec) 
Heartbeat CPU 4 instructions: 590000000 cycles: 572324343 heartbeat IPC: 1.00722 cumulative IPC: 1.01801 (Simulation time: 4 hr 17 min 1 sec) 
Heartbeat CPU 0 instructions: 550000001 cycles: 572463338 heartbeat IPC: 0.817769 cumulative IPC: 0.914955 (Simulation time: 4 hr 17 min 5 sec) 
Heartbeat CPU 5 instructions: 580000000 cycles: 572465594 heartbeat IPC: 1.01458 cumulative IPC: 0.986318 (Simulation time: 4 hr 17 min 5 sec) 
Heartbeat CPU 1 instructions: 580000000 cycles: 574686479 heartbeat IPC: 0.994178 cumulative IPC: 0.983069 (Simulation time: 4 hr 17 min 57 sec) 
Heartbeat CPU 2 instructions: 890000001 cycles: 577285787 heartbeat IPC: 1.63483 cumulative IPC: 1.5018 (Simulation time: 4 hr 18 min 58 sec) 
Heartbeat CPU 7 instructions: 410000002 cycles: 581065639 heartbeat IPC: 0.673629 cumulative IPC: 0.676414 (Simulation time: 4 hr 20 min 27 sec) 
Heartbeat CPU 4 instructions: 600000000 cycles: 582188917 heartbeat IPC: 1.01373 cumulative IPC: 1.01793 (Simulation time: 4 hr 20 min 54 sec) 
Heartbeat CPU 5 instructions: 590000003 cycles: 582469113 heartbeat IPC: 0.999649 cumulative IPC: 0.986553 (Simulation time: 4 hr 21 min 1 sec) 
Heartbeat CPU 2 instructions: 900000000 cycles: 583598512 heartbeat IPC: 1.5841 cumulative IPC: 1.50271 (Simulation time: 4 hr 21 min 29 sec) 
Heartbeat CPU 3 instructions: 220000000 cycles: 584358892 heartbeat IPC: 0.262136 cumulative IPC: 0.342165 (Simulation time: 4 hr 21 min 49 sec) 
Heartbeat CPU 1 instructions: 590000003 cycles: 586836137 heartbeat IPC: 0.823069 cumulative IPC: 0.979671 (Simulation time: 4 hr 22 min 50 sec) 
Heartbeat CPU 2 instructions: 910000002 cycles: 589470926 heartbeat IPC: 1.70288 cumulative IPC: 1.50476 (Simulation time: 4 hr 23 min 54 sec) 
Heartbeat CPU 0 instructions: 560000000 cycles: 590606069 heartbeat IPC: 0.551185 cumulative IPC: 0.903494 (Simulation time: 4 hr 24 min 21 sec) 
Heartbeat CPU 4 instructions: 610000003 cycles: 591673995 heartbeat IPC: 1.05429 cumulative IPC: 1.01853 (Simulation time: 4 hr 24 min 45 sec) 
Heartbeat CPU 5 instructions: 600000000 cycles: 592139313 heartbeat IPC: 1.0341 cumulative IPC: 0.98735 (Simulation time: 4 hr 24 min 56 sec) 
Heartbeat CPU 6 instructions: 90000002 cycles: 595497702 heartbeat IPC: 0.124685 cumulative IPC: 0.120538 (Simulation time: 4 hr 26 min 15 sec) 
Heartbeat CPU 7 instructions: 420000000 cycles: 595852470 heartbeat IPC: 0.676277 cumulative IPC: 0.67641 (Simulation time: 4 hr 26 min 24 sec) 
Heartbeat CPU 1 instructions: 600000000 cycles: 598660773 heartbeat IPC: 0.845692 cumulative IPC: 0.976958 (Simulation time: 4 hr 27 min 30 sec) 
Heartbeat CPU 2 instructions: 920000000 cycles: 598820810 heartbeat IPC: 1.06953 cumulative IPC: 1.49779 (Simulation time: 4 hr 27 min 34 sec) 
Heartbeat CPU 4 instructions: 620000000 cycles: 601093586 heartbeat IPC: 1.06162 cumulative IPC: 1.01922 (Simulation time: 4 hr 28 min 31 sec) 
Heartbeat CPU 5 instructions: 610000001 cycles: 601596842 heartbeat IPC: 1.05736 cumulative IPC: 0.988478 (Simulation time: 4 hr 28 min 44 sec) 
Heartbeat CPU 2 instructions: 930000003 cycles: 606675056 heartbeat IPC: 1.2732 cumulative IPC: 1.49481 (Simulation time: 4 hr 30 min 51 sec) 
Heartbeat CPU 0 instructions: 570000002 cycles: 609313288 heartbeat IPC: 0.534553 cumulative IPC: 0.891885 (Simulation time: 4 hr 31 min 57 sec) 
Heartbeat CPU 1 instructions: 610000000 cycles: 610379283 heartbeat IPC: 0.853351 cumulative IPC: 0.974526 (Simulation time: 4 hr 32 min 24 sec) 
Heartbeat CPU 4 instructions: 630000001 cycles: 610559834 heartbeat IPC: 1.05638 cumulative IPC: 1.01981 (Simulation time: 4 hr 32 min 28 sec) 
Heartbeat CPU 7 instructions: 430000002 cycles: 610575762 heartbeat IPC: 0.679196 cumulative IPC: 0.676479 (Simulation time: 4 hr 32 min 29 sec) 
Heartbeat CPU 5 instructions: 620000000 cycles: 611207605 heartbeat IPC: 1.0405 cumulative IPC: 0.989316 (Simulation time: 4 hr 32 min 45 sec) 
Heartbeat CPU 2 instructions: 940000000 cycles: 612491120 heartbeat IPC: 1.71938 cumulative IPC: 1.497 (Simulation time: 4 hr 33 min 17 sec) 
Heartbeat CPU 3 instructions: 230000002 cycles: 614278892 heartbeat IPC: 0.334225 cumulative IPC: 0.341769 (Simulation time: 4 hr 34 min 2 sec) 
Heartbeat CPU 2 instructions: 950000003 cycles: 618805358 heartbeat IPC: 1.58372 cumulative IPC: 1.4979 (Simulation time: 4 hr 35 min 53 sec) 
Heartbeat CPU 4 instructions: 640000000 cycles: 619915552 heartbeat IPC: 1.06886 cumulative IPC: 1.02057 (Simulation time: 4 hr 36 min 20 sec) 
Heartbeat CPU 5 instructions: 630000002 cycles: 620846680 heartbeat IPC: 1.03744 cumulative IPC: 0.990082 (Simulation time: 4 hr 36 min 43 sec) 
Heartbeat CPU 1 instructions: 620000000 cycles: 622044512 heartbeat IPC: 0.857248 cumulative IPC: 0.972273 (Simulation time: 4 hr 37 min 11 sec) 
Heartbeat CPU 2 instructions: 960000000 cycles: 625213446 heartbeat IPC: 1.56053 cumulative IPC: 1.49856 (Simulation time: 4 hr 38 min 25 sec) 
Heartbeat CPU 7 instructions: 440000000 cycles: 625309791 heartbeat IPC: 0.678701 cumulative IPC: 0.676533 (Simulation time: 4 hr 38 min 27 sec) 
Heartbeat CPU 0 instructions: 580000000 cycles: 628057351 heartbeat IPC: 0.533502 cumulative IPC: 0.880932 (Simulation time: 4 hr 39 min 34 sec) 
Heartbeat CPU 4 instructions: 650000000 cycles: 629507462 heartbeat IPC: 1.04255 cumulative IPC: 1.02092 (Simulation time: 4 hr 40 min 9 sec) 
Heartbeat CPU 5 instructions: 640000000 cycles: 630587462 heartbeat IPC: 1.02661 cumulative IPC: 0.99066 (Simulation time: 4 hr 40 min 36 sec) 
Heartbeat CPU 2 instructions: 970000000 cycles: 631114595 heartbeat IPC: 1.69459 cumulative IPC: 1.50044 (Simulation time: 4 hr 40 min 50 sec) 
Heartbeat CPU 1 instructions: 630000002 cycles: 631833520 heartbeat IPC: 1.02155 cumulative IPC: 0.973055 (Simulation time: 4 hr 41 min 8 sec) 
Heartbeat CPU 2 instructions: 980000000 cycles: 637397397 heartbeat IPC: 1.59165 cumulative IPC: 1.50136 (Simulation time: 4 hr 43 min 27 sec) 
Heartbeat CPU 4 instructions: 660000000 cycles: 638951914 heartbeat IPC: 1.05882 cumulative IPC: 1.02149 (Simulation time: 4 hr 44 min 6 sec) 
Heartbeat CPU 7 instructions: 450000000 cycles: 640025515 heartbeat IPC: 0.679545 cumulative IPC: 0.676604 (Simulation time: 4 hr 44 min 32 sec) 
Heartbeat CPU 5 instructions: 650000002 cycles: 640272652 heartbeat IPC: 1.0325 cumulative IPC: 0.991307 (Simulation time: 4 hr 44 min 39 sec) 
Heartbeat CPU 1 instructions: 640000000 cycles: 641702786 heartbeat IPC: 1.01325 cumulative IPC: 0.973688 (Simulation time: 4 hr 45 min 14 sec) 
Heartbeat CPU 2 instructions: 990000001 cycles: 644047787 heartbeat IPC: 1.50367 cumulative IPC: 1.50138 (Simulation time: 4 hr 46 min 11 sec) 
Heartbeat CPU 0 instructions: 590000001 cycles: 646780433 heartbeat IPC: 0.5341 cumulative IPC: 0.870657 (Simulation time: 4 hr 47 min 19 sec) 
Heartbeat CPU 3 instructions: 240000000 cycles: 647765938 heartbeat IPC: 0.298623 cumulative IPC: 0.339486 (Simulation time: 4 hr 47 min 44 sec) 
Heartbeat CPU 4 instructions: 670000002 cycles: 648684579 heartbeat IPC: 1.02747 cumulative IPC: 1.02158 (Simulation time: 4 hr 48 min 8 sec) 
Heartbeat CPU 2 instructions: 1000000000 cycles: 649964758 heartbeat IPC: 1.69005 cumulative IPC: 1.50314 (Simulation time: 4 hr 48 min 40 sec) 
Heartbeat CPU 5 instructions: 660000000 cycles: 650117086 heartbeat IPC: 1.0158 cumulative IPC: 0.991687 (Simulation time: 4 hr 48 min 44 sec) 
Heartbeat CPU 1 instructions: 650000000 cycles: 651700586 heartbeat IPC: 1.00022 cumulative IPC: 0.974104 (Simulation time: 4 hr 49 min 21 sec) 
Heartbeat CPU 7 instructions: 460000000 cycles: 654765613 heartbeat IPC: 0.678422 cumulative IPC: 0.676645 (Simulation time: 4 hr 50 min 35 sec) 
Heartbeat CPU 2 instructions: 1010000001 cycles: 656940865 heartbeat IPC: 1.43346 cumulative IPC: 1.50238 (Simulation time: 4 hr 51 min 24 sec) 
Heartbeat CPU 4 instructions: 680000000 cycles: 658415464 heartbeat IPC: 1.02766 cumulative IPC: 1.02167 (Simulation time: 4 hr 51 min 57 sec) 
Heartbeat CPU 1 instructions: 660000000 cycles: 661632875 heartbeat IPC: 1.00682 cumulative IPC: 0.974606 (Simulation time: 4 hr 53 min 6 sec) 
Heartbeat CPU 5 instructions: 670000001 cycles: 661750865 heartbeat IPC: 0.859566 cumulative IPC: 0.989311 (Simulation time: 4 hr 53 min 9 sec) 
Heartbeat CPU 2 instructions: 1020000000 cycles: 663414410 heartbeat IPC: 1.54475 cumulative IPC: 1.5028 (Simulation time: 4 hr 53 min 44 sec) 
Heartbeat CPU 0 instructions: 600000000 cycles: 665540701 heartbeat IPC: 0.533041 cumulative IPC: 0.860924 (Simulation time: 4 hr 54 min 28 sec) 
Heartbeat CPU 4 instructions: 690000002 cycles: 668046743 heartbeat IPC: 1.03828 cumulative IPC: 1.02192 (Simulation time: 4 hr 55 min 25 sec) 
Heartbeat CPU 2 instructions: 1030000001 cycles: 670019971 heartbeat IPC: 1.51388 cumulative IPC: 1.50292 (Simulation time: 4 hr 56 min 9 sec) 
Heartbeat CPU 1 instructions: 670000000 cycles: 671553776 heartbeat IPC: 1.00797 cumulative IPC: 0.97511 (Simulation time: 4 hr 56 min 42 sec) 
Heartbeat CPU 5 instructions: 680000000 cycles: 674812651 heartbeat IPC: 0.765592 cumulative IPC: 0.984884 (Simulation time: 4 hr 57 min 54 sec) 
Heartbeat CPU 2 instructions: 1040000000 cycles: 676625864 heartbeat IPC: 1.5138 cumulative IPC: 1.50303 (Simulation time: 4 hr 58 min 34 sec) 
Heartbeat CPU 3 instructions: 250000001 cycles: 677443688 heartbeat IPC: 0.336953 cumulative IPC: 0.339373 (Simulation time: 4 hr 58 min 52 sec) 
Heartbeat CPU 4 instructions: 700000000 cycles: 677785010 heartbeat IPC: 1.02688 cumulative IPC: 1.02199 (Simulation time: 4 hr 58 min 59 sec) 
Heartbeat CPU 6 instructions: 100000000 cycles: 677929191 heartbeat IPC: 0.121313 cumulative IPC: 0.120634 (Simulation time: 4 hr 59 min 2 sec) 
Heartbeat CPU 1 instructions: 680000000 cycles: 681575813 heartbeat IPC: 0.997801 cumulative IPC: 0.975451 (Simulation time: 5 hr 0 min 21 sec) 
Heartbeat CPU 2 instructions: 1050000001 cycles: 683356536 heartbeat IPC: 1.48574 cumulative IPC: 1.50285 (Simulation time: 5 hr 1 min 0 sec) 
Heartbeat CPU 0 instructions: 610000003 cycles: 684275761 heartbeat IPC: 0.533759 cumulative IPC: 0.851769 (Simulation time: 5 hr 1 min 20 sec) 
Heartbeat CPU 4 instructions: 710000001 cycles: 687711091 heartbeat IPC: 1.00745 cumulative IPC: 1.02178 (Simulation time: 5 hr 2 min 32 sec) 
Heartbeat CPU 5 instructions: 690000002 cycles: 688184472 heartbeat IPC: 0.747841 cumulative IPC: 0.980177 (Simulation time: 5 hr 2 min 42 sec) 
Heartbeat CPU 2 instructions: 1060000000 cycles: 689886643 heartbeat IPC: 1.53137 cumulative IPC: 1.50313 (Simulation time: 5 hr 3 min 17 sec) 
Heartbeat CPU 7 instructions: 470000002 cycles: 691431262 heartbeat IPC: 0.272735 cumulative IPC: 0.654759 (Simulation time: 5 hr 3 min 50 sec) 
Heartbeat CPU 1 instructions: 690000002 cycles: 691529614 heartbeat IPC: 1.00464 cumulative IPC: 0.975881 (Simulation time: 5 hr 3 min 52 sec) 
Heartbeat CPU 2 instructions: 1070000001 cycles: 695744861 heartbeat IPC: 1.707 cumulative IPC: 1.50488 (Simulation time: 5 hr 5 min 21 sec) 
Heartbeat CPU 4 instructions: 720000000 cycles: 698679517 heartbeat IPC: 0.911708 cumulative IPC: 1.02001 (Simulation time: 5 hr 6 min 19 sec) 
Heartbeat CPU 5 instructions: 700000000 cycles: 700646233 heartbeat IPC: 0.802455 cumulative IPC: 0.976948 (Simulation time: 5 hr 6 min 59 sec) 
Heartbeat CPU 1 instructions: 700000000 cycles: 701228710 heartbeat IPC: 1.03102 cumulative IPC: 0.97666 (Simulation time: 5 hr 7 min 10 sec) 
Heartbeat CPU 2 instructions: 1080000000 cycles: 702194791 heartbeat IPC: 1.5504 cumulative IPC: 1.50531 (Simulation time: 5 hr 7 min 29 sec) 
Heartbeat CPU 0 instructions: 620000000 cycles: 703019872 heartbeat IPC: 0.533501 cumulative IPC: 0.843101 (Simulation time: 5 hr 7 min 45 sec) 
Heartbeat CPU 3 instructions: 260000000 cycles: 705228109 heartbeat IPC: 0.359914 cumulative IPC: 0.340199 (Simulation time: 5 hr 8 min 31 sec) 
Heartbeat CPU 2 instructions: 1090000003 cycles: 709427576 heartbeat IPC: 1.38259 cumulative IPC: 1.50403 (Simulation time: 5 hr 9 min 55 sec) 
Heartbeat CPU 4 instructions: 730000002 cycles: 710489252 heartbeat IPC: 0.846759 cumulative IPC: 1.01707 (Simulation time: 5 hr 10 min 17 sec) 
Heartbeat CPU 1 instructions: 710000001 cycles: 711237882 heartbeat IPC: 0.999084 cumulative IPC: 0.976982 (Simulation time: 5 hr 10 min 32 sec) 
Heartbeat CPU 5 instructions: 710000001 cycles: 713726829 heartbeat IPC: 0.764491 cumulative IPC: 0.972972 (Simulation time: 5 hr 11 min 20 sec) 
Heartbeat CPU 2 instructions: 1100000000 cycles: 716423195 heartbeat IPC: 1.42947 cumulative IPC: 1.50329 (Simulation time: 5 hr 12 min 10 sec) 
Heartbeat CPU 1 instructions: 720000000 cycles: 721608630 heartbeat IPC: 0.964251 cumulative IPC: 0.976795 (Simulation time: 5 hr 13 min 53 sec) 
Heartbeat CPU 0 instructions: 630000000 cycles: 721813021 heartbeat IPC: 0.532109 cumulative IPC: 0.834835 (Simulation time: 5 hr 13 min 56 sec) 
Heartbeat CPU 4 instructions: 740000000 cycles: 722897744 heartbeat IPC: 0.8059 cumulative IPC: 1.01337 (Simulation time: 5 hr 14 min 19 sec) 
Heartbeat CPU 2 instructions: 1110000001 cycles: 722949084 heartbeat IPC: 1.53236 cumulative IPC: 1.50355 (Simulation time: 5 hr 14 min 20 sec) 
Heartbeat CPU 5 instructions: 720000000 cycles: 727080507 heartbeat IPC: 0.748857 cumulative IPC: 0.968771 (Simulation time: 5 hr 15 min 46 sec) 
Heartbeat CPU 2 instructions: 1120000000 cycles: 729369871 heartbeat IPC: 1.55744 cumulative IPC: 1.50404 (Simulation time: 5 hr 16 min 35 sec) 
Heartbeat CPU 1 instructions: 730000001 cycles: 732142208 heartbeat IPC: 0.949345 cumulative IPC: 0.976392 (Simulation time: 5 hr 17 min 32 sec) 
Heartbeat CPU 3 instructions: 270000001 cycles: 735056600 heartbeat IPC: 0.33525 cumulative IPC: 0.339994 (Simulation time: 5 hr 18 min 30 sec) 
Heartbeat CPU 4 instructions: 750000002 cycles: 735074765 heartbeat IPC: 0.821219 cumulative IPC: 1.01012 (Simulation time: 5 hr 18 min 30 sec) 
Heartbeat CPU 5 instructions: 730000002 cycles: 737616116 heartbeat IPC: 0.949162 cumulative IPC: 0.968485 (Simulation time: 5 hr 19 min 24 sec) 
Heartbeat CPU 7 instructions: 480000000 cycles: 738244759 heartbeat IPC: 0.213614 cumulative IPC: 0.626214 (Simulation time: 5 hr 19 min 38 sec) 
Heartbeat CPU 2 instructions: 1130000000 cycles: 738833003 heartbeat IPC: 1.05673 cumulative IPC: 1.49819 (Simulation time: 5 hr 19 min 50 sec) 
Heartbeat CPU 0 instructions: 640000000 cycles: 740572556 heartbeat IPC: 0.533062 cumulative IPC: 0.827035 (Simulation time: 5 hr 20 min 28 sec) 
Heartbeat CPU 1 instructions: 740000000 cycles: 742008895 heartbeat IPC: 1.01351 cumulative IPC: 0.976896 (Simulation time: 5 hr 20 min 59 sec) 
Heartbeat CPU 4 instructions: 760000000 cycles: 745402957 heartbeat IPC: 0.968223 cumulative IPC: 1.00953 (Simulation time: 5 hr 22 min 13 sec) 
Heartbeat CPU 5 instructions: 740000000 cycles: 746985552 heartbeat IPC: 1.0673 cumulative IPC: 0.969749 (Simulation time: 5 hr 22 min 45 sec) 
Heartbeat CPU 2 instructions: 1140000000 cycles: 747227128 heartbeat IPC: 1.19131 cumulative IPC: 1.49468 (Simulation time: 5 hr 22 min 50 sec) 
Heartbeat CPU 1 instructions: 750000000 cycles: 751724952 heartbeat IPC: 1.02922 cumulative IPC: 0.977586 (Simulation time: 5 hr 24 min 27 sec) 
Heartbeat CPU 2 instructions: 1150000001 cycles: 753063707 heartbeat IPC: 1.71333 cumulative IPC: 1.4964 (Simulation time: 5 hr 24 min 56 sec) 
Heartbeat CPU 4 instructions: 770000002 cycles: 755097956 heartbeat IPC: 1.03146 cumulative IPC: 1.00982 (Simulation time: 5 hr 25 min 41 sec) 
Heartbeat CPU 5 instructions: 750000002 cycles: 756389432 heartbeat IPC: 1.06339 cumulative IPC: 0.970937 (Simulation time: 5 hr 26 min 8 sec) 
Heartbeat CPU 2 instructions: 1160000000 cycles: 759261987 heartbeat IPC: 1.61335 cumulative IPC: 1.49738 (Simulation time: 5 hr 27 min 9 sec) 
Heartbeat CPU 0 instructions: 650000000 cycles: 759337690 heartbeat IPC: 0.532903 cumulative IPC: 0.819622 (Simulation time: 5 hr 27 min 10 sec) 
Heartbeat CPU 3 instructions: 280000000 cycles: 760212350 heartbeat IPC: 0.397523 cumulative IPC: 0.341936 (Simulation time: 5 hr 27 min 29 sec) 
Heartbeat CPU 1 instructions: 760000000 cycles: 761296071 heartbeat IPC: 1.04481 cumulative IPC: 0.978448 (Simulation time: 5 hr 27 min 52 sec) 
Heartbeat CPU 2 instructions: 1170000000 cycles: 765583125 heartbeat IPC: 1.58199 cumulative IPC: 1.49809 (Simulation time: 5 hr 29 min 22 sec) 
Heartbeat CPU 5 instructions: 760000000 cycles: 765778938 heartbeat IPC: 1.06502 cumulative IPC: 0.972113 (Simulation time: 5 hr 29 min 26 sec) 
Heartbeat CPU 4 instructions: 780000000 cycles: 766666728 heartbeat IPC: 0.864396 cumulative IPC: 1.00758 (Simulation time: 5 hr 29 min 45 sec) 
Heartbeat CPU 1 instructions: 770000003 cycles: 771298254 heartbeat IPC: 0.999782 cumulative IPC: 0.97873 (Simulation time: 5 hr 31 min 19 sec) 
Heartbeat CPU 2 instructions: 1180000000 cycles: 771503779 heartbeat IPC: 1.689 cumulative IPC: 1.49958 (Simulation time: 5 hr 31 min 23 sec) 
Heartbeat CPU 6 instructions: 110000002 cycles: 771586503 heartbeat IPC: 0.106772 cumulative IPC: 0.118919 (Simulation time: 5 hr 31 min 25 sec) 
Heartbeat CPU 5 instructions: 770000001 cycles: 775224096 heartbeat IPC: 1.05874 cumulative IPC: 0.973189 (Simulation time: 5 hr 32 min 38 sec) 
Heartbeat CPU 2 instructions: 1190000002 cycles: 778081783 heartbeat IPC: 1.52022 cumulative IPC: 1.49976 (Simulation time: 5 hr 33 min 38 sec) 
Heartbeat CPU 0 instructions: 660000000 cycles: 778086782 heartbeat IPC: 0.533359 cumulative IPC: 0.812591 (Simulation time: 5 hr 33 min 38 sec) 
Heartbeat CPU 4 instructions: 790000002 cycles: 779309108 heartbeat IPC: 0.79099 cumulative IPC: 1.004 (Simulation time: 5 hr 34 min 4 sec) 
Heartbeat CPU 1 instructions: 780000000 cycles: 781796818 heartbeat IPC: 0.952511 cumulative IPC: 0.978371 (Simulation time: 5 hr 34 min 58 sec) 
Heartbeat CPU 5 instructions: 780000000 cycles: 784693540 heartbeat IPC: 1.05603 cumulative IPC: 0.974208 (Simulation time: 5 hr 35 min 56 sec) 
Heartbeat CPU 2 instructions: 1200000000 cycles: 784749587 heartbeat IPC: 1.49974 cumulative IPC: 1.49976 (Simulation time: 5 hr 35 min 57 sec) 
Heartbeat CPU 7 instructions: 490000000 cycles: 787290475 heartbeat IPC: 0.203891 cumulative IPC: 0.599402 (Simulation time: 5 hr 36 min 48 sec) 
Heartbeat CPU 3 instructions: 290000002 cycles: 790765776 heartbeat IPC: 0.327296 cumulative IPC: 0.341359 (Simulation time: 5 hr 37 min 58 sec) 
Heartbeat CPU 2 instructions: 1210000001 cycles: 791097143 heartbeat IPC: 1.57541 cumulative IPC: 1.50038 (Simulation time: 5 hr 38 min 5 sec) 
Heartbeat CPU 4 instructions: 800000000 cycles: 791491825 heartbeat IPC: 0.820835 cumulative IPC: 1.00112 (Simulation time: 5 hr 38 min 12 sec) 
Heartbeat CPU 1 instructions: 790000001 cycles: 792388967 heartbeat IPC: 0.944096 cumulative IPC: 0.977904 (Simulation time: 5 hr 38 min 31 sec) 
Heartbeat CPU 5 instructions: 790000000 cycles: 794161563 heartbeat IPC: 1.05619 cumulative IPC: 0.975204 (Simulation time: 5 hr 39 min 9 sec) 
Heartbeat CPU 0 instructions: 670000000 cycles: 796890369 heartbeat IPC: 0.531813 cumulative IPC: 0.80584 (Simulation time: 5 hr 40 min 6 sec) 
Heartbeat CPU 2 instructions: 1220000000 cycles: 797272732 heartbeat IPC: 1.61928 cumulative IPC: 1.50132 (Simulation time: 5 hr 40 min 14 sec) 
Heartbeat CPU 1 instructions: 800000000 cycles: 802899496 heartbeat IPC: 0.951427 cumulative IPC: 0.977551 (Simulation time: 5 hr 42 min 13 sec) 
Heartbeat CPU 4 instructions: 810000003 cycles: 803090467 heartbeat IPC: 0.86217 cumulative IPC: 0.99908 (Simulation time: 5 hr 42 min 17 sec) 
Heartbeat CPU 5 instructions: 800000000 cycles: 803692812 heartbeat IPC: 1.04918 cumulative IPC: 0.976097 (Simulation time: 5 hr 42 min 30 sec) 
Heartbeat CPU 2 instructions: 1230000003 cycles: 804034253 heartbeat IPC: 1.47896 cumulative IPC: 1.50113 (Simulation time: 5 hr 42 min 37 sec) 
Heartbeat CPU 2 instructions: 1240000000 cycles: 810820759 heartbeat IPC: 1.47351 cumulative IPC: 1.50089 (Simulation time: 5 hr 45 min 2 sec) 
Heartbeat CPU 4 instructions: 820000000 cycles: 812937549 heartbeat IPC: 1.01553 cumulative IPC: 0.999283 (Simulation time: 5 hr 45 min 45 sec) 
Heartbeat CPU 1 instructions: 810000000 cycles: 813608120 heartbeat IPC: 0.933827 cumulative IPC: 0.976965 (Simulation time: 5 hr 46 min 0 sec) 
Heartbeat CPU 5 instructions: 810000000 cycles: 813837637 heartbeat IPC: 0.985724 cumulative IPC: 0.97622 (Simulation time: 5 hr 46 min 5 sec) 
Heartbeat CPU 0 instructions: 680000000 cycles: 815655937 heartbeat IPC: 0.532891 cumulative IPC: 0.799445 (Simulation time: 5 hr 46 min 44 sec) 
Heartbeat CPU 2 instructions: 1250000000 cycles: 817375645 heartbeat IPC: 1.52558 cumulative IPC: 1.50109 (Simulation time: 5 hr 47 min 21 sec) 
Heartbeat CPU 4 instructions: 830000000 cycles: 822888492 heartbeat IPC: 1.00493 cumulative IPC: 0.999352 (Simulation time: 5 hr 49 min 13 sec) 
Heartbeat CPU 5 instructions: 820000000 cycles: 824002954 heartbeat IPC: 0.983737 cumulative IPC: 0.976314 (Simulation time: 5 hr 49 min 35 sec) 
Heartbeat CPU 2 instructions: 1260000000 cycles: 824125303 heartbeat IPC: 1.48156 cumulative IPC: 1.50093 (Simulation time: 5 hr 49 min 38 sec) 
Heartbeat CPU 1 instructions: 820000000 cycles: 824311853 heartbeat IPC: 0.934254 cumulative IPC: 0.9764 (Simulation time: 5 hr 49 min 41 sec) 
Heartbeat CPU 3 instructions: 300000000 cycles: 829268550 heartbeat IPC: 0.259721 cumulative IPC: 0.3375 (Simulation time: 5 hr 51 min 22 sec) 
Heartbeat CPU 2 instructions: 1270000002 cycles: 831444094 heartbeat IPC: 1.36635 cumulative IPC: 1.49972 (Simulation time: 5 hr 52 min 6 sec) 
Heartbeat CPU 4 instructions: 840000000 cycles: 833012095 heartbeat IPC: 0.987791 cumulative IPC: 0.999209 (Simulation time: 5 hr 52 min 40 sec) 
Heartbeat CPU 0 instructions: 690000001 cycles: 834396314 heartbeat IPC: 0.533607 cumulative IPC: 0.793367 (Simulation time: 5 hr 53 min 9 sec) 
Heartbeat CPU 1 instructions: 830000000 cycles: 834727952 heartbeat IPC: 0.960052 cumulative IPC: 0.976192 (Simulation time: 5 hr 53 min 17 sec) 
[...]
L2C WRITEBACK ACCESS:    1132624  HIT:    1127609  MISS:       5015
LLC TOTAL     ACCESS:   52692610  HIT:   37012271  MISS:   15680339
LLC LOAD      ACCESS:    8591706  HIT:    7892104  MISS:     699602
LLC RFO       ACCESS:     335892  HIT:          8  MISS:     335884
LLC PREFETCH  ACCESS:   42747852  HIT:   28103299  MISS:   14644553
LLC WRITEBACK ACCESS:    1017160  HIT:    1016860  MISS:        300

CPU 5 cumulative IPC: 0.96979 instructions: 819449663 cycles: 844975996
L1D TOTAL     ACCESS:  247442375  HIT:  238299705  MISS:    9142670
L1D LOAD      ACCESS:  226472954  HIT:  219598686  MISS:    6874268
L1D RFO       ACCESS:   20969421  HIT:   18701019  MISS:    2268402
L1D PREFETCH  ACCESS:          0  HIT:          0  MISS:          0
L1D WRITEBACK ACCESS:          0  HIT:          0  MISS:          0
L1I TOTAL     ACCESS:  192024474  HIT:  192023488  MISS:        986
L1I LOAD      ACCESS:  192024474  HIT:  192023488  MISS:        986
L1I RFO       ACCESS:          0  HIT:          0  MISS:          0
L1I PREFETCH  ACCESS:          0  HIT:          0  MISS:          0
L1I WRITEBACK ACCESS:          0  HIT:          0  MISS:          0
L2C TOTAL     ACCESS:   19727540  HIT:   13063332  MISS:    6664208
L2C LOAD      ACCESS:    6875216  HIT:    4406719  MISS:    2468497
L2C RFO       ACCESS:    2267658  HIT:     734994  MISS:    1532664
L2C PREFETCH  ACCESS:    7595551  HIT:    4934939  MISS:    2660612
L2C WRITEBACK ACCESS:    2989115  HIT:    2986680  MISS:       2435
LLC TOTAL     ACCESS:   26585270  HIT:   20834099  MISS:    5751171
LLC LOAD      ACCESS:    2310531  HIT:    2142308  MISS:     168223
LLC RFO       ACCESS:    1532660  HIT:     178948  MISS:    1353712
LLC PREFETCH  ACCESS:   20749363  HIT:   16526525  MISS:    4222838
LLC WRITEBACK ACCESS:    1992716  HIT:    1986318  MISS:       6398

CPU 6 cumulative IPC: 0.118347 instructions: 100000001 cycles: 844975996
L1D TOTAL     ACCESS:   39757285  HIT:   34512806  MISS:    5244479
L1D LOAD      ACCESS:   27089045  HIT:   23613918  MISS:    3475127
L1D RFO       ACCESS:   12668240  HIT:   10898888  MISS:    1769352
L1D PREFETCH  ACCESS:          0  HIT:          0  MISS:          0
L1D WRITEBACK ACCESS:          0  HIT:          0  MISS:          0
L1I TOTAL     ACCESS:   24644949  HIT:   24644935  MISS:         14
L1I LOAD      ACCESS:   24644949  HIT:   24644935  MISS:         14
L1I RFO       ACCESS:          0  HIT:          0  MISS:          0
L1I PREFETCH  ACCESS:          0  HIT:          0  MISS:          0
L1I WRITEBACK ACCESS:          0  HIT:          0  MISS:          0
L2C TOTAL     ACCESS:    8695155  HIT:    4897021  MISS:    3798134
L2C LOAD      ACCESS:    3475139  HIT:    1504975  MISS:    1970164
L2C RFO       ACCESS:    1769352  HIT:      92344  MISS:    1677008
L2C PREFETCH  ACCESS:     892913  HIT:     742086  MISS:     150827
L2C WRITEBACK ACCESS:    2557751  HIT:    2557616  MISS:        135
LLC TOTAL     ACCESS:   10168338  HIT:    4721325  MISS:    5447013
LLC LOAD      ACCESS:    1947238  HIT:     571720  MISS:    1375518
LLC RFO       ACCESS:    1677008  HIT:      64817  MISS:    1612191
LLC PREFETCH  ACCESS:    4079913  HIT:    1631785  MISS:    2448128
LLC WRITEBACK ACCESS:    2464179  HIT:    2453003  MISS:      11176

CPU 7 cumulative IPC: 0.563563 instructions: 476197387 cycles: 844975997
L1D TOTAL     ACCESS:  174165684  HIT:  169341670  MISS:    4824014
L1D LOAD      ACCESS:   88541859  HIT:   83791573  MISS:    4750286
L1D RFO       ACCESS:   85623825  HIT:   85550097  MISS:      73728
L1D PREFETCH  ACCESS:          0  HIT:          0  MISS:          0
L1D WRITEBACK ACCESS:          0  HIT:          0  MISS:          0
L1I TOTAL     ACCESS:  174466468  HIT:  174466431  MISS:         37
L1I LOAD      ACCESS:  174466468  HIT:  174466431  MISS:         37
L1I RFO       ACCESS:          0  HIT:          0  MISS:          0
L1I PREFETCH  ACCESS:          0  HIT:          0  MISS:          0
L1I WRITEBACK ACCESS:          0  HIT:          0  MISS:          0
L2C TOTAL     ACCESS:    9879555  HIT:    9032787  MISS:     846768
L2C LOAD      ACCESS:    4750317  HIT:    4002620  MISS:     747697
L2C RFO       ACCESS:      73728  HIT:       7750  MISS:      65978
L2C PREFETCH  ACCESS:    4750310  HIT:    4717559  MISS:      32751
L2C WRITEBACK ACCESS:     305200  HIT:     304858  MISS:        342
LLC TOTAL     ACCESS:    2739318  HIT:    1550864  MISS:    1188454
LLC LOAD      ACCESS:     744812  HIT:     300459  MISS:     444353
LLC RFO       ACCESS:      65977  HIT:        765  MISS:      65212
LLC PREFETCH  ACCESS:    1730161  HIT:    1086271  MISS:     643890
LLC WRITEBACK ACCESS:     198368  HIT:     163369  MISS:      34999

Region of Interest Statistics

CPU 0 cumulative IPC: 1.46629 instructions: 100000001 cycles: 68199221
L1D TOTAL     ACCESS:   19755643  HIT:   18860479  MISS:     895164
L1D LOAD      ACCESS:   16041544  HIT:   15338057  MISS:     703487
L1D RFO       ACCESS:    3714099  HIT:    3522422  MISS:     191677
L1D PREFETCH  ACCESS:          0  HIT:          0  MISS:          0
L1D WRITEBACK ACCESS:          0  HIT:          0  MISS:          0
L1D PREFETCH  REQUESTED:          0  ISSUED:          0  USEFUL:          0  USELESS:          0
L1I TOTAL     ACCESS:   20633229  HIT:   20633045  MISS:        184
L1I LOAD      ACCESS:   20633229  HIT:   20633045  MISS:        184
L1I RFO       ACCESS:          0  HIT:          0  MISS:          0
L1I PREFETCH  ACCESS:          0  HIT:          0  MISS:          0
L1I WRITEBACK ACCESS:          0  HIT:          0  MISS:          0
L1I PREFETCH  REQUESTED:          0  ISSUED:          0  USEFUL:          0  USELESS:          0
L2C TOTAL     ACCESS:    2553094  HIT:    1988282  MISS:     564812
L2C LOAD      ACCESS:     703664  HIT:     503546  MISS:     200118
L2C RFO       ACCESS:     191677  HIT:      76260  MISS:     115417
L2C PREFETCH  ACCESS:    1325618  HIT:    1076385  MISS:     249233
L2C WRITEBACK ACCESS:     332135  HIT:     332091  MISS:         44
L2C PREFETCH  REQUESTED:   15111337  ISSUED:   15106067  USEFUL:    1241422  USELESS:       6226
LLC TOTAL     ACCESS:    2295885  HIT:    1770098  MISS:     525787
LLC LOAD      ACCESS:     175377  HIT:     155483  MISS:      19894
LLC RFO       ACCESS:     115417  HIT:      23957  MISS:      91460
LLC PREFETCH  ACCESS:    1764157  HIT:    1351254  MISS:     412903
LLC WRITEBACK ACCESS:     240934  HIT:     239404  MISS:       1530
LLC PREFETCH  REQUESTED:          0  ISSUED:          0  USEFUL:   16514254  USELESS:   19906328
Major fault: 0 Minor fault: 16752

CPU 1 cumulative IPC: 1.03139 instructions: 100000003 cycles: 96956612
L1D TOTAL     ACCESS:   30311413  HIT:   28898591  MISS:    1412822
L1D LOAD      ACCESS:   26500885  HIT:   25355102  MISS:    1145783
L1D RFO       ACCESS:    3810528  HIT:    3543489  MISS:     267039
L1D PREFETCH  ACCESS:          0  HIT:          0  MISS:          0
L1D WRITEBACK ACCESS:          0  HIT:          0  MISS:          0
L1D PREFETCH  REQUESTED:          0  ISSUED:          0  USEFUL:          0  USELESS:          0
L1I TOTAL     ACCESS:   23560916  HIT:   23560916  MISS:          0
L1I LOAD      ACCESS:   23560916  HIT:   23560916  MISS:          0
L1I RFO       ACCESS:          0  HIT:          0  MISS:          0
L1I PREFETCH  ACCESS:          0  HIT:          0  MISS:          0
L1I WRITEBACK ACCESS:          0  HIT:          0  MISS:          0
L1I PREFETCH  REQUESTED:          0  ISSUED:          0  USEFUL:          0  USELESS:          0
L2C TOTAL     ACCESS:    3526804  HIT:    2831592  MISS:     695212
L2C LOAD      ACCESS:    1145773  HIT:     774405  MISS:     371368
L2C RFO       ACCESS:     266637  HIT:     216838  MISS:      49799
L2C PREFETCH  ACCESS:    1694021  HIT:    1421066  MISS:     272955
L2C WRITEBACK ACCESS:     420373  HIT:     419283  MISS:       1090
L2C PREFETCH  REQUESTED:   29212610  ISSUED:   29204287  USEFUL:    2714257  USELESS:      25011
LLC TOTAL     ACCESS:    2992093  HIT:    2632293  MISS:     359800
LLC LOAD      ACCESS:     353372  HIT:     339227  MISS:      14145
LLC RFO       ACCESS:      49797  HIT:      49677  MISS:        120
LLC PREFETCH  ACCESS:    2418817  HIT:    2075265  MISS:     343552
LLC WRITEBACK ACCESS:     170107  HIT:     168124  MISS:       1983
LLC PREFETCH  REQUESTED:          0  ISSUED:          0  USEFUL:   16514254  USELESS:   19906328
Major fault: 0 Minor fault: 19219

CPU 2 cumulative IPC: 1.43766 instructions: 100000000 cycles: 69557673
L1D TOTAL     ACCESS:   18085545  HIT:   16772280  MISS:    1313265
L1D LOAD      ACCESS:   14372602  HIT:   13092620  MISS:    1279982
L1D RFO       ACCESS:    3712943  HIT:    3679660  MISS:      33283
L1D PREFETCH  ACCESS:          0  HIT:          0  MISS:          0
L1D WRITEBACK ACCESS:          0  HIT:          0  MISS:          0
L1D PREFETCH  REQUESTED:          0  ISSUED:          0  USEFUL:          0  USELESS:          0
L1I TOTAL     ACCESS:   21537069  HIT:   21536604  MISS:        465
L1I LOAD      ACCESS:   21537069  HIT:   21536604  MISS:        465
L1I RFO       ACCESS:          0  HIT:          0  MISS:          0
L1I PREFETCH  ACCESS:          0  HIT:          0  MISS:          0
L1I WRITEBACK ACCESS:          0  HIT:          0  MISS:          0
L1I PREFETCH  REQUESTED:          0  ISSUED:          0  USEFUL:          0  USELESS:          0
L2C TOTAL     ACCESS:    2748747  HIT:    1645922  MISS:    1102825
L2C LOAD      ACCESS:    1280447  HIT:     377102  MISS:     903345
L2C RFO       ACCESS:      33283  HIT:        985  MISS:      32298
L2C PREFETCH  ACCESS:    1023707  HIT:     863255  MISS:     160452
L2C WRITEBACK ACCESS:     411310  HIT:     404580  MISS:       6730
L2C PREFETCH  REQUESTED:   57005133  ISSUED:   57005078  USEFUL:    1352218  USELESS:      35476
LLC TOTAL     ACCESS:    3378412  HIT:    3252771  MISS:     125641
LLC LOAD      ACCESS:     812721  HIT:     785381  MISS:      27340
LLC RFO       ACCESS:      32298  HIT:      21363  MISS:      10935
LLC PREFETCH  ACCESS:    2188411  HIT:    2102000  MISS:      86411
LLC WRITEBACK ACCESS:     344982  HIT:     344027  MISS:        955
LLC PREFETCH  REQUESTED:          0  ISSUED:          0  USEFUL:   16514254  USELESS:   19906328
Major fault: 0 Minor fault: 4249

CPU 3 cumulative IPC: 0.341189 instructions: 100000000 cycles: 293092851
L1D TOTAL     ACCESS:   37229189  HIT:   34419770  MISS:    2809419
L1D LOAD      ACCESS:   13022373  HIT:   10213475  MISS:    2808898
L1D RFO       ACCESS:   24206816  HIT:   24206295  MISS:        521
L1D PREFETCH  ACCESS:          0  HIT:          0  MISS:          0
L1D WRITEBACK ACCESS:          0  HIT:          0  MISS:          0
L1D PREFETCH  REQUESTED:          0  ISSUED:          0  USEFUL:          0  USELESS:          0
L1I TOTAL     ACCESS:   25215625  HIT:   25215625  MISS:          0
L1I LOAD      ACCESS:   25215625  HIT:   25215625  MISS:          0
L1I RFO       ACCESS:          0  HIT:          0  MISS:          0
L1I PREFETCH  ACCESS:          0  HIT:          0  MISS:          0
L1I WRITEBACK ACCESS:          0  HIT:          0  MISS:          0
L1I PREFETCH  REQUESTED:          0  ISSUED:          0  USEFUL:          0  USELESS:          0
L2C TOTAL     ACCESS:    4737269  HIT:    1989912  MISS:    2747357
L2C LOAD      ACCESS:    2808587  HIT:     289073  MISS:    2519514
L2C RFO       ACCESS:        521  HIT:        451  MISS:         70
L2C PREFETCH  ACCESS:     648761  HIT:     423633  MISS:     225128
L2C WRITEBACK ACCESS:    1279400  HIT:    1276755  MISS:       2645
L2C PREFETCH  REQUESTED:   23623635  ISSUED:   23623627  USEFUL:     735584  USELESS:      50901
LLC TOTAL     ACCESS:    7333816  HIT:    3916307  MISS:    3417509
LLC LOAD      ACCESS:    2415188  HIT:     914976  MISS:    1500212
LLC RFO       ACCESS:         70  HIT:         51  MISS:         19
LLC PREFETCH  ACCESS:    3697257  HIT:    1780297  MISS:    1916960
LLC WRITEBACK ACCESS:    1221301  HIT:    1220983  MISS:        318
LLC PREFETCH  REQUESTED:          0  ISSUED:          0  USEFUL:   16514254  USELESS:   19906328
Major fault: 0 Minor fault: 293851

CPU 4 cumulative IPC: 1.03405 instructions: 100000000 cycles: 96707143
L1D TOTAL     ACCESS:   48663699  HIT:   46651113  MISS:    2012586
L1D LOAD      ACCESS:   41262946  HIT:   39301306  MISS:    1961640
L1D RFO       ACCESS:    7400753  HIT:    7349807  MISS:      50946
L1D PREFETCH  ACCESS:          0  HIT:          0  MISS:          0
L1D WRITEBACK ACCESS:          0  HIT:          0  MISS:          0
L1D PREFETCH  REQUESTED:          0  ISSUED:          0  USEFUL:          0  USELESS:          0
L1I TOTAL     ACCESS:   23560676  HIT:   23560676  MISS:          0
L1I LOAD      ACCESS:   23560676  HIT:   23560676  MISS:          0
L1I RFO       ACCESS:          0  HIT:          0  MISS:          0
L1I PREFETCH  ACCESS:          0  HIT:          0  MISS:          0
L1I WRITEBACK ACCESS:          0  HIT:          0  MISS:          0
L1I PREFETCH  REQUESTED:          0  ISSUED:          0  USEFUL:          0  USELESS:          0
L2C TOTAL     ACCESS:    3006102  HIT:    1169966  MISS:    1836136
L2C LOAD      ACCESS:    1961082  HIT:     745092  MISS:    1215990
L2C RFO       ACCESS:      50670  HIT:       3616  MISS:      47054
L2C PREFETCH  ACCESS:     935107  HIT:     362688  MISS:     572419
L2C WRITEBACK ACCESS:      59243  HIT:      58570  MISS:        673
L2C PREFETCH  REQUESTED:   78320330  ISSUED:   64671284  USEFUL:    5607886  USELESS:        329
LLC TOTAL     ACCESS:    5850130  HIT:    4028153  MISS:    1821977
LLC LOAD      ACCESS:    1064196  HIT:     982721  MISS:      81475
LLC RFO       ACCESS:      47054  HIT:          0  MISS:      47054
LLC PREFETCH  ACCESS:    4691150  HIT:    2997750  MISS:    1693400
LLC WRITEBACK ACCESS:      47730  HIT:      47682  MISS:         48
LLC PREFETCH  REQUESTED:          0  ISSUED:          0  USEFUL:   16514254  USELESS:   19906328
Major fault: 0 Minor fault: 108279

CPU 5 cumulative IPC: 1.06149 instructions: 100000001 cycles: 94207088
L1D TOTAL     ACCESS:   30474902  HIT:   29346926  MISS:    1127976
L1D LOAD      ACCESS:   27021227  HIT:   26154548  MISS:     866679
L1D RFO       ACCESS:    3453675  HIT:    3192378  MISS:     261297
L1D PREFETCH  ACCESS:          0  HIT:          0  MISS:          0
L1D WRITEBACK ACCESS:          0  HIT:          0  MISS:          0
L1D PREFETCH  REQUESTED:          0  ISSUED:          0  USEFUL:          0  USELESS:          0
L1I TOTAL     ACCESS:   24004808  HIT:   24004808  MISS:          0
L1I LOAD      ACCESS:   24004808  HIT:   24004808  MISS:          0
L1I RFO       ACCESS:          0  HIT:          0  MISS:          0
L1I PREFETCH  ACCESS:          0  HIT:          0  MISS:          0
L1I WRITEBACK ACCESS:          0  HIT:          0  MISS:          0
L1I PREFETCH  REQUESTED:          0  ISSUED:          0  USEFUL:          0  USELESS:          0
L2C TOTAL     ACCESS:    2789461  HIT:    2227001  MISS:     562460
L2C LOAD      ACCESS:     866672  HIT:     622934  MISS:     243738
L2C RFO       ACCESS:     261291  HIT:     170845  MISS:      90446
L2C PREFETCH  ACCESS:    1303866  HIT:    1075596  MISS:     228270
L2C WRITEBACK ACCESS:     357632  HIT:     357626  MISS:          6
L2C PREFETCH  REQUESTED:   28992451  ISSUED:   28984556  USEFUL:    2702908  USELESS:      25673
LLC TOTAL     ACCESS:    2287752  HIT:    1723941  MISS:     563811
LLC LOAD      ACCESS:     235721  HIT:     218516  MISS:      17205
LLC RFO       ACCESS:      90446  HIT:         96  MISS:      90350
LLC PREFETCH  ACCESS:    1871248  HIT:    1415214  MISS:     456034
LLC WRITEBACK ACCESS:      90337  HIT:      90115  MISS:        222
LLC PREFETCH  REQUESTED:          0  ISSUED:          0  USEFUL:   16514254  USELESS:   19906328
Major fault: 0 Minor fault: 19881

CPU 6 cumulative IPC: 0.118347 instructions: 100000001 cycles: 844975996
L1D TOTAL     ACCESS:   39757285  HIT:   34512806  MISS:    5244479
L1D LOAD      ACCESS:   27089045  HIT:   23613918  MISS:    3475127
L1D RFO       ACCESS:   12668240  HIT:   10898888  MISS:    1769352
L1D PREFETCH  ACCESS:          0  HIT:          0  MISS:          0
L1D WRITEBACK ACCESS:          0  HIT:          0  MISS:          0
L1D PREFETCH  REQUESTED:          0  ISSUED:          0  USEFUL:          0  USELESS:          0
L1I TOTAL     ACCESS:   24644949  HIT:   24644935  MISS:         14
L1I LOAD      ACCESS:   24644949  HIT:   24644935  MISS:         14
L1I RFO       ACCESS:          0  HIT:          0  MISS:          0
L1I PREFETCH  ACCESS:          0  HIT:          0  MISS:          0
L1I WRITEBACK ACCESS:          0  HIT:          0  MISS:          0
L1I PREFETCH  REQUESTED:          0  ISSUED:          0  USEFUL:          0  USELESS:          0
L2C TOTAL     ACCESS:    8695155  HIT:    4897021  MISS:    3798134
L2C LOAD      ACCESS:    3475139  HIT:    1504975  MISS:    1970164
L2C RFO       ACCESS:    1769352  HIT:      92344  MISS:    1677008
L2C PREFETCH  ACCESS:     892913  HIT:     742086  MISS:     150827
L2C WRITEBACK ACCESS:    2557751  HIT:    2557616  MISS:        135
L2C PREFETCH  REQUESTED:    6441409  ISSUED:    6441409  USEFUL:     129927  USELESS:      61686
LLC TOTAL     ACCESS:   10168338  HIT:    4721325  MISS:    5447013
LLC LOAD      ACCESS:    1947238  HIT:     571720  MISS:    1375518
LLC RFO       ACCESS:    1677008  HIT:      64817  MISS:    1612191
LLC PREFETCH  ACCESS:    4079913  HIT:    1631785  MISS:    2448128
LLC WRITEBACK ACCESS:    2464179  HIT:    2453003  MISS:      11176
LLC PREFETCH  REQUESTED:          0  ISSUED:          0  USEFUL:   16514254  USELESS:   19906328
Major fault: 0 Minor fault: 29959

CPU 7 cumulative IPC: 0.676632 instructions: 100000000 cycles: 147790834
L1D TOTAL     ACCESS:   36883827  HIT:   36011697  MISS:     872130
L1D LOAD      ACCESS:   18705579  HIT:   17837629  MISS:     867950
L1D RFO       ACCESS:   18178248  HIT:   18174068  MISS:       4180
L1D PREFETCH  ACCESS:          0  HIT:          0  MISS:          0
L1D WRITEBACK ACCESS:          0  HIT:          0  MISS:          0
L1D PREFETCH  REQUESTED:          0  ISSUED:          0  USEFUL:          0  USELESS:          0
L1I TOTAL     ACCESS:   37412310  HIT:   37412308  MISS:          2
L1I LOAD      ACCESS:   37412310  HIT:   37412308  MISS:          2
L1I RFO       ACCESS:          0  HIT:          0  MISS:          0
L1I PREFETCH  ACCESS:          0  HIT:          0  MISS:          0
L1I WRITEBACK ACCESS:          0  HIT:          0  MISS:          0
L1I PREFETCH  REQUESTED:          0  ISSUED:          0  USEFUL:          0  USELESS:          0
L2C TOTAL     ACCESS:    1765823  HIT:    1741048  MISS:      24775
L2C LOAD      ACCESS:     867952  HIT:     847007  MISS:      20945
L2C RFO       ACCESS:       4180  HIT:       1069  MISS:       3111
L2C PREFETCH  ACCESS:     869612  HIT:     868894  MISS:        718
L2C WRITEBACK ACCESS:      24079  HIT:      24078  MISS:          1
L2C PREFETCH  REQUESTED:    7010817  ISSUED:    7010694  USEFUL:      16168  USELESS:      16864
LLC TOTAL     ACCESS:     280182  HIT:     232115  MISS:      48067
LLC LOAD      ACCESS:      20941  HIT:       4639  MISS:      16302
LLC RFO       ACCESS:       3111  HIT:         52  MISS:       3059
LLC PREFETCH  ACCESS:     248510  HIT:     227379  MISS:      21131
LLC WRITEBACK ACCESS:       7620  HIT:         45  MISS:       7575
LLC PREFETCH  REQUESTED:          0  ISSUED:          0  USEFUL:   16514254  USELESS:   19906328
Major fault: 0 Minor fault: 10467

DRAM Statistics
 CHANNEL 0
 RQ ROW_BUFFER_HIT:    7709722  ROW_BUFFER_MISS:   16587129
 DBUS_CONGESTED:   43317502
 WQ ROW_BUFFER_HIT:     405643  ROW_BUFFER_MISS:    5849431  FULL:          0

 CHANNEL 1
 RQ ROW_BUFFER_HIT:    7476759  ROW_BUFFER_MISS:   16197445
 DBUS_CONGESTED:   43317502
 WQ ROW_BUFFER_HIT:     414097  ROW_BUFFER_MISS:    5823807  FULL:          0

 AVG_CONGESTED_CYCLE: 13
