Initialize SIGNATURE TABLE
ST_SET: 1
ST_WAY: 256
ST_TAG_BIT: 16
ST_TAG_MASK: ffff

Initialize PATTERN TABLE
PT_SET: 512
PT_WAY: 4
SIG_DELTA_BIT: 7
C_SIG_BIT: 4
C_DELTA_BIT: 4

Initialize PREFETCH FILTER
FILTER_SET: 1024

*** ChampSim Multicore Out-of-Order Simulator ***

Warmup Instructions: 20000000
Simulation Instructions: 100000000
Number of CPUs: 8
LLC sets: 16384
LLC ways: 16
Off-chip DRAM Size: 8192 MB Channels: 2 Width: 64-bit Data Rate: 1600 MT/s

CPU 0 runs /scratch/user/djimenez/champsim-traces/speccpu2006/xz/401.bzip2-277B.champsimtrace.xz
CPU 1 runs /scratch/user/djimenez/champsim-traces/speccpu2006/xz/459.GemsFDTD-1320B.champsimtrace.xz
CPU 2 runs /scratch/user/djimenez/champsim-traces/speccpu2006/xz/459.GemsFDTD-1211B.champsimtrace.xz
CPU 3 runs /scratch/user/djimenez/champsim-traces/speccpu2006/xz/482.sphinx3-234B.champsimtrace.xz
CPU 4 runs /scratch/user/djimenez/champsim-traces/speccpu2006/xz/483.xalancbmk-127B.champsimtrace.xz
CPU 5 runs /scratch/user/djimenez/champsim-traces/speccpu2006/xz/454.calculix-460B.champsimtrace.xz
CPU 6 runs /scratch/user/djimenez/champsim-traces/speccpu2006/xz/433.milc-274B.champsimtrace.xz
CPU 7 runs /scratch/user/djimenez/champsim-traces/speccpu2006/xz/462.libquantum-1343B.champsimtrace.xz
Heartbeat CPU 5 instructions: 10000000 cycles: 3329883 heartbeat IPC: 3.00311 cumulative IPC: 3.00311 (Simulation time: 0 hr 3 min 6 sec) 
Heartbeat CPU 0 instructions: 10000001 cycles: 3341275 heartbeat IPC: 2.99287 cumulative IPC: 2.99287 (Simulation time: 0 hr 3 min 7 sec) 
Heartbeat CPU 6 instructions: 10000002 cycles: 3380045 heartbeat IPC: 2.95854 cumulative IPC: 2.95854 (Simulation time: 0 hr 3 min 9 sec) 
Heartbeat CPU 3 instructions: 10000003 cycles: 3880156 heartbeat IPC: 2.57722 cumulative IPC: 2.57722 (Simulation time: 0 hr 3 min 37 sec) 
Heartbeat CPU 4 instructions: 10000002 cycles: 4554109 heartbeat IPC: 2.19582 cumulative IPC: 2.19582 (Simulation time: 0 hr 4 min 15 sec) 
Heartbeat CPU 7 instructions: 10000002 cycles: 5008515 heartbeat IPC: 1.9966 cumulative IPC: 1.9966 (Simulation time: 0 hr 4 min 40 sec) 
Heartbeat CPU 5 instructions: 20000000 cycles: 6553202 heartbeat IPC: 3.10239 cumulative IPC: 3.05194 (Simulation time: 0 hr 6 min 6 sec) 
Heartbeat CPU 1 instructions: 10000000 cycles: 6693817 heartbeat IPC: 1.49392 cumulative IPC: 1.49392 (Simulation time: 0 hr 6 min 14 sec) 
Heartbeat CPU 6 instructions: 20000000 cycles: 6759996 heartbeat IPC: 2.95862 cumulative IPC: 2.95858 (Simulation time: 0 hr 6 min 18 sec) 
Heartbeat CPU 0 instructions: 20000000 cycles: 6933664 heartbeat IPC: 2.78366 cumulative IPC: 2.88448 (Simulation time: 0 hr 6 min 27 sec) 
Heartbeat CPU 3 instructions: 20000000 cycles: 7744911 heartbeat IPC: 2.58749 cumulative IPC: 2.58234 (Simulation time: 0 hr 7 min 12 sec) 
Heartbeat CPU 2 instructions: 10000000 cycles: 8098063 heartbeat IPC: 1.23486 cumulative IPC: 1.23486 (Simulation time: 0 hr 7 min 32 sec) 
Heartbeat CPU 4 instructions: 20000000 cycles: 9099629 heartbeat IPC: 2.19997 cumulative IPC: 2.19789 (Simulation time: 0 hr 8 min 27 sec) 
Heartbeat CPU 5 instructions: 30000001 cycles: 9853925 heartbeat IPC: 3.02964 cumulative IPC: 1.01482 (Simulation time: 0 hr 9 min 9 sec) 
Heartbeat CPU 7 instructions: 20000000 cycles: 9984346 heartbeat IPC: 2.00971 cumulative IPC: 2.00314 (Simulation time: 0 hr 9 min 16 sec) 
Heartbeat CPU 6 instructions: 30000003 cycles: 10137428 heartbeat IPC: 2.96083 cumulative IPC: 0.986444 (Simulation time: 0 hr 9 min 24 sec) 
Heartbeat CPU 3 instructions: 30000000 cycles: 11684355 heartbeat IPC: 2.53843 cumulative IPC: 0.855845 (Simulation time: 0 hr 10 min 50 sec) 
Heartbeat CPU 0 instructions: 30000002 cycles: 11891640 heartbeat IPC: 2.01695 cumulative IPC: 0.840927 (Simulation time: 0 hr 11 min 2 sec) 
Heartbeat CPU 5 instructions: 40000000 cycles: 13082282 heartbeat IPC: 3.09755 cumulative IPC: 1.52879 (Simulation time: 0 hr 12 min 7 sec) 
Heartbeat CPU 1 instructions: 20000000 cycles: 13434991 heartbeat IPC: 1.48342 cumulative IPC: 1.48865 (Simulation time: 0 hr 12 min 26 sec) 
Heartbeat CPU 6 instructions: 40000000 cycles: 13514023 heartbeat IPC: 2.96156 cumulative IPC: 1.47994 (Simulation time: 0 hr 12 min 31 sec) 
Heartbeat CPU 4 instructions: 30000002 cycles: 13677444 heartbeat IPC: 2.18445 cumulative IPC: 0.731131 (Simulation time: 0 hr 12 min 40 sec) 
Heartbeat CPU 7 instructions: 30000000 cycles: 15170011 heartbeat IPC: 1.92839 cumulative IPC: 0.659195 (Simulation time: 0 hr 14 min 25 sec) 
Heartbeat CPU 3 instructions: 40000000 cycles: 15472077 heartbeat IPC: 2.64011 cumulative IPC: 1.29265 (Simulation time: 0 hr 14 min 40 sec) 
Heartbeat CPU 2 instructions: 20000000 cycles: 16196201 heartbeat IPC: 1.23485 cumulative IPC: 1.23486 (Simulation time: 0 hr 15 min 16 sec) 

Warmup complete CPU 0 instructions: 38675911 cycles: 16196219 (Simulation time: 0 hr 15 min 16 sec) 
Warmup complete CPU 1 instructions: 24087224 cycles: 16196219 (Simulation time: 0 hr 15 min 16 sec) 
Warmup complete CPU 2 instructions: 20000001 cycles: 16196219 (Simulation time: 0 hr 15 min 16 sec) 
Warmup complete CPU 3 instructions: 41914340 cycles: 16196218 (Simulation time: 0 hr 15 min 16 sec) 
Warmup complete CPU 4 instructions: 35624637 cycles: 16196218 (Simulation time: 0 hr 15 min 16 sec) 
Warmup complete CPU 5 instructions: 49554745 cycles: 16196218 (Simulation time: 0 hr 15 min 16 sec) 
Warmup complete CPU 6 instructions: 47941266 cycles: 16196218 (Simulation time: 0 hr 15 min 16 sec) 
Warmup complete CPU 7 instructions: 31912858 cycles: 16196218 (Simulation time: 0 hr 15 min 16 sec) 

Heartbeat CPU 5 instructions: 50000001 cycles: 16407786 heartbeat IPC: 3.00706 cumulative IPC: 2.10455 (Simulation time: 0 hr 15 min 21 sec) 
Heartbeat CPU 0 instructions: 40000000 cycles: 17814574 heartbeat IPC: 1.68835 cumulative IPC: 0.81817 (Simulation time: 0 hr 15 min 54 sec) 
Heartbeat CPU 6 instructions: 50000000 cycles: 19181879 heartbeat IPC: 1.76434 cumulative IPC: 0.68954 (Simulation time: 0 hr 16 min 27 sec) 
Heartbeat CPU 5 instructions: 60000000 cycles: 21941814 heartbeat IPC: 1.807 cumulative IPC: 1.81796 (Simulation time: 0 hr 17 min 29 sec) 
Heartbeat CPU 1 instructions: 30000000 cycles: 24421165 heartbeat IPC: 0.910235 cumulative IPC: 0.718883 (Simulation time: 0 hr 18 min 26 sec) 
Heartbeat CPU 3 instructions: 50000001 cycles: 25603383 heartbeat IPC: 0.98704 cumulative IPC: 0.859522 (Simulation time: 0 hr 18 min 53 sec) 
Heartbeat CPU 0 instructions: 50000000 cycles: 29414631 heartbeat IPC: 0.862065 cumulative IPC: 0.856691 (Simulation time: 0 hr 20 min 19 sec) 
Heartbeat CPU 5 instructions: 70000001 cycles: 30775804 heartbeat IPC: 1.13199 cumulative IPC: 1.40232 (Simulation time: 0 hr 20 min 51 sec) 
Heartbeat CPU 6 instructions: 60000000 cycles: 34147578 heartbeat IPC: 0.668195 cumulative IPC: 0.671745 (Simulation time: 0 hr 22 min 8 sec) 
Heartbeat CPU 4 instructions: 40000000 cycles: 34509465 heartbeat IPC: 0.48003 cumulative IPC: 0.238918 (Simulation time: 0 hr 22 min 17 sec) 
Heartbeat CPU 2 instructions: 30000001 cycles: 35349184 heartbeat IPC: 0.522112 cumulative IPC: 0.522112 (Simulation time: 0 hr 22 min 36 sec) 
Heartbeat CPU 7 instructions: 40000000 cycles: 35452552 heartbeat IPC: 0.493035 cumulative IPC: 0.419973 (Simulation time: 0 hr 22 min 38 sec) 
Heartbeat CPU 3 instructions: 60000000 cycles: 37420761 heartbeat IPC: 0.846211 cumulative IPC: 0.852111 (Simulation time: 0 hr 23 min 22 sec) 
Heartbeat CPU 1 instructions: 40000000 cycles: 38643214 heartbeat IPC: 0.703134 cumulative IPC: 0.708905 (Simulation time: 0 hr 23 min 50 sec) 
Heartbeat CPU 5 instructions: 80000000 cycles: 39951434 heartbeat IPC: 1.08984 cumulative IPC: 1.28162 (Simulation time: 0 hr 24 min 19 sec) 
Heartbeat CPU 0 instructions: 60000000 cycles: 41893882 heartbeat IPC: 0.80133 cumulative IPC: 0.829807 (Simulation time: 0 hr 24 min 59 sec) 
Heartbeat CPU 5 instructions: 90000002 cycles: 47160568 heartbeat IPC: 1.38713 cumulative IPC: 1.30619 (Simulation time: 0 hr 26 min 48 sec) 
Heartbeat CPU 3 instructions: 70000000 cycles: 51480037 heartbeat IPC: 0.711274 cumulative IPC: 0.795993 (Simulation time: 0 hr 28 min 24 sec) 
Heartbeat CPU 0 instructions: 70000000 cycles: 52575065 heartbeat IPC: 0.936226 cumulative IPC: 0.861052 (Simulation time: 0 hr 28 min 47 sec) 
Heartbeat CPU 5 instructions: 100000000 cycles: 53196029 heartbeat IPC: 1.65687 cumulative IPC: 1.36339 (Simulation time: 0 hr 28 min 59 sec) 
Heartbeat CPU 2 instructions: 40000000 cycles: 59144059 heartbeat IPC: 0.420259 cumulative IPC: 0.465681 (Simulation time: 0 hr 30 min 54 sec) 
Heartbeat CPU 6 instructions: 70000000 cycles: 59700327 heartbeat IPC: 0.391347 cumulative IPC: 0.507049 (Simulation time: 0 hr 31 min 4 sec) 
Heartbeat CPU 5 instructions: 110000002 cycles: 60691965 heartbeat IPC: 1.33406 cumulative IPC: 1.35845 (Simulation time: 0 hr 31 min 21 sec) 
Heartbeat CPU 0 instructions: 80000000 cycles: 63886012 heartbeat IPC: 0.884099 cumulative IPC: 0.866518 (Simulation time: 0 hr 32 min 18 sec) 
Heartbeat CPU 7 instructions: 50000001 cycles: 64291199 heartbeat IPC: 0.346757 cumulative IPC: 0.376071 (Simulation time: 0 hr 32 min 25 sec) 
Heartbeat CPU 3 instructions: 80000000 cycles: 64546782 heartbeat IPC: 0.765302 cumulative IPC: 0.787698 (Simulation time: 0 hr 32 min 29 sec) 
Heartbeat CPU 5 instructions: 120000000 cycles: 67737047 heartbeat IPC: 1.41943 cumulative IPC: 1.36679 (Simulation time: 0 hr 33 min 27 sec) 
Heartbeat CPU 1 instructions: 50000000 cycles: 73723091 heartbeat IPC: 0.285064 cumulative IPC: 0.450446 (Simulation time: 0 hr 35 min 19 sec) 
Heartbeat CPU 0 instructions: 90000000 cycles: 74390953 heartbeat IPC: 0.951933 cumulative IPC: 0.881937 (Simulation time: 0 hr 35 min 31 sec) 
Heartbeat CPU 5 instructions: 130000001 cycles: 74560476 heartbeat IPC: 1.46554 cumulative IPC: 1.37833 (Simulation time: 0 hr 35 min 34 sec) 
Heartbeat CPU 3 instructions: 90000000 cycles: 77597725 heartbeat IPC: 0.766228 cumulative IPC: 0.783135 (Simulation time: 0 hr 36 min 32 sec) 
Heartbeat CPU 6 instructions: 80000000 cycles: 78895872 heartbeat IPC: 0.520954 cumulative IPC: 0.511306 (Simulation time: 0 hr 36 min 57 sec) 
Heartbeat CPU 5 instructions: 140000000 cycles: 81189410 heartbeat IPC: 1.50854 cumulative IPC: 1.39161 (Simulation time: 0 hr 37 min 41 sec) 
Heartbeat CPU 0 instructions: 100000000 cycles: 86577157 heartbeat IPC: 0.8206 cumulative IPC: 0.871317 (Simulation time: 0 hr 39 min 32 sec) 
Finished CPU 5 instructions: 100000001 cycles: 70802344 cumulative IPC: 1.41238 (Simulation time: 0 hr 39 min 41 sec) 
Heartbeat CPU 5 instructions: 150000003 cycles: 87267216 heartbeat IPC: 1.64533 cumulative IPC: 1.41331 (Simulation time: 0 hr 39 min 46 sec) 
Heartbeat CPU 7 instructions: 60000000 cycles: 87491003 heartbeat IPC: 0.431038 cumulative IPC: 0.393958 (Simulation time: 0 hr 39 min 51 sec) 
Heartbeat CPU 3 instructions: 100000000 cycles: 90691994 heartbeat IPC: 0.763693 cumulative IPC: 0.779718 (Simulation time: 0 hr 40 min 54 sec) 
Heartbeat CPU 2 instructions: 50000001 cycles: 92982460 heartbeat IPC: 0.295522 cumulative IPC: 0.390695 (Simulation time: 0 hr 41 min 41 sec) 
Heartbeat CPU 5 instructions: 160000000 cycles: 93771055 heartbeat IPC: 1.53755 cumulative IPC: 1.42373 (Simulation time: 0 hr 41 min 58 sec) 
Heartbeat CPU 6 instructions: 90000001 cycles: 95730857 heartbeat IPC: 0.594001 cumulative IPC: 0.52881 (Simulation time: 0 hr 42 min 43 sec) 
Heartbeat CPU 4 instructions: 50000000 cycles: 96214744 heartbeat IPC: 0.162061 cumulative IPC: 0.17965 (Simulation time: 0 hr 42 min 53 sec) 
Heartbeat CPU 0 instructions: 110000000 cycles: 97993985 heartbeat IPC: 0.8759 cumulative IPC: 0.871956 (Simulation time: 0 hr 43 min 30 sec) 
Heartbeat CPU 5 instructions: 170000000 cycles: 100158527 heartbeat IPC: 1.56556 cumulative IPC: 1.43452 (Simulation time: 0 hr 44 min 15 sec) 
Heartbeat CPU 3 instructions: 110000003 cycles: 102717874 heartbeat IPC: 0.83154 cumulative IPC: 0.78692 (Simulation time: 0 hr 45 min 10 sec) 
Heartbeat CPU 7 instructions: 70000003 cycles: 104565994 heartbeat IPC: 0.585652 cumulative IPC: 0.430997 (Simulation time: 0 hr 45 min 50 sec) 
Heartbeat CPU 5 instructions: 180000000 cycles: 106363890 heartbeat IPC: 1.61151 cumulative IPC: 1.4467 (Simulation time: 0 hr 46 min 28 sec) 
Heartbeat CPU 0 instructions: 120000000 cycles: 109584540 heartbeat IPC: 0.862771 cumulative IPC: 0.870816 (Simulation time: 0 hr 47 min 37 sec) 
Heartbeat CPU 1 instructions: 60000000 cycles: 109681733 heartbeat IPC: 0.278097 cumulative IPC: 0.384153 (Simulation time: 0 hr 47 min 39 sec) 
Heartbeat CPU 6 instructions: 100000000 cycles: 110684913 heartbeat IPC: 0.668715 cumulative IPC: 0.550952 (Simulation time: 0 hr 48 min 1 sec) 
Heartbeat CPU 2 instructions: 60000000 cycles: 112520066 heartbeat IPC: 0.511833 cumulative IPC: 0.415266 (Simulation time: 0 hr 48 min 42 sec) 
Heartbeat CPU 5 instructions: 190000002 cycles: 112546394 heartbeat IPC: 1.61747 cumulative IPC: 1.45765 (Simulation time: 0 hr 48 min 43 sec) 
Heartbeat CPU 3 instructions: 120000000 cycles: 114800976 heartbeat IPC: 0.827602 cumulative IPC: 0.791906 (Simulation time: 0 hr 49 min 29 sec) 
Heartbeat CPU 5 instructions: 200000000 cycles: 118858026 heartbeat IPC: 1.58438 cumulative IPC: 1.46545 (Simulation time: 0 hr 50 min 54 sec) 
Heartbeat CPU 7 instructions: 80000000 cycles: 121029095 heartbeat IPC: 0.607419 cumulative IPC: 0.458703 (Simulation time: 0 hr 51 min 41 sec) 
Heartbeat CPU 0 instructions: 130000001 cycles: 121129479 heartbeat IPC: 0.86618 cumulative IPC: 0.870306 (Simulation time: 0 hr 51 min 42 sec) 
Heartbeat CPU 5 instructions: 210000001 cycles: 125651000 heartbeat IPC: 1.47211 cumulative IPC: 1.46586 (Simulation time: 0 hr 53 min 24 sec) 
Heartbeat CPU 6 instructions: 110000001 cycles: 126295090 heartbeat IPC: 0.640608 cumulative IPC: 0.563664 (Simulation time: 0 hr 53 min 39 sec) 
Heartbeat CPU 3 instructions: 130000002 cycles: 127991213 heartbeat IPC: 0.758137 cumulative IPC: 0.787921 (Simulation time: 0 hr 54 min 18 sec) 
Finished CPU 0 instructions: 100000002 cycles: 113003054 cumulative IPC: 0.884932 (Simulation time: 0 hr 54 min 46 sec) 
Heartbeat CPU 0 instructions: 140000000 cycles: 130577480 heartbeat IPC: 1.05842 cumulative IPC: 0.885845 (Simulation time: 0 hr 55 min 15 sec) 
Heartbeat CPU 2 instructions: 70000002 cycles: 132263073 heartbeat IPC: 0.506509 cumulative IPC: 0.430786 (Simulation time: 0 hr 55 min 52 sec) 
Heartbeat CPU 5 instructions: 220000000 cycles: 132426109 heartbeat IPC: 1.47599 cumulative IPC: 1.46645 (Simulation time: 0 hr 55 min 55 sec) 
Heartbeat CPU 7 instructions: 90000001 cycles: 137102816 heartbeat IPC: 0.622134 cumulative IPC: 0.48043 (Simulation time: 0 hr 57 min 42 sec) 
Heartbeat CPU 5 instructions: 230000003 cycles: 138490120 heartbeat IPC: 1.64907 cumulative IPC: 1.4755 (Simulation time: 0 hr 58 min 18 sec) 
Heartbeat CPU 1 instructions: 70000003 cycles: 138867976 heartbeat IPC: 0.342627 cumulative IPC: 0.374273 (Simulation time: 0 hr 58 min 27 sec) 
Heartbeat CPU 0 instructions: 150000000 cycles: 139099047 heartbeat IPC: 1.17349 cumulative IPC: 0.905789 (Simulation time: 0 hr 58 min 33 sec) 
Heartbeat CPU 3 instructions: 140000000 cycles: 140338153 heartbeat IPC: 0.809917 cumulative IPC: 0.790109 (Simulation time: 0 hr 59 min 1 sec) 
Heartbeat CPU 6 instructions: 120000000 cycles: 142009976 heartbeat IPC: 0.636339 cumulative IPC: 0.572741 (Simulation time: 0 hr 59 min 39 sec) 
Heartbeat CPU 4 instructions: 60000000 cycles: 143093237 heartbeat IPC: 0.213317 cumulative IPC: 0.192088 (Simulation time: 1 hr 0 min 3 sec) 
Finished CPU 3 instructions: 100000003 cycles: 127041911 cumulative IPC: 0.787142 (Simulation time: 1 hr 0 min 7 sec) 
Heartbeat CPU 5 instructions: 240000000 cycles: 144889169 heartbeat IPC: 1.56273 cumulative IPC: 1.47984 (Simulation time: 1 hr 0 min 46 sec) 
Heartbeat CPU 0 instructions: 160000000 cycles: 149334619 heartbeat IPC: 0.976985 cumulative IPC: 0.911263 (Simulation time: 1 hr 2 min 34 sec) 
Heartbeat CPU 5 instructions: 250000000 cycles: 150522738 heartbeat IPC: 1.77507 cumulative IPC: 1.49222 (Simulation time: 1 hr 3 min 1 sec) 
Heartbeat CPU 2 instructions: 80000000 cycles: 152005783 heartbeat IPC: 0.506516 cumulative IPC: 0.441795 (Simulation time: 1 hr 3 min 34 sec) 
Heartbeat CPU 7 instructions: 100000000 cycles: 152186124 heartbeat IPC: 0.662984 cumulative IPC: 0.500678 (Simulation time: 1 hr 3 min 39 sec) 
Heartbeat CPU 3 instructions: 150000001 cycles: 153738148 heartbeat IPC: 0.746269 cumulative IPC: 0.785838 (Simulation time: 1 hr 4 min 14 sec) 
Heartbeat CPU 1 instructions: 80000000 cycles: 155124105 heartbeat IPC: 0.615152 cumulative IPC: 0.402459 (Simulation time: 1 hr 4 min 45 sec) 
Heartbeat CPU 5 instructions: 260000000 cycles: 156058650 heartbeat IPC: 1.80639 cumulative IPC: 1.50466 (Simulation time: 1 hr 5 min 6 sec) 
Heartbeat CPU 6 instructions: 130000003 cycles: 156766599 heartbeat IPC: 0.677662 cumulative IPC: 0.583756 (Simulation time: 1 hr 5 min 22 sec) 
Heartbeat CPU 0 instructions: 170000000 cycles: 161596687 heartbeat IPC: 0.815523 cumulative IPC: 0.903189 (Simulation time: 1 hr 7 min 16 sec) 
Heartbeat CPU 5 instructions: 270000003 cycles: 162158786 heartbeat IPC: 1.63931 cumulative IPC: 1.51029 (Simulation time: 1 hr 7 min 27 sec) 
Heartbeat CPU 3 instructions: 160000000 cycles: 166138914 heartbeat IPC: 0.806402 cumulative IPC: 0.787539 (Simulation time: 1 hr 8 min 58 sec) 
Heartbeat CPU 7 instructions: 110000000 cycles: 167127448 heartbeat IPC: 0.669285 cumulative IPC: 0.517369 (Simulation time: 1 hr 9 min 19 sec) 
Heartbeat CPU 1 instructions: 90000000 cycles: 170882534 heartbeat IPC: 0.634581 cumulative IPC: 0.426106 (Simulation time: 1 hr 10 min 48 sec) 
Heartbeat CPU 5 instructions: 280000000 cycles: 171171949 heartbeat IPC: 1.10949 cumulative IPC: 1.48698 (Simulation time: 1 hr 10 min 54 sec) 
Heartbeat CPU 6 instructions: 140000000 cycles: 171205014 heartbeat IPC: 0.692597 cumulative IPC: 0.593894 (Simulation time: 1 hr 10 min 55 sec) 
Heartbeat CPU 2 instructions: 90000003 cycles: 171550394 heartbeat IPC: 0.51165 cumulative IPC: 0.450583 (Simulation time: 1 hr 11 min 3 sec) 
Heartbeat CPU 0 instructions: 180000000 cycles: 172884504 heartbeat IPC: 0.885911 cumulative IPC: 0.901944 (Simulation time: 1 hr 11 min 33 sec) 
Heartbeat CPU 3 instructions: 170000001 cycles: 179058081 heartbeat IPC: 0.774044 cumulative IPC: 0.786468 (Simulation time: 1 hr 13 min 54 sec) 
Heartbeat CPU 5 instructions: 290000001 cycles: 179305097 heartbeat IPC: 1.22954 cumulative IPC: 1.47414 (Simulation time: 1 hr 14 min 0 sec) 
Finished CPU 6 instructions: 100000001 cycles: 166706380 cumulative IPC: 0.599857 (Simulation time: 1 hr 15 min 32 sec) 
Heartbeat CPU 7 instructions: 120000000 cycles: 183218560 heartbeat IPC: 0.621461 cumulative IPC: 0.527397 (Simulation time: 1 hr 15 min 40 sec) 
Heartbeat CPU 0 instructions: 190000000 cycles: 184342484 heartbeat IPC: 0.872754 cumulative IPC: 0.899955 (Simulation time: 1 hr 16 min 7 sec) 
Heartbeat CPU 1 instructions: 100000000 cycles: 184877912 heartbeat IPC: 0.714522 cumulative IPC: 0.450036 (Simulation time: 1 hr 16 min 20 sec) 
Heartbeat CPU 5 instructions: 300000000 cycles: 185105914 heartbeat IPC: 1.72389 cumulative IPC: 1.48272 (Simulation time: 1 hr 16 min 26 sec) 
Heartbeat CPU 6 instructions: 150000000 cycles: 186059028 heartbeat IPC: 0.673219 cumulative IPC: 0.60083 (Simulation time: 1 hr 16 min 50 sec) 
Heartbeat CPU 4 instructions: 70000002 cycles: 191038114 heartbeat IPC: 0.208573 cumulative IPC: 0.196608 (Simulation time: 1 hr 18 min 48 sec) 
Heartbeat CPU 2 instructions: 100000000 cycles: 191340025 heartbeat IPC: 0.505315 cumulative IPC: 0.456767 (Simulation time: 1 hr 18 min 56 sec) 
Heartbeat CPU 5 instructions: 310000002 cycles: 191417133 heartbeat IPC: 1.58448 cumulative IPC: 1.48638 (Simulation time: 1 hr 18 min 58 sec) 
Heartbeat CPU 3 instructions: 180000000 cycles: 191778172 heartbeat IPC: 0.786158 cumulative IPC: 0.786446 (Simulation time: 1 hr 19 min 7 sec) 
Heartbeat CPU 0 instructions: 200000000 cycles: 195827517 heartbeat IPC: 0.870698 cumulative IPC: 0.898085 (Simulation time: 1 hr 20 min 50 sec) 
Heartbeat CPU 5 instructions: 320000000 cycles: 197250950 heartbeat IPC: 1.71414 cumulative IPC: 1.49372 (Simulation time: 1 hr 21 min 28 sec) 
Heartbeat CPU 1 instructions: 110000002 cycles: 198342289 heartbeat IPC: 0.742701 cumulative IPC: 0.47167 (Simulation time: 1 hr 21 min 56 sec) 
Heartbeat CPU 7 instructions: 130000003 cycles: 200244259 heartbeat IPC: 0.587348 cumulative IPC: 0.532943 (Simulation time: 1 hr 22 min 45 sec) 
Heartbeat CPU 6 instructions: 160000000 cycles: 201119822 heartbeat IPC: 0.663976 cumulative IPC: 0.605973 (Simulation time: 1 hr 23 min 8 sec) 
Finished CPU 7 instructions: 100000003 cycles: 187093072 cumulative IPC: 0.534493 (Simulation time: 1 hr 24 min 1 sec) 
Heartbeat CPU 5 instructions: 330000002 cycles: 204018022 heartbeat IPC: 1.47774 cumulative IPC: 1.49315 (Simulation time: 1 hr 24 min 20 sec) 
Heartbeat CPU 3 instructions: 190000003 cycles: 204314369 heartbeat IPC: 0.79769 cumulative IPC: 0.787195 (Simulation time: 1 hr 24 min 28 sec) 
Heartbeat CPU 0 instructions: 210000001 cycles: 204997533 heartbeat IPC: 1.09051 cumulative IPC: 0.907431 (Simulation time: 1 hr 24 min 52 sec) 
Heartbeat CPU 5 instructions: 340000000 cycles: 210689995 heartbeat IPC: 1.49881 cumulative IPC: 1.49334 (Simulation time: 1 hr 27 min 21 sec) 
Heartbeat CPU 2 instructions: 110000003 cycles: 211426784 heartbeat IPC: 0.497841 cumulative IPC: 0.460993 (Simulation time: 1 hr 27 min 40 sec) 
Heartbeat CPU 1 instructions: 120000000 cycles: 211721528 heartbeat IPC: 0.747427 cumulative IPC: 0.490539 (Simulation time: 1 hr 27 min 48 sec) 
Heartbeat CPU 0 instructions: 220000000 cycles: 213562671 heartbeat IPC: 1.16752 cumulative IPC: 0.918718 (Simulation time: 1 hr 28 min 35 sec) 
Heartbeat CPU 7 instructions: 140000000 cycles: 215852669 heartbeat IPC: 0.64068 cumulative IPC: 0.541366 (Simulation time: 1 hr 29 min 32 sec) 
Heartbeat CPU 6 instructions: 170000002 cycles: 215968048 heartbeat IPC: 0.673481 cumulative IPC: 0.610991 (Simulation time: 1 hr 29 min 35 sec) 
Finished CPU 1 instructions: 100000003 cycles: 200386816 cumulative IPC: 0.499035 (Simulation time: 1 hr 29 min 51 sec) 
Heartbeat CPU 3 instructions: 200000000 cycles: 216981690 heartbeat IPC: 0.789433 cumulative IPC: 0.787336 (Simulation time: 1 hr 30 min 2 sec) 
Heartbeat CPU 5 instructions: 350000001 cycles: 217308356 heartbeat IPC: 1.51095 cumulative IPC: 1.49392 (Simulation time: 1 hr 30 min 10 sec) 
Heartbeat CPU 1 instructions: 130000002 cycles: 222042817 heartbeat IPC: 0.968871 cumulative IPC: 0.514523 (Simulation time: 1 hr 32 min 8 sec) 
Heartbeat CPU 5 instructions: 360000000 cycles: 223850148 heartbeat IPC: 1.52863 cumulative IPC: 1.49501 (Simulation time: 1 hr 32 min 51 sec) 
Heartbeat CPU 0 instructions: 230000000 cycles: 224149797 heartbeat IPC: 0.944543 cumulative IPC: 0.920033 (Simulation time: 1 hr 32 min 58 sec) 
Heartbeat CPU 5 instructions: 370000002 cycles: 230087013 heartbeat IPC: 1.60337 cumulative IPC: 1.49817 (Simulation time: 1 hr 35 min 24 sec) 
Heartbeat CPU 3 instructions: 210000003 cycles: 230669570 heartbeat IPC: 0.730574 cumulative IPC: 0.783714 (Simulation time: 1 hr 35 min 38 sec) 
Heartbeat CPU 2 instructions: 120000000 cycles: 231177455 heartbeat IPC: 0.506312 cumulative IPC: 0.465157 (Simulation time: 1 hr 35 min 50 sec) 
Finished CPU 2 instructions: 100000002 cycles: 214981264 cumulative IPC: 0.465157 (Simulation time: 1 hr 35 min 50 sec) 
Heartbeat CPU 1 instructions: 140000000 cycles: 231355400 heartbeat IPC: 1.07382 cumulative IPC: 0.53873 (Simulation time: 1 hr 35 min 53 sec) 
Heartbeat CPU 6 instructions: 180000000 cycles: 233563831 heartbeat IPC: 0.568318 cumulative IPC: 0.607536 (Simulation time: 1 hr 36 min 42 sec) 
Heartbeat CPU 7 instructions: 150000000 cycles: 235133205 heartbeat IPC: 0.518658 cumulative IPC: 0.539366 (Simulation time: 1 hr 37 min 19 sec) 
Heartbeat CPU 0 instructions: 240000000 cycles: 236546123 heartbeat IPC: 0.806691 cumulative IPC: 0.913656 (Simulation time: 1 hr 37 min 53 sec) 
Heartbeat CPU 5 instructions: 380000000 cycles: 236725846 heartbeat IPC: 1.50629 cumulative IPC: 1.49842 (Simulation time: 1 hr 37 min 57 sec) 
Heartbeat CPU 1 instructions: 150000002 cycles: 240653266 heartbeat IPC: 1.07552 cumulative IPC: 0.560966 (Simulation time: 1 hr 39 min 27 sec) 
Heartbeat CPU 4 instructions: 80000000 cycles: 241985959 heartbeat IPC: 0.196279 cumulative IPC: 0.196534 (Simulation time: 1 hr 39 min 58 sec) 
Heartbeat CPU 5 instructions: 390000002 cycles: 243381052 heartbeat IPC: 1.50258 cumulative IPC: 1.49854 (Simulation time: 1 hr 40 min 28 sec) 
Heartbeat CPU 3 instructions: 220000000 cycles: 243932826 heartbeat IPC: 0.753962 cumulative IPC: 0.781981 (Simulation time: 1 hr 40 min 41 sec) 
Heartbeat CPU 0 instructions: 250000002 cycles: 248630956 heartbeat IPC: 0.827484 cumulative IPC: 0.909176 (Simulation time: 1 hr 42 min 28 sec) 
Heartbeat CPU 5 instructions: 400000000 cycles: 250045664 heartbeat IPC: 1.50046 cumulative IPC: 1.49859 (Simulation time: 1 hr 42 min 59 sec) 
Heartbeat CPU 1 instructions: 160000000 cycles: 250061938 heartbeat IPC: 1.06285 cumulative IPC: 0.581157 (Simulation time: 1 hr 42 min 59 sec) 
Heartbeat CPU 6 instructions: 190000001 cycles: 251172164 heartbeat IPC: 0.567913 cumulative IPC: 0.604567 (Simulation time: 1 hr 43 min 23 sec) 
Heartbeat CPU 2 instructions: 130000003 cycles: 251175676 heartbeat IPC: 0.500045 cumulative IPC: 0.468126 (Simulation time: 1 hr 43 min 23 sec) 
Heartbeat CPU 7 instructions: 160000000 cycles: 256139655 heartbeat IPC: 0.476044 cumulative IPC: 0.533822 (Simulation time: 1 hr 45 min 11 sec) 
Heartbeat CPU 3 instructions: 230000002 cycles: 256625851 heartbeat IPC: 0.787834 cumulative IPC: 0.78229 (Simulation time: 1 hr 45 min 22 sec) 
Heartbeat CPU 5 instructions: 410000000 cycles: 256759316 heartbeat IPC: 1.4895 cumulative IPC: 1.49834 (Simulation time: 1 hr 45 min 25 sec) 
Heartbeat CPU 1 instructions: 170000000 cycles: 259556616 heartbeat IPC: 1.05322 cumulative IPC: 0.599575 (Simulation time: 1 hr 46 min 29 sec) 
Heartbeat CPU 0 instructions: 260000000 cycles: 260356937 heartbeat IPC: 0.852807 cumulative IPC: 0.906469 (Simulation time: 1 hr 46 min 48 sec) 
Heartbeat CPU 5 instructions: 420000000 cycles: 263413604 heartbeat IPC: 1.50279 cumulative IPC: 1.49846 (Simulation time: 1 hr 47 min 55 sec) 
Heartbeat CPU 1 instructions: 180000000 cycles: 269000195 heartbeat IPC: 1.05892 cumulative IPC: 0.616734 (Simulation time: 1 hr 50 min 4 sec) 
Heartbeat CPU 3 instructions: 240000000 cycles: 269414405 heartbeat IPC: 0.781949 cumulative IPC: 0.782273 (Simulation time: 1 hr 50 min 14 sec) 
Heartbeat CPU 6 instructions: 200000000 cycles: 269638171 heartbeat IPC: 0.541536 cumulative IPC: 0.599975 (Simulation time: 1 hr 50 min 19 sec) 
Heartbeat CPU 5 instructions: 430000003 cycles: 270155058 heartbeat IPC: 1.48336 cumulative IPC: 1.49806 (Simulation time: 1 hr 50 min 32 sec) 
Heartbeat CPU 2 instructions: 140000000 cycles: 271350175 heartbeat IPC: 0.495675 cumulative IPC: 0.470304 (Simulation time: 1 hr 51 min 0 sec) 
Heartbeat CPU 0 instructions: 270000002 cycles: 271477368 heartbeat IPC: 0.899246 cumulative IPC: 0.906154 (Simulation time: 1 hr 51 min 3 sec) 
Heartbeat CPU 5 instructions: 440000000 cycles: 278123728 heartbeat IPC: 1.25491 cumulative IPC: 1.49066 (Simulation time: 1 hr 53 min 38 sec) 
Heartbeat CPU 7 instructions: 170000003 cycles: 278504196 heartbeat IPC: 0.447137 cumulative IPC: 0.526431 (Simulation time: 1 hr 53 min 45 sec) 
Heartbeat CPU 1 instructions: 190000000 cycles: 278753262 heartbeat IPC: 1.02532 cumulative IPC: 0.631911 (Simulation time: 1 hr 53 min 50 sec) 
Heartbeat CPU 3 instructions: 250000000 cycles: 283178594 heartbeat IPC: 0.726523 cumulative IPC: 0.779399 (Simulation time: 1 hr 55 min 29 sec) 
Heartbeat CPU 0 instructions: 280000000 cycles: 283507362 heartbeat IPC: 0.831255 cumulative IPC: 0.902784 (Simulation time: 1 hr 55 min 37 sec) 
Heartbeat CPU 5 instructions: 450000001 cycles: 285085139 heartbeat IPC: 1.43649 cumulative IPC: 1.48926 (Simulation time: 1 hr 56 min 10 sec) 
Heartbeat CPU 1 instructions: 200000000 cycles: 288655468 heartbeat IPC: 1.00988 cumulative IPC: 0.645648 (Simulation time: 1 hr 57 min 32 sec) 
Heartbeat CPU 5 instructions: 460000000 cycles: 291911644 heartbeat IPC: 1.46488 cumulative IPC: 1.48866 (Simulation time: 1 hr 58 min 43 sec) 
Heartbeat CPU 2 instructions: 150000002 cycles: 292082089 heartbeat IPC: 0.482348 cumulative IPC: 0.471209 (Simulation time: 1 hr 58 min 47 sec) 
Heartbeat CPU 0 instructions: 290000002 cycles: 295041134 heartbeat IPC: 0.867019 cumulative IPC: 0.901304 (Simulation time: 1 hr 59 min 52 sec) 
Heartbeat CPU 6 instructions: 210000003 cycles: 295106594 heartbeat IPC: 0.392643 cumulative IPC: 0.581042 (Simulation time: 1 hr 59 min 53 sec) 
Heartbeat CPU 3 instructions: 260000000 cycles: 297259660 heartbeat IPC: 0.710173 cumulative IPC: 0.77593 (Simulation time: 2 hr 0 min 43 sec) 
Heartbeat CPU 5 instructions: 470000001 cycles: 297883257 heartbeat IPC: 1.67459 cumulative IPC: 1.4926 (Simulation time: 2 hr 0 min 56 sec) 
Heartbeat CPU 1 instructions: 210000003 cycles: 298467229 heartbeat IPC: 1.01919 cumulative IPC: 0.658632 (Simulation time: 2 hr 1 min 9 sec) 
Heartbeat CPU 7 instructions: 180000000 cycles: 302131694 heartbeat IPC: 0.423236 cumulative IPC: 0.517904 (Simulation time: 2 hr 2 min 32 sec) 
Heartbeat CPU 5 instructions: 480000000 cycles: 303755888 heartbeat IPC: 1.70281 cumulative IPC: 1.49689 (Simulation time: 2 hr 3 min 8 sec) 
Heartbeat CPU 4 instructions: 90000001 cycles: 304025849 heartbeat IPC: 0.161187 cumulative IPC: 0.188915 (Simulation time: 2 hr 3 min 15 sec) 
Heartbeat CPU 0 instructions: 300000000 cycles: 307874332 heartbeat IPC: 0.779229 cumulative IPC: 0.895933 (Simulation time: 2 hr 4 min 42 sec) 
Heartbeat CPU 1 instructions: 220000000 cycles: 307999027 heartbeat IPC: 1.04912 cumulative IPC: 0.671388 (Simulation time: 2 hr 4 min 45 sec) 
Heartbeat CPU 3 instructions: 270000001 cycles: 311230656 heartbeat IPC: 0.715769 cumulative IPC: 0.773081 (Simulation time: 2 hr 5 min 54 sec) 
Heartbeat CPU 2 instructions: 160000000 cycles: 312139510 heartbeat IPC: 0.498568 cumulative IPC: 0.473064 (Simulation time: 2 hr 6 min 14 sec) 
Heartbeat CPU 5 instructions: 490000001 cycles: 312497749 heartbeat IPC: 1.14392 cumulative IPC: 1.48648 (Simulation time: 2 hr 6 min 22 sec) 
Heartbeat CPU 1 instructions: 230000002 cycles: 317511417 heartbeat IPC: 1.05126 cumulative IPC: 0.68338 (Simulation time: 2 hr 8 min 15 sec) 
Heartbeat CPU 0 instructions: 310000001 cycles: 319331573 heartbeat IPC: 0.872811 cumulative IPC: 0.895059 (Simulation time: 2 hr 8 min 55 sec) 
Heartbeat CPU 6 instructions: 220000000 cycles: 321087013 heartbeat IPC: 0.384905 cumulative IPC: 0.564329 (Simulation time: 2 hr 9 min 34 sec) 
Heartbeat CPU 5 instructions: 500000000 cycles: 323078571 heartbeat IPC: 0.945106 cumulative IPC: 1.46781 (Simulation time: 2 hr 10 min 18 sec) 
Heartbeat CPU 7 instructions: 190000003 cycles: 323206730 heartbeat IPC: 0.474495 cumulative IPC: 0.514924 (Simulation time: 2 hr 10 min 21 sec) 
Heartbeat CPU 3 instructions: 280000000 cycles: 324970098 heartbeat IPC: 0.727832 cumulative IPC: 0.771068 (Simulation time: 2 hr 11 min 1 sec) 
Heartbeat CPU 1 instructions: 240000000 cycles: 327050336 heartbeat IPC: 1.04834 cumulative IPC: 0.694579 (Simulation time: 2 hr 11 min 46 sec) 
Heartbeat CPU 5 instructions: 510000001 cycles: 330602327 heartbeat IPC: 1.32912 cumulative IPC: 1.46449 (Simulation time: 2 hr 13 min 2 sec) 
Heartbeat CPU 0 instructions: 320000000 cycles: 330910173 heartbeat IPC: 0.863662 cumulative IPC: 0.893904 (Simulation time: 2 hr 13 min 9 sec) 
Heartbeat CPU 2 instructions: 170000002 cycles: 332261778 heartbeat IPC: 0.496962 cumulative IPC: 0.474585 (Simulation time: 2 hr 13 min 38 sec) 
Heartbeat CPU 5 instructions: 520000000 cycles: 336820930 heartbeat IPC: 1.60808 cumulative IPC: 1.46728 (Simulation time: 2 hr 15 min 19 sec) 
Heartbeat CPU 1 instructions: 250000000 cycles: 336837805 heartbeat IPC: 1.02171 cumulative IPC: 0.704565 (Simulation time: 2 hr 15 min 19 sec) 
Heartbeat CPU 3 instructions: 290000000 cycles: 339541314 heartbeat IPC: 0.686285 cumulative IPC: 0.767247 (Simulation time: 2 hr 16 min 16 sec) 
Heartbeat CPU 0 instructions: 330000001 cycles: 341823447 heartbeat IPC: 0.916315 cumulative IPC: 0.894655 (Simulation time: 2 hr 17 min 8 sec) 
Heartbeat CPU 5 instructions: 530000001 cycles: 344041383 heartbeat IPC: 1.38495 cumulative IPC: 1.46546 (Simulation time: 2 hr 17 min 57 sec) 
Heartbeat CPU 1 instructions: 260000000 cycles: 346812839 heartbeat IPC: 1.0025 cumulative IPC: 0.713554 (Simulation time: 2 hr 18 min 59 sec) 
Heartbeat CPU 7 instructions: 200000000 cycles: 347799571 heartbeat IPC: 0.406622 cumulative IPC: 0.506892 (Simulation time: 2 hr 19 min 20 sec) 
Heartbeat CPU 6 instructions: 230000001 cycles: 349486383 heartbeat IPC: 0.352121 cumulative IPC: 0.546247 (Simulation time: 2 hr 19 min 54 sec) 
Heartbeat CPU 5 instructions: 540000000 cycles: 351169459 heartbeat IPC: 1.4029 cumulative IPC: 1.46413 (Simulation time: 2 hr 20 min 30 sec) 
Heartbeat CPU 2 instructions: 180000000 cycles: 352650620 heartbeat IPC: 0.490464 cumulative IPC: 0.475547 (Simulation time: 2 hr 21 min 4 sec) 
Heartbeat CPU 0 instructions: 340000000 cycles: 352907046 heartbeat IPC: 0.902234 cumulative IPC: 0.894905 (Simulation time: 2 hr 21 min 10 sec) 
Heartbeat CPU 3 instructions: 300000000 cycles: 354245348 heartbeat IPC: 0.680085 cumulative IPC: 0.763456 (Simulation time: 2 hr 21 min 41 sec) 
Heartbeat CPU 1 instructions: 270000002 cycles: 356613129 heartbeat IPC: 1.02038 cumulative IPC: 0.722387 (Simulation time: 2 hr 22 min 32 sec) 
Heartbeat CPU 5 instructions: 550000003 cycles: 357272264 heartbeat IPC: 1.63859 cumulative IPC: 1.46725 (Simulation time: 2 hr 22 min 45 sec) 
Heartbeat CPU 4 instructions: 100000000 cycles: 362558245 heartbeat IPC: 0.170846 cumulative IPC: 0.185861 (Simulation time: 2 hr 24 min 38 sec) 
Heartbeat CPU 0 instructions: 350000001 cycles: 363688928 heartbeat IPC: 0.927482 cumulative IPC: 0.895915 (Simulation time: 2 hr 25 min 2 sec) 
Heartbeat CPU 5 instructions: 560000000 cycles: 364400678 heartbeat IPC: 1.40284 cumulative IPC: 1.46594 (Simulation time: 2 hr 25 min 17 sec) 
Heartbeat CPU 1 instructions: 280000000 cycles: 366277852 heartbeat IPC: 1.03469 cumulative IPC: 0.731009 (Simulation time: 2 hr 25 min 57 sec) 
Heartbeat CPU 6 instructions: 240000000 cycles: 367744335 heartbeat IPC: 0.547706 cumulative IPC: 0.546323 (Simulation time: 2 hr 26 min 27 sec) 
Heartbeat CPU 3 instructions: 310000000 cycles: 368822868 heartbeat IPC: 0.685988 cumulative IPC: 0.760254 (Simulation time: 2 hr 26 min 49 sec) 
Heartbeat CPU 2 instructions: 190000003 cycles: 370910158 heartbeat IPC: 0.547659 cumulative IPC: 0.479259 (Simulation time: 2 hr 27 min 37 sec) 
Heartbeat CPU 5 instructions: 570000001 cycles: 371231186 heartbeat IPC: 1.46402 cumulative IPC: 1.4659 (Simulation time: 2 hr 27 min 44 sec) 
Heartbeat CPU 0 instructions: 360000000 cycles: 375363106 heartbeat IPC: 0.856591 cumulative IPC: 0.894637 (Simulation time: 2 hr 29 min 11 sec) 
Heartbeat CPU 1 instructions: 290000001 cycles: 375646470 heartbeat IPC: 1.06739 cumulative IPC: 0.739776 (Simulation time: 2 hr 29 min 17 sec) 
Heartbeat CPU 5 instructions: 580000000 cycles: 377796016 heartbeat IPC: 1.52327 cumulative IPC: 1.46694 (Simulation time: 2 hr 30 min 3 sec) 
Heartbeat CPU 7 instructions: 210000000 cycles: 378936352 heartbeat IPC: 0.321164 cumulative IPC: 0.49095 (Simulation time: 2 hr 30 min 27 sec) 
Heartbeat CPU 3 instructions: 320000000 cycles: 381626957 heartbeat IPC: 0.781 cumulative IPC: 0.76098 (Simulation time: 2 hr 31 min 27 sec) 
Heartbeat CPU 5 instructions: 590000001 cycles: 384443550 heartbeat IPC: 1.50432 cumulative IPC: 1.46761 (Simulation time: 2 hr 32 min 25 sec) 
Heartbeat CPU 6 instructions: 250000003 cycles: 385018811 heartbeat IPC: 0.578889 cumulative IPC: 0.547848 (Simulation time: 2 hr 32 min 38 sec) 
Heartbeat CPU 1 instructions: 300000000 cycles: 385075817 heartbeat IPC: 1.06052 cumulative IPC: 0.747975 (Simulation time: 2 hr 32 min 39 sec) 
Heartbeat CPU 2 instructions: 200000000 cycles: 385258309 heartbeat IPC: 0.696954 cumulative IPC: 0.487723 (Simulation time: 2 hr 32 min 43 sec) 
Heartbeat CPU 0 instructions: 370000002 cycles: 387777756 heartbeat IPC: 0.8055 cumulative IPC: 0.891659 (Simulation time: 2 hr 33 min 38 sec) 
Heartbeat CPU 5 instructions: 600000000 cycles: 390993972 heartbeat IPC: 1.52662 cumulative IPC: 1.46865 (Simulation time: 2 hr 34 min 46 sec) 
Heartbeat CPU 1 instructions: 310000003 cycles: 394485654 heartbeat IPC: 1.06272 cumulative IPC: 0.755804 (Simulation time: 2 hr 36 min 4 sec) 
Heartbeat CPU 3 instructions: 330000000 cycles: 394936643 heartbeat IPC: 0.751333 cumulative IPC: 0.760641 (Simulation time: 2 hr 36 min 14 sec) 
Heartbeat CPU 5 instructions: 610000002 cycles: 397173128 heartbeat IPC: 1.61834 cumulative IPC: 1.47107 (Simulation time: 2 hr 37 min 2 sec) 
Heartbeat CPU 0 instructions: 380000000 cycles: 399220838 heartbeat IPC: 0.87389 cumulative IPC: 0.891128 (Simulation time: 2 hr 37 min 45 sec) 
Heartbeat CPU 2 instructions: 210000000 cycles: 399677858 heartbeat IPC: 0.693503 cumulative IPC: 0.49546 (Simulation time: 2 hr 37 min 55 sec) 
Heartbeat CPU 6 instructions: 260000000 cycles: 402621337 heartbeat IPC: 0.5681 cumulative IPC: 0.548771 (Simulation time: 2 hr 38 min 57 sec) 
Heartbeat CPU 5 instructions: 620000000 cycles: 403661630 heartbeat IPC: 1.54119 cumulative IPC: 1.47225 (Simulation time: 2 hr 39 min 19 sec) 
Heartbeat CPU 1 instructions: 320000000 cycles: 403846741 heartbeat IPC: 1.06825 cumulative IPC: 0.763349 (Simulation time: 2 hr 39 min 22 sec) 
Heartbeat CPU 7 instructions: 220000000 cycles: 408339642 heartbeat IPC: 0.340098 cumulative IPC: 0.479639 (Simulation time: 2 hr 40 min 59 sec) 
Heartbeat CPU 3 instructions: 340000000 cycles: 408498731 heartbeat IPC: 0.73735 cumulative IPC: 0.759836 (Simulation time: 2 hr 41 min 3 sec) 
Heartbeat CPU 5 instructions: 630000001 cycles: 410365801 heartbeat IPC: 1.49161 cumulative IPC: 1.47258 (Simulation time: 2 hr 41 min 43 sec) 
Heartbeat CPU 0 instructions: 390000000 cycles: 412014158 heartbeat IPC: 0.781658 cumulative IPC: 0.88759 (Simulation time: 2 hr 42 min 17 sec) 
Heartbeat CPU 1 instructions: 330000002 cycles: 413559945 heartbeat IPC: 1.02953 cumulative IPC: 0.769856 (Simulation time: 2 hr 42 min 50 sec) 
Heartbeat CPU 2 instructions: 220000000 cycles: 414095891 heartbeat IPC: 0.693576 cumulative IPC: 0.502639 (Simulation time: 2 hr 43 min 1 sec) 
Heartbeat CPU 5 instructions: 640000000 cycles: 417182768 heartbeat IPC: 1.46693 cumulative IPC: 1.47248 (Simulation time: 2 hr 44 min 6 sec) 
Heartbeat CPU 6 instructions: 270000003 cycles: 422142755 heartbeat IPC: 0.512258 cumulative IPC: 0.547015 (Simulation time: 2 hr 45 min 50 sec) 
Heartbeat CPU 3 instructions: 350000002 cycles: 423002527 heartbeat IPC: 0.689475 cumulative IPC: 0.757328 (Simulation time: 2 hr 46 min 8 sec) 
Heartbeat CPU 1 instructions: 340000000 cycles: 423496225 heartbeat IPC: 1.00641 cumulative IPC: 0.775627 (Simulation time: 2 hr 46 min 19 sec) 
Heartbeat CPU 5 instructions: 650000003 cycles: 424474999 heartbeat IPC: 1.37132 cumulative IPC: 1.47067 (Simulation time: 2 hr 46 min 40 sec) 
Heartbeat CPU 0 instructions: 400000000 cycles: 424595656 heartbeat IPC: 0.794818 cumulative IPC: 0.884732 (Simulation time: 2 hr 46 min 42 sec) 
Heartbeat CPU 4 instructions: 110000003 cycles: 426157685 heartbeat IPC: 0.157234 cumulative IPC: 0.18142 (Simulation time: 2 hr 47 min 16 sec) 
Heartbeat CPU 2 instructions: 230000003 cycles: 428624688 heartbeat IPC: 0.688288 cumulative IPC: 0.509179 (Simulation time: 2 hr 48 min 13 sec) 
Heartbeat CPU 5 instructions: 660000000 cycles: 431875778 heartbeat IPC: 1.35121 cumulative IPC: 1.46855 (Simulation time: 2 hr 49 min 23 sec) 
Heartbeat CPU 1 instructions: 350000003 cycles: 433754656 heartbeat IPC: 0.974808 cumulative IPC: 0.78052 (Simulation time: 2 hr 50 min 2 sec) 
Heartbeat CPU 0 instructions: 410000003 cycles: 434849824 heartbeat IPC: 0.975213 cumulative IPC: 0.886948 (Simulation time: 2 hr 50 min 26 sec) 
Heartbeat CPU 7 instructions: 230000000 cycles: 438008265 heartbeat IPC: 0.337056 cumulative IPC: 0.46961 (Simulation time: 2 hr 51 min 31 sec) 
Heartbeat CPU 3 instructions: 360000000 cycles: 438373764 heartbeat IPC: 0.650566 cumulative IPC: 0.75344 (Simulation time: 2 hr 51 min 38 sec) 
Heartbeat CPU 5 instructions: 670000000 cycles: 439754210 heartbeat IPC: 1.26929 cumulative IPC: 1.46484 (Simulation time: 2 hr 52 min 8 sec) 
Heartbeat CPU 6 instructions: 280000000 cycles: 443227183 heartbeat IPC: 0.474284 cumulative IPC: 0.543424 (Simulation time: 2 hr 53 min 20 sec) 
Heartbeat CPU 2 instructions: 240000000 cycles: 443234681 heartbeat IPC: 0.684463 cumulative IPC: 0.515176 (Simulation time: 2 hr 53 min 20 sec) 
Heartbeat CPU 1 instructions: 360000000 cycles: 443891487 heartbeat IPC: 0.986501 cumulative IPC: 0.785402 (Simulation time: 2 hr 53 min 35 sec) 
Heartbeat CPU 5 instructions: 680000000 cycles: 446038113 heartbeat IPC: 1.59137 cumulative IPC: 1.46669 (Simulation time: 2 hr 54 min 21 sec) 
Heartbeat CPU 0 instructions: 420000000 cycles: 447835509 heartbeat IPC: 0.770079 cumulative IPC: 0.883432 (Simulation time: 2 hr 54 min 57 sec) 
Heartbeat CPU 5 instructions: 690000002 cycles: 452927946 heartbeat IPC: 1.45141 cumulative IPC: 1.46645 (Simulation time: 2 hr 56 min 47 sec) 
Heartbeat CPU 3 instructions: 370000000 cycles: 453444792 heartbeat IPC: 0.663525 cumulative IPC: 0.750341 (Simulation time: 2 hr 56 min 58 sec) 
Heartbeat CPU 1 instructions: 370000001 cycles: 453683056 heartbeat IPC: 1.02129 cumulative IPC: 0.790682 (Simulation time: 2 hr 57 min 4 sec) 
Heartbeat CPU 2 instructions: 250000003 cycles: 457681354 heartbeat IPC: 0.692201 cumulative IPC: 0.520969 (Simulation time: 2 hr 58 min 33 sec) 
Heartbeat CPU 5 instructions: 700000000 cycles: 458542361 heartbeat IPC: 1.78113 cumulative IPC: 1.47044 (Simulation time: 2 hr 58 min 52 sec) 
Heartbeat CPU 0 instructions: 430000003 cycles: 459882683 heartbeat IPC: 0.83007 cumulative IPC: 0.881983 (Simulation time: 2 hr 59 min 22 sec) 
Heartbeat CPU 6 instructions: 290000000 cycles: 461548523 heartbeat IPC: 0.545812 cumulative IPC: 0.543522 (Simulation time: 2 hr 59 min 58 sec) 
Heartbeat CPU 7 instructions: 240000000 cycles: 462148490 heartbeat IPC: 0.414246 cumulative IPC: 0.466613 (Simulation time: 3 hr 0 min 10 sec) 
Heartbeat CPU 1 instructions: 380000000 cycles: 462966579 heartbeat IPC: 1.07718 cumulative IPC: 0.796635 (Simulation time: 3 hr 0 min 26 sec) 
Heartbeat CPU 3 instructions: 380000000 cycles: 466754497 heartbeat IPC: 0.751331 cumulative IPC: 0.750371 (Simulation time: 3 hr 1 min 48 sec) 
Heartbeat CPU 5 instructions: 710000000 cycles: 467164972 heartbeat IPC: 1.15974 cumulative IPC: 1.4645 (Simulation time: 3 hr 1 min 57 sec) 
Heartbeat CPU 0 instructions: 440000000 cycles: 471929277 heartbeat IPC: 0.83011 cumulative IPC: 0.880612 (Simulation time: 3 hr 3 min 40 sec) 
Heartbeat CPU 2 instructions: 260000000 cycles: 471934701 heartbeat IPC: 0.701589 cumulative IPC: 0.526618 (Simulation time: 3 hr 3 min 40 sec) 
Heartbeat CPU 1 instructions: 390000000 cycles: 472101528 heartbeat IPC: 1.0947 cumulative IPC: 0.802607 (Simulation time: 3 hr 3 min 44 sec) 
Heartbeat CPU 5 instructions: 720000000 cycles: 476463901 heartbeat IPC: 1.07539 cumulative IPC: 1.45664 (Simulation time: 3 hr 5 min 18 sec) 
Heartbeat CPU 6 instructions: 300000000 cycles: 478707662 heartbeat IPC: 0.58278 cumulative IPC: 0.544978 (Simulation time: 3 hr 6 min 5 sec) 
Heartbeat CPU 3 instructions: 390000003 cycles: 480719272 heartbeat IPC: 0.716088 cumulative IPC: 0.74934 (Simulation time: 3 hr 6 min 47 sec) 
Heartbeat CPU 1 instructions: 400000000 cycles: 481469213 heartbeat IPC: 1.0675 cumulative IPC: 0.80794 (Simulation time: 3 hr 7 min 4 sec) 
Heartbeat CPU 7 instructions: 250000003 cycles: 482624840 heartbeat IPC: 0.488368 cumulative IPC: 0.467568 (Simulation time: 3 hr 7 min 30 sec) 
Heartbeat CPU 5 instructions: 730000002 cycles: 483270890 heartbeat IPC: 1.46908 cumulative IPC: 1.45682 (Simulation time: 3 hr 7 min 44 sec) 
Heartbeat CPU 0 instructions: 450000000 cycles: 484058970 heartbeat IPC: 0.824423 cumulative IPC: 0.879155 (Simulation time: 3 hr 8 min 1 sec) 
Heartbeat CPU 2 instructions: 270000000 cycles: 486375919 heartbeat IPC: 0.692462 cumulative IPC: 0.531712 (Simulation time: 3 hr 8 min 53 sec) 
Heartbeat CPU 5 instructions: 740000000 cycles: 489790038 heartbeat IPC: 1.53394 cumulative IPC: 1.45788 (Simulation time: 3 hr 10 min 6 sec) 
Heartbeat CPU 1 instructions: 410000003 cycles: 490839165 heartbeat IPC: 1.06724 cumulative IPC: 0.813059 (Simulation time: 3 hr 10 min 28 sec) 
Heartbeat CPU 4 instructions: 120000000 cycles: 491119983 heartbeat IPC: 0.153935 cumulative IPC: 0.177661 (Simulation time: 3 hr 10 min 34 sec) 
Heartbeat CPU 3 instructions: 400000000 cycles: 493314822 heartbeat IPC: 0.793931 cumulative IPC: 0.750517 (Simulation time: 3 hr 11 min 22 sec) 
Heartbeat CPU 5 instructions: 750000000 cycles: 495899892 heartbeat IPC: 1.6367 cumulative IPC: 1.46016 (Simulation time: 3 hr 12 min 17 sec) 
Heartbeat CPU 6 instructions: 310000003 cycles: 496526400 heartbeat IPC: 0.561207 cumulative IPC: 0.54558 (Simulation time: 3 hr 12 min 31 sec) 
Heartbeat CPU 0 instructions: 460000000 cycles: 496551989 heartbeat IPC: 0.800447 cumulative IPC: 0.877108 (Simulation time: 3 hr 12 min 31 sec) 
Heartbeat CPU 1 instructions: 420000000 cycles: 500238230 heartbeat IPC: 1.06394 cumulative IPC: 0.817931 (Simulation time: 3 hr 13 min 49 sec) 
Heartbeat CPU 2 instructions: 280000000 cycles: 500733382 heartbeat IPC: 0.696502 cumulative IPC: 0.536595 (Simulation time: 3 hr 14 min 0 sec) 
Heartbeat CPU 5 instructions: 760000000 cycles: 502680846 heartbeat IPC: 1.47472 cumulative IPC: 1.46037 (Simulation time: 3 hr 14 min 42 sec) 
Heartbeat CPU 3 instructions: 410000000 cycles: 507035073 heartbeat IPC: 0.72885 cumulative IPC: 0.749911 (Simulation time: 3 hr 16 min 16 sec) 
Heartbeat CPU 7 instructions: 260000000 cycles: 507064334 heartbeat IPC: 0.409174 cumulative IPC: 0.464661 (Simulation time: 3 hr 16 min 17 sec) 
Heartbeat CPU 5 instructions: 770000000 cycles: 508839705 heartbeat IPC: 1.62368 cumulative IPC: 1.46241 (Simulation time: 3 hr 16 min 54 sec) 
Heartbeat CPU 0 instructions: 470000001 cycles: 508954007 heartbeat IPC: 0.80632 cumulative IPC: 0.875327 (Simulation time: 3 hr 16 min 57 sec) 
Heartbeat CPU 1 instructions: 430000000 cycles: 509587240 heartbeat IPC: 1.06963 cumulative IPC: 0.8227 (Simulation time: 3 hr 17 min 9 sec) 
Heartbeat CPU 6 instructions: 320000000 cycles: 514495388 heartbeat IPC: 0.556514 cumulative IPC: 0.545975 (Simulation time: 3 hr 18 min 55 sec) 
Heartbeat CPU 2 instructions: 290000000 cycles: 515120786 heartbeat IPC: 0.695052 cumulative IPC: 0.541164 (Simulation time: 3 hr 19 min 9 sec) 
Heartbeat CPU 5 instructions: 780000000 cycles: 515343184 heartbeat IPC: 1.53764 cumulative IPC: 1.46339 (Simulation time: 3 hr 19 min 15 sec) 
Heartbeat CPU 1 instructions: 440000000 cycles: 519196927 heartbeat IPC: 1.04062 cumulative IPC: 0.826863 (Simulation time: 3 hr 20 min 42 sec) 
Heartbeat CPU 0 instructions: 480000000 cycles: 519717064 heartbeat IPC: 0.929104 cumulative IPC: 0.876476 (Simulation time: 3 hr 20 min 53 sec) 
Heartbeat CPU 3 instructions: 420000000 cycles: 521264994 heartbeat IPC: 0.702745 cumulative IPC: 0.748583 (Simulation time: 3 hr 21 min 28 sec) 
Heartbeat CPU 5 instructions: 790000001 cycles: 522393840 heartbeat IPC: 1.41831 cumulative IPC: 1.46276 (Simulation time: 3 hr 21 min 52 sec) 
Heartbeat CPU 1 instructions: 450000002 cycles: 528860115 heartbeat IPC: 1.03486 cumulative IPC: 0.830784 (Simulation time: 3 hr 24 min 7 sec) 
Heartbeat CPU 5 instructions: 800000000 cycles: 529475584 heartbeat IPC: 1.41208 cumulative IPC: 1.46206 (Simulation time: 3 hr 24 min 20 sec) 
Heartbeat CPU 2 instructions: 300000000 cycles: 529572427 heartbeat IPC: 0.691963 cumulative IPC: 0.545409 (Simulation time: 3 hr 24 min 23 sec) 
Heartbeat CPU 0 instructions: 490000000 cycles: 532845339 heartbeat IPC: 0.761715 cumulative IPC: 0.87356 (Simulation time: 3 hr 25 min 31 sec) 
Heartbeat CPU 6 instructions: 330000000 cycles: 533218940 heartbeat IPC: 0.534087 cumulative IPC: 0.545544 (Simulation time: 3 hr 25 min 39 sec) 
Heartbeat CPU 3 instructions: 430000001 cycles: 536050137 heartbeat IPC: 0.676355 cumulative IPC: 0.746528 (Simulation time: 3 hr 26 min 39 sec) 
Heartbeat CPU 5 instructions: 810000000 cycles: 536235569 heartbeat IPC: 1.47929 cumulative IPC: 1.46228 (Simulation time: 3 hr 26 min 43 sec) 
Heartbeat CPU 7 instructions: 270000000 cycles: 537535406 heartbeat IPC: 0.32818 cumulative IPC: 0.456684 (Simulation time: 3 hr 27 min 12 sec) 
Heartbeat CPU 1 instructions: 460000000 cycles: 538542716 heartbeat IPC: 1.03278 cumulative IPC: 0.834528 (Simulation time: 3 hr 27 min 33 sec) 
Heartbeat CPU 5 instructions: 820000000 cycles: 543046867 heartbeat IPC: 1.46815 cumulative IPC: 1.46236 (Simulation time: 3 hr 29 min 8 sec) 
Heartbeat CPU 2 instructions: 310000002 cycles: 543510790 heartbeat IPC: 0.717444 cumulative IPC: 0.549956 (Simulation time: 3 hr 29 min 18 sec) 
Heartbeat CPU 0 instructions: 500000000 cycles: 546578897 heartbeat IPC: 0.728143 cumulative IPC: 0.869795 (Simulation time: 3 hr 30 min 25 sec) 
Heartbeat CPU 1 instructions: 470000001 cycles: 548209915 heartbeat IPC: 1.03443 cumulative IPC: 0.83816 (Simulation time: 3 hr 30 min 59 sec) 
Heartbeat CPU 3 instructions: 440000000 cycles: 549515819 heartbeat IPC: 0.742628 cumulative IPC: 0.74643 (Simulation time: 3 hr 31 min 27 sec) 
Heartbeat CPU 5 instructions: 830000002 cycles: 549672672 heartbeat IPC: 1.50925 cumulative IPC: 1.46294 (Simulation time: 3 hr 31 min 30 sec) 
Heartbeat CPU 6 instructions: 340000000 cycles: 551048554 heartbeat IPC: 0.560865 cumulative IPC: 0.546055 (Simulation time: 3 hr 31 min 58 sec) 
Heartbeat CPU 4 instructions: 130000001 cycles: 551866273 heartbeat IPC: 0.164619 cumulative IPC: 0.176182 (Simulation time: 3 hr 32 min 15 sec) 
Heartbeat CPU 5 instructions: 840000000 cycles: 556121632 heartbeat IPC: 1.55064 cumulative IPC: 1.46399 (Simulation time: 3 hr 33 min 47 sec) 
Heartbeat CPU 1 instructions: 480000000 cycles: 557631994 heartbeat IPC: 1.06134 cumulative IPC: 0.842044 (Simulation time: 3 hr 34 min 19 sec) 
Heartbeat CPU 2 instructions: 320000000 cycles: 557979234 heartbeat IPC: 0.691159 cumulative IPC: 0.553727 (Simulation time: 3 hr 34 min 27 sec) 
Heartbeat CPU 0 instructions: 510000000 cycles: 558844574 heartbeat IPC: 0.815283 cumulative IPC: 0.868563 (Simulation time: 3 hr 34 min 46 sec) 
Heartbeat CPU 5 instructions: 850000000 cycles: 562991172 heartbeat IPC: 1.4557 cumulative IPC: 1.46389 (Simulation time: 3 hr 36 min 14 sec) 
Heartbeat CPU 3 instructions: 450000003 cycles: 563750835 heartbeat IPC: 0.702493 cumulative IPC: 0.745288 (Simulation time: 3 hr 36 min 29 sec) 
Heartbeat CPU 7 instructions: 280000000 cycles: 566563720 heartbeat IPC: 0.344491 cumulative IPC: 0.450766 (Simulation time: 3 hr 37 min 29 sec) 
Heartbeat CPU 1 instructions: 490000000 cycles: 567420101 heartbeat IPC: 1.02165 cumulative IPC: 0.845233 (Simulation time: 3 hr 37 min 46 sec) 
Heartbeat CPU 6 instructions: 350000003 cycles: 569181681 heartbeat IPC: 0.551477 cumulative IPC: 0.546233 (Simulation time: 3 hr 38 min 24 sec) 
Heartbeat CPU 5 instructions: 860000000 cycles: 570294490 heartbeat IPC: 1.36924 cumulative IPC: 1.46264 (Simulation time: 3 hr 38 min 45 sec) 
Heartbeat CPU 0 instructions: 520000000 cycles: 571201750 heartbeat IPC: 0.809246 cumulative IPC: 0.867242 (Simulation time: 3 hr 39 min 3 sec) 
Heartbeat CPU 2 instructions: 330000003 cycles: 572530340 heartbeat IPC: 0.687233 cumulative IPC: 0.557219 (Simulation time: 3 hr 39 min 29 sec) 
Heartbeat CPU 1 instructions: 500000000 cycles: 577277937 heartbeat IPC: 1.01442 cumulative IPC: 0.848206 (Simulation time: 3 hr 41 min 8 sec) 
Heartbeat CPU 5 instructions: 870000000 cycles: 577891891 heartbeat IPC: 1.31624 cumulative IPC: 1.46066 (Simulation time: 3 hr 41 min 22 sec) 
Heartbeat CPU 3 instructions: 460000000 cycles: 579005236 heartbeat IPC: 0.655548 cumulative IPC: 0.742855 (Simulation time: 3 hr 41 min 45 sec) 
Heartbeat CPU 0 instructions: 530000000 cycles: 583747671 heartbeat IPC: 0.797072 cumulative IPC: 0.865691 (Simulation time: 3 hr 43 min 26 sec) 
Heartbeat CPU 5 instructions: 880000000 cycles: 585352707 heartbeat IPC: 1.34034 cumulative IPC: 1.45908 (Simulation time: 3 hr 43 min 58 sec) 
Heartbeat CPU 2 instructions: 340000000 cycles: 587067693 heartbeat IPC: 0.687883 cumulative IPC: 0.560546 (Simulation time: 3 hr 44 min 36 sec) 
Finished CPU 4 instructions: 100000001 cycles: 570882189 cumulative IPC: 0.175168 (Simulation time: 3 hr 44 min 36 sec) 

CPU 0 Branch Prediction Accuracy: 93.0121% MPKI: 10.6306

CPU 1 Branch Prediction Accuracy: 99.5257% MPKI: 0.0883888

CPU 2 Branch Prediction Accuracy: 99.7347% MPKI: 0.0141903

CPU 3 Branch Prediction Accuracy: 96.8367% MPKI: 2.69305

CPU 4 Branch Prediction Accuracy: 99.1011% MPKI: 2.00954

CPU 5 Branch Prediction Accuracy: 98.871% MPKI: 0.537327

CPU 6 Branch Prediction Accuracy: 99.9992% MPKI: 0.000238585

CPU 7 Branch Prediction Accuracy: 96.4545% MPKI: 6.1372

ChampSim completed all CPUs

Total Simulation Statistics (not including warmup)

CPU 0 cumulative IPC: 0.86525 instructions: 493955554 cycles: 570882188
L1D TOTAL     ACCESS:  118598326  HIT:  115059184  MISS:    3539142
L1D LOAD      ACCESS:   69519415  HIT:   66458964  MISS:    3060451
L1D RFO       ACCESS:   49078911  HIT:   48600220  MISS:     478691
L1D PREFETCH  ACCESS:          0  HIT:          0  MISS:          0
L1D WRITEBACK ACCESS:          0  HIT:          0  MISS:          0
L1I TOTAL     ACCESS:  103390455  HIT:  103390446  MISS:          9
L1I LOAD      ACCESS:  103390455  HIT:  103390446  MISS:          9
L1I RFO       ACCESS:          0  HIT:          0  MISS:          0
L1I PREFETCH  ACCESS:          0  HIT:          0  MISS:          0
L1I WRITEBACK ACCESS:          0  HIT:          0  MISS:          0
L2C TOTAL     ACCESS:    5697380  HIT:    3376612  MISS:    2320768
L2C LOAD      ACCESS:    3060452  HIT:    1482709  MISS:    1577743
L2C RFO       ACCESS:     478691  HIT:      80301  MISS:     398390
L2C PREFETCH  ACCESS:    1328377  HIT:     984313  MISS:     344064
L2C WRITEBACK ACCESS:     829860  HIT:     829289  MISS:        571
LLC TOTAL     ACCESS:    5683104  HIT:    4276770  MISS:    1406334
LLC LOAD      ACCESS:    1542115  HIT:    1245237  MISS:     296878
LLC RFO       ACCESS:     398390  HIT:       7580  MISS:     390810
LLC PREFETCH  ACCESS:    3030127  HIT:    2459766  MISS:     570361
LLC WRITEBACK ACCESS:     712472  HIT:     564187  MISS:     148285

CPU 1 cumulative IPC: 0.851131 instructions: 485895729 cycles: 570882188
L1D TOTAL     ACCESS:  163416162  HIT:  150987028  MISS:   12429134
L1D LOAD      ACCESS:  133415420  HIT:  120986314  MISS:   12429106
L1D RFO       ACCESS:   30000742  HIT:   30000714  MISS:         28
L1D PREFETCH  ACCESS:          0  HIT:          0  MISS:          0
L1D WRITEBACK ACCESS:          0  HIT:          0  MISS:          0
L1I TOTAL     ACCESS:   97563697  HIT:   97563511  MISS:        186
L1I LOAD      ACCESS:   97563697  HIT:   97563511  MISS:        186
L1I RFO       ACCESS:          0  HIT:          0  MISS:          0
L1I PREFETCH  ACCESS:          0  HIT:          0  MISS:          0
L1I WRITEBACK ACCESS:          0  HIT:          0  MISS:          0
L2C TOTAL     ACCESS:   24723725  HIT:   14605812  MISS:   10117913
L2C LOAD      ACCESS:   12429267  HIT:    7794721  MISS:    4634546
L2C RFO       ACCESS:         28  HIT:          0  MISS:         28
L2C PREFETCH  ACCESS:    8421562  HIT:    2939220  MISS:    5482342
L2C WRITEBACK ACCESS:    3872868  HIT:    3871871  MISS:        997
LLC TOTAL     ACCESS:   46318822  HIT:   38114453  MISS:    8204369
LLC LOAD      ACCESS:    4366301  HIT:    3736332  MISS:     629969
LLC RFO       ACCESS:         28  HIT:          0  MISS:         28
LLC PREFETCH  ACCESS:   38516268  HIT:   30948196  MISS:    7568072
LLC WRITEBACK ACCESS:    3436225  HIT:    3429925  MISS:       6300

CPU 2 cumulative IPC: 0.560549 instructions: 320007502 cycles: 570882188
L1D TOTAL     ACCESS:  186754081  HIT:  183709591  MISS:    3044490
L1D LOAD      ACCESS:  165080694  HIT:  162036477  MISS:    3044217
L1D RFO       ACCESS:   21673387  HIT:   21673114  MISS:        273
L1D PREFETCH  ACCESS:          0  HIT:          0  MISS:          0
L1D WRITEBACK ACCESS:          0  HIT:          0  MISS:          0
L1I TOTAL     ACCESS:   89235249  HIT:   89235105  MISS:        144
L1I LOAD      ACCESS:   89235249  HIT:   89235105  MISS:        144
L1I RFO       ACCESS:          0  HIT:          0  MISS:          0
L1I PREFETCH  ACCESS:          0  HIT:          0  MISS:          0
L1I WRITEBACK ACCESS:          0  HIT:          0  MISS:          0
L2C TOTAL     ACCESS:    6544562  HIT:    3935810  MISS:    2608752
L2C LOAD      ACCESS:    3044036  HIT:    1261638  MISS:    1782398
L2C RFO       ACCESS:        221  HIT:        200  MISS:         21
L2C PREFETCH  ACCESS:    2130400  HIT:    1304205  MISS:     826195
L2C WRITEBACK ACCESS:    1369905  HIT:    1369767  MISS:        138
LLC TOTAL     ACCESS:   10601451  HIT:    7641972  MISS:    2959479
LLC LOAD      ACCESS:    1779977  HIT:    1152869  MISS:     627108
LLC RFO       ACCESS:         21  HIT:          5  MISS:         16
LLC PREFETCH  ACCESS:    7458924  HIT:    5127133  MISS:    2331791
LLC WRITEBACK ACCESS:    1362529  HIT:    1361965  MISS:        564

CPU 3 cumulative IPC: 0.743322 instructions: 424349472 cycles: 570882189
L1D TOTAL     ACCESS:   71619157  HIT:   65196122  MISS:    6423035
L1D LOAD      ACCESS:   64547454  HIT:   58382952  MISS:    6164502
L1D RFO       ACCESS:    7071703  HIT:    6813170  MISS:     258533
L1D PREFETCH  ACCESS:          0  HIT:          0  MISS:          0
L1D WRITEBACK ACCESS:          0  HIT:          0  MISS:          0
L1I TOTAL     ACCESS:  110730580  HIT:  110730293  MISS:        287
L1I LOAD      ACCESS:  110730580  HIT:  110730293  MISS:        287
L1I RFO       ACCESS:          0  HIT:          0  MISS:          0
L1I PREFETCH  ACCESS:          0  HIT:          0  MISS:          0
L1I WRITEBACK ACCESS:          0  HIT:          0  MISS:          0
L2C TOTAL     ACCESS:    9668741  HIT:    4214829  MISS:    5453912
L2C LOAD      ACCESS:    6164786  HIT:    2883594  MISS:    3281192
L2C RFO       ACCESS:     258519  HIT:      41369  MISS:     217150
L2C PREFETCH  ACCESS:    2846403  HIT:     891732  MISS:    1954671
L2C WRITEBACK ACCESS:     399033  HIT:     398134  MISS:        899
LLC TOTAL     ACCESS:   18386152  HIT:   12790435  MISS:    5595717
LLC LOAD      ACCESS:    2904690  HIT:    2085671  MISS:     819019
LLC RFO       ACCESS:     217142  HIT:      48194  MISS:     168948
LLC PREFETCH  ACCESS:   14928617  HIT:   10321946  MISS:    4606671
LLC WRITEBACK ACCESS:     335703  HIT:     334624  MISS:       1079

CPU 4 cumulative IPC: 0.175168 instructions: 100000001 cycles: 570882189
L1D TOTAL     ACCESS:   20476530  HIT:   17680560  MISS:    2795970
L1D LOAD      ACCESS:   17100816  HIT:   14324068  MISS:    2776748
L1D RFO       ACCESS:    3375714  HIT:    3356492  MISS:      19222
L1D PREFETCH  ACCESS:          0  HIT:          0  MISS:          0
L1D WRITEBACK ACCESS:          0  HIT:          0  MISS:          0
L1I TOTAL     ACCESS:   32797203  HIT:   32665308  MISS:     131895
L1I LOAD      ACCESS:   32797203  HIT:   32665308  MISS:     131895
L1I RFO       ACCESS:          0  HIT:          0  MISS:          0
L1I PREFETCH  ACCESS:          0  HIT:          0  MISS:          0
L1I WRITEBACK ACCESS:          0  HIT:          0  MISS:          0
L2C TOTAL     ACCESS:    3343175  HIT:     509976  MISS:    2833199
L2C LOAD      ACCESS:    2908639  HIT:     180450  MISS:    2728189
L2C RFO       ACCESS:      19220  HIT:       8041  MISS:      11179
L2C PREFETCH  ACCESS:     369763  HIT:     276907  MISS:      92856
L2C WRITEBACK ACCESS:      45553  HIT:      44578  MISS:        975
LLC TOTAL     ACCESS:    4473332  HIT:     858186  MISS:    3615146
LLC LOAD      ACCESS:    2719544  HIT:     441697  MISS:    2277847
LLC RFO       ACCESS:      11167  HIT:       1251  MISS:       9916
LLC PREFETCH  ACCESS:    1721056  HIT:     394225  MISS:    1326831
LLC WRITEBACK ACCESS:      21565  HIT:      21013  MISS:        552

CPU 5 cumulative IPC: 1.46001 instructions: 833494408 cycles: 570882189
L1D TOTAL     ACCESS:  145096413  HIT:  134628890  MISS:   10467523
L1D LOAD      ACCESS:  124546722  HIT:  114210236  MISS:   10336486
L1D RFO       ACCESS:   20549691  HIT:   20418654  MISS:     131037
L1D PREFETCH  ACCESS:          0  HIT:          0  MISS:          0
L1D WRITEBACK ACCESS:          0  HIT:          0  MISS:          0
L1I TOTAL     ACCESS:  170985438  HIT:  170984292  MISS:       1146
L1I LOAD      ACCESS:  170985438  HIT:  170984292  MISS:       1146
L1I RFO       ACCESS:          0  HIT:          0  MISS:          0
L1I PREFETCH  ACCESS:          0  HIT:          0  MISS:          0
L1I WRITEBACK ACCESS:          0  HIT:          0  MISS:          0
L2C TOTAL     ACCESS:   21254725  HIT:   13096871  MISS:    8157854
L2C LOAD      ACCESS:   10337630  HIT:    3201277  MISS:    7136353
L2C RFO       ACCESS:     131037  HIT:       7999  MISS:     123038
L2C PREFETCH  ACCESS:    8795277  HIT:    7921642  MISS:     873635
L2C WRITEBACK ACCESS:    1990781  HIT:    1965953  MISS:      24828
LLC TOTAL     ACCESS:   22798133  HIT:   21651152  MISS:    1146981
LLC LOAD      ACCESS:    6604535  HIT:    6273365  MISS:     331170
LLC RFO       ACCESS:     123038  HIT:      81747  MISS:      41291
LLC PREFETCH  ACCESS:   14423500  HIT:   13658753  MISS:     764747
LLC WRITEBACK ACCESS:    1647060  HIT:    1637287  MISS:       9773

CPU 6 cumulative IPC: 0.545753 instructions: 311560558 cycles: 570882189
L1D TOTAL     ACCESS:   42898297  HIT:   37847947  MISS:    5050350
L1D LOAD      ACCESS:   31143176  HIT:   27321016  MISS:    3822160
L1D RFO       ACCESS:   11755121  HIT:   10526931  MISS:    1228190
L1D PREFETCH  ACCESS:          0  HIT:          0  MISS:          0
L1D WRITEBACK ACCESS:          0  HIT:          0  MISS:          0
L1I TOTAL     ACCESS:   71082515  HIT:   71082436  MISS:         79
L1I LOAD      ACCESS:   71082515  HIT:   71082436  MISS:         79
L1I RFO       ACCESS:          0  HIT:          0  MISS:          0
L1I PREFETCH  ACCESS:          0  HIT:          0  MISS:          0
L1I WRITEBACK ACCESS:          0  HIT:          0  MISS:          0
L2C TOTAL     ACCESS:    7525676  HIT:    2415678  MISS:    5109998
L2C LOAD      ACCESS:    3822239  HIT:     527870  MISS:    3294369
L2C RFO       ACCESS:    1228190  HIT:          0  MISS:    1228190
L2C PREFETCH  ACCESS:     731955  HIT:     144950  MISS:     587005
L2C WRITEBACK ACCESS:    1743292  HIT:    1742858  MISS:        434
LLC TOTAL     ACCESS:   12001513  HIT:    6128300  MISS:    5873213
LLC LOAD      ACCESS:    2913841  HIT:    1578468  MISS:    1335373
LLC RFO       ACCESS:    1228190  HIT:        128  MISS:    1228062
LLC PREFETCH  ACCESS:    6113867  HIT:    2818988  MISS:    3294879
LLC WRITEBACK ACCESS:    1745615  HIT:    1730716  MISS:      14899

CPU 7 cumulative IPC: 0.447051 instructions: 255213589 cycles: 570882189
L1D TOTAL     ACCESS:   36355353  HIT:   29846876  MISS:    6508477
L1D LOAD      ACCESS:   28924334  HIT:   22415901  MISS:    6508433
L1D RFO       ACCESS:    7431019  HIT:    7430975  MISS:         44
L1D PREFETCH  ACCESS:          0  HIT:          0  MISS:          0
L1D WRITEBACK ACCESS:          0  HIT:          0  MISS:          0
L1I TOTAL     ACCESS:   70224534  HIT:   70224520  MISS:         14
L1I LOAD      ACCESS:   70224534  HIT:   70224520  MISS:         14
L1I RFO       ACCESS:          0  HIT:          0  MISS:          0
L1I PREFETCH  ACCESS:          0  HIT:          0  MISS:          0
L1I WRITEBACK ACCESS:          0  HIT:          0  MISS:          0
L2C TOTAL     ACCESS:   10376362  HIT:    3867864  MISS:    6508498
L2C LOAD      ACCESS:    6508447  HIT:    1252968  MISS:    5255479
L2C RFO       ACCESS:         44  HIT:          0  MISS:         44
L2C PREFETCH  ACCESS:    1254579  HIT:       1604  MISS:    1252975
L2C WRITEBACK ACCESS:    2613292  HIT:    2613292  MISS:          0
LLC TOTAL     ACCESS:   17082509  HIT:   10573932  MISS:    6508577
LLC LOAD      ACCESS:    3768749  HIT:    2498762  MISS:    1269987
LLC RFO       ACCESS:         44  HIT:          0  MISS:         44
LLC PREFETCH  ACCESS:   10702472  HIT:    5463926  MISS:    5238546
LLC WRITEBACK ACCESS:    2611244  HIT:    2611244  MISS:          0

Region of Interest Statistics

CPU 0 cumulative IPC: 0.884932 instructions: 100000002 cycles: 113003054
L1D TOTAL     ACCESS:   25322557  HIT:   24640321  MISS:     682236
L1D LOAD      ACCESS:   14689009  HIT:   14103889  MISS:     585120
L1D RFO       ACCESS:   10633548  HIT:   10536432  MISS:      97116
L1D PREFETCH  ACCESS:          0  HIT:          0  MISS:          0
L1D WRITEBACK ACCESS:          0  HIT:          0  MISS:          0
L1D PREFETCH  REQUESTED:          0  ISSUED:          0  USEFUL:          0  USELESS:          0
L1I TOTAL     ACCESS:   21075058  HIT:   21075051  MISS:          7
L1I LOAD      ACCESS:   21075058  HIT:   21075051  MISS:          7
L1I RFO       ACCESS:          0  HIT:          0  MISS:          0
L1I PREFETCH  ACCESS:          0  HIT:          0  MISS:          0
L1I WRITEBACK ACCESS:          0  HIT:          0  MISS:          0
L1I PREFETCH  REQUESTED:          0  ISSUED:          0  USEFUL:          0  USELESS:          0
L2C TOTAL     ACCESS:    1157203  HIT:     692804  MISS:     464399
L2C LOAD      ACCESS:     585124  HIT:     299291  MISS:     285833
L2C RFO       ACCESS:      97116  HIT:      12581  MISS:      84535
L2C PREFETCH  ACCESS:     280574  HIT:     186686  MISS:      93888
L2C WRITEBACK ACCESS:     194389  HIT:     194246  MISS:        143
L2C PREFETCH  REQUESTED:    4689764  ISSUED:    4689764  USEFUL:     320673  USELESS:      30204
LLC TOTAL     ACCESS:    1313191  HIT:    1039353  MISS:     273838
LLC LOAD      ACCESS:     279336  HIT:     238598  MISS:      40738
LLC RFO       ACCESS:      84535  HIT:        887  MISS:      83648
LLC PREFETCH  ACCESS:     772885  HIT:     649552  MISS:     123333
LLC WRITEBACK ACCESS:     176435  HIT:     150316  MISS:      26119
LLC PREFETCH  REQUESTED:          0  ISSUED:          0  USEFUL:   12046375  USELESS:   15966662
Major fault: 0 Minor fault: 2386

CPU 1 cumulative IPC: 0.499035 instructions: 100000003 cycles: 200386816
L1D TOTAL     ACCESS:   49859511  HIT:   46473190  MISS:    3386321
L1D LOAD      ACCESS:   46441479  HIT:   43055186  MISS:    3386293
L1D RFO       ACCESS:    3418032  HIT:    3418004  MISS:         28
L1D PREFETCH  ACCESS:          0  HIT:          0  MISS:          0
L1D WRITEBACK ACCESS:          0  HIT:          0  MISS:          0
L1D PREFETCH  REQUESTED:          0  ISSUED:          0  USEFUL:          0  USELESS:          0
L1I TOTAL     ACCESS:   23438348  HIT:   23438164  MISS:        184
L1I LOAD      ACCESS:   23438348  HIT:   23438164  MISS:        184
L1I RFO       ACCESS:          0  HIT:          0  MISS:          0
L1I PREFETCH  ACCESS:          0  HIT:          0  MISS:          0
L1I WRITEBACK ACCESS:          0  HIT:          0  MISS:          0
L1I PREFETCH  REQUESTED:          0  ISSUED:          0  USEFUL:          0  USELESS:          0
L2C TOTAL     ACCESS:    6889274  HIT:    6008022  MISS:     881252
L2C LOAD      ACCESS:    3386475  HIT:    2588173  MISS:     798302
L2C RFO       ACCESS:         28  HIT:          0  MISS:         28
L2C PREFETCH  ACCESS:    3004184  HIT:    2921422  MISS:      82762
L2C WRITEBACK ACCESS:     498587  HIT:     498427  MISS:        160
L2C PREFETCH  REQUESTED:   47553447  ISSUED:   47418913  USEFUL:    5241481  USELESS:     250489
LLC TOTAL     ACCESS:    2507616  HIT:    1654718  MISS:     852898
LLC LOAD      ACCESS:     796388  HIT:     443778  MISS:     352610
LLC RFO       ACCESS:         28  HIT:          0  MISS:         28
LLC PREFETCH  ACCESS:    1639937  HIT:    1145769  MISS:     494168
LLC WRITEBACK ACCESS:      71263  HIT:      65171  MISS:       6092
LLC PREFETCH  REQUESTED:          0  ISSUED:          0  USEFUL:   12046375  USELESS:   15966662
Major fault: 0 Minor fault: 120147

CPU 2 cumulative IPC: 0.465157 instructions: 100000002 cycles: 214981264
L1D TOTAL     ACCESS:   58456661  HIT:   57336560  MISS:    1120101
L1D LOAD      ACCESS:   50908746  HIT:   49788689  MISS:    1120057
L1D RFO       ACCESS:    7547915  HIT:    7547871  MISS:         44
L1D PREFETCH  ACCESS:          0  HIT:          0  MISS:          0
L1D WRITEBACK ACCESS:          0  HIT:          0  MISS:          0
L1D PREFETCH  REQUESTED:          0  ISSUED:          0  USEFUL:          0  USELESS:          0
L1I TOTAL     ACCESS:   28689597  HIT:   28689543  MISS:         54
L1I LOAD      ACCESS:   28689597  HIT:   28689543  MISS:         54
L1I RFO       ACCESS:          0  HIT:          0  MISS:          0
L1I PREFETCH  ACCESS:          0  HIT:          0  MISS:          0
L1I WRITEBACK ACCESS:          0  HIT:          0  MISS:          0
L1I PREFETCH  REQUESTED:          0  ISSUED:          0  USEFUL:          0  USELESS:          0
L2C TOTAL     ACCESS:    1923306  HIT:     874086  MISS:    1049220
L2C LOAD      ACCESS:    1120029  HIT:     237770  MISS:     882259
L2C RFO       ACCESS:         36  HIT:         30  MISS:          6
L2C PREFETCH  ACCESS:     296369  HIT:     129486  MISS:     166883
L2C WRITEBACK ACCESS:     506872  HIT:     506800  MISS:         72
L2C PREFETCH  REQUESTED:    9196457  ISSUED:    9196384  USEFUL:     816982  USELESS:      36536
LLC TOTAL     ACCESS:    3367220  HIT:    2037653  MISS:    1329567
LLC LOAD      ACCESS:     880464  HIT:     451729  MISS:     428735
LLC RFO       ACCESS:          6  HIT:          1  MISS:          5
LLC PREFETCH  ACCESS:    1980670  HIT:    1080102  MISS:     900568
LLC WRITEBACK ACCESS:     506080  HIT:     505821  MISS:        259
LLC PREFETCH  REQUESTED:          0  ISSUED:          0  USEFUL:   12046375  USELESS:   15966662
Major fault: 0 Minor fault: 161571

CPU 3 cumulative IPC: 0.787142 instructions: 100000003 cycles: 127041911
L1D TOTAL     ACCESS:   16792175  HIT:   15308354  MISS:    1483821
L1D LOAD      ACCESS:   15228791  HIT:   13813793  MISS:    1414998
L1D RFO       ACCESS:    1563384  HIT:    1494561  MISS:      68823
L1D PREFETCH  ACCESS:          0  HIT:          0  MISS:          0
L1D WRITEBACK ACCESS:          0  HIT:          0  MISS:          0
L1D PREFETCH  REQUESTED:          0  ISSUED:          0  USEFUL:          0  USELESS:          0
L1I TOTAL     ACCESS:   26318215  HIT:   26318144  MISS:         71
L1I LOAD      ACCESS:   26318215  HIT:   26318144  MISS:         71
L1I RFO       ACCESS:          0  HIT:          0  MISS:          0
L1I PREFETCH  ACCESS:          0  HIT:          0  MISS:          0
L1I WRITEBACK ACCESS:          0  HIT:          0  MISS:          0
L1I PREFETCH  REQUESTED:          0  ISSUED:          0  USEFUL:          0  USELESS:          0
L2C TOTAL     ACCESS:    2321991  HIT:    1046524  MISS:    1275467
L2C LOAD      ACCESS:    1415069  HIT:     682122  MISS:     732947
L2C RFO       ACCESS:      68822  HIT:       7910  MISS:      60912
L2C PREFETCH  ACCESS:     748661  HIT:     267297  MISS:     481364
L2C WRITEBACK ACCESS:      89439  HIT:      89195  MISS:        244
L2C PREFETCH  REQUESTED:   22877088  ISSUED:   22877082  USEFUL:    2074429  USELESS:      97438
LLC TOTAL     ACCESS:    4668121  HIT:    3344787  MISS:    1323334
LLC LOAD      ACCESS:     665863  HIT:     469760  MISS:     196103
LLC RFO       ACCESS:      60912  HIT:      16463  MISS:      44449
LLC PREFETCH  ACCESS:    3863029  HIT:    2780505  MISS:    1082524
LLC WRITEBACK ACCESS:      78317  HIT:      78059  MISS:        258
LLC PREFETCH  REQUESTED:          0  ISSUED:          0  USEFUL:   12046375  USELESS:   15966662
Major fault: 0 Minor fault: 4380

CPU 4 cumulative IPC: 0.175168 instructions: 100000001 cycles: 570882189
L1D TOTAL     ACCESS:   20476530  HIT:   17680560  MISS:    2795970
L1D LOAD      ACCESS:   17100816  HIT:   14324068  MISS:    2776748
L1D RFO       ACCESS:    3375714  HIT:    3356492  MISS:      19222
L1D PREFETCH  ACCESS:          0  HIT:          0  MISS:          0
L1D WRITEBACK ACCESS:          0  HIT:          0  MISS:          0
L1D PREFETCH  REQUESTED:          0  ISSUED:          0  USEFUL:          0  USELESS:          0
L1I TOTAL     ACCESS:   32797203  HIT:   32665308  MISS:     131895
L1I LOAD      ACCESS:   32797203  HIT:   32665308  MISS:     131895
L1I RFO       ACCESS:          0  HIT:          0  MISS:          0
L1I PREFETCH  ACCESS:          0  HIT:          0  MISS:          0
L1I WRITEBACK ACCESS:          0  HIT:          0  MISS:          0
L1I PREFETCH  REQUESTED:          0  ISSUED:          0  USEFUL:          0  USELESS:          0
L2C TOTAL     ACCESS:    3343175  HIT:     509976  MISS:    2833199
L2C LOAD      ACCESS:    2908639  HIT:     180450  MISS:    2728189
L2C RFO       ACCESS:      19220  HIT:       8041  MISS:      11179
L2C PREFETCH  ACCESS:     369763  HIT:     276907  MISS:      92856
L2C WRITEBACK ACCESS:      45553  HIT:      44578  MISS:        975
L2C PREFETCH  REQUESTED:    3202320  ISSUED:    3202221  USEFUL:      65970  USELESS:      51675
LLC TOTAL     ACCESS:    4473332  HIT:     858186  MISS:    3615146
LLC LOAD      ACCESS:    2719544  HIT:     441697  MISS:    2277847
LLC RFO       ACCESS:      11167  HIT:       1251  MISS:       9916
LLC PREFETCH  ACCESS:    1721056  HIT:     394225  MISS:    1326831
LLC WRITEBACK ACCESS:      21565  HIT:      21013  MISS:        552
LLC PREFETCH  REQUESTED:          0  ISSUED:          0  USEFUL:   12046375  USELESS:   15966662
Major fault: 0 Minor fault: 21544

CPU 5 cumulative IPC: 1.41238 instructions: 100000001 cycles: 70802344
L1D TOTAL     ACCESS:   18026680  HIT:   16710525  MISS:    1316155
L1D LOAD      ACCESS:   14354342  HIT:   13071413  MISS:    1282929
L1D RFO       ACCESS:    3672338  HIT:    3639112  MISS:      33226
L1D PREFETCH  ACCESS:          0  HIT:          0  MISS:          0
L1D WRITEBACK ACCESS:          0  HIT:          0  MISS:          0
L1D PREFETCH  REQUESTED:          0  ISSUED:          0  USEFUL:          0  USELESS:          0
L1I TOTAL     ACCESS:   21495246  HIT:   21494781  MISS:        465
L1I LOAD      ACCESS:   21495246  HIT:   21494781  MISS:        465
L1I RFO       ACCESS:          0  HIT:          0  MISS:          0
L1I PREFETCH  ACCESS:          0  HIT:          0  MISS:          0
L1I WRITEBACK ACCESS:          0  HIT:          0  MISS:          0
L1I PREFETCH  REQUESTED:          0  ISSUED:          0  USEFUL:          0  USELESS:          0
L2C TOTAL     ACCESS:    2742746  HIT:    1611437  MISS:    1131309
L2C LOAD      ACCESS:    1283394  HIT:     351361  MISS:     932033
L2C RFO       ACCESS:      33226  HIT:       1026  MISS:      32200
L2C PREFETCH  ACCESS:    1017392  HIT:     857007  MISS:     160385
L2C WRITEBACK ACCESS:     408734  HIT:     402043  MISS:       6691
L2C PREFETCH  REQUESTED:   38983686  ISSUED:   38983681  USEFUL:     888056  USELESS:      28026
LLC TOTAL     ACCESS:    3636609  HIT:    3510502  MISS:     126107
LLC LOAD      ACCESS:     839406  HIT:     810893  MISS:      28513
LLC RFO       ACCESS:      32200  HIT:      21271  MISS:      10929
LLC PREFETCH  ACCESS:    2420876  HIT:    2335775  MISS:      85101
LLC WRITEBACK ACCESS:     344127  HIT:     342563  MISS:       1564
LLC PREFETCH  REQUESTED:          0  ISSUED:          0  USEFUL:   12046375  USELESS:   15966662
Major fault: 0 Minor fault: 3961

CPU 6 cumulative IPC: 0.599857 instructions: 100000001 cycles: 166706380
L1D TOTAL     ACCESS:   13651788  HIT:   12011663  MISS:    1640125
L1D LOAD      ACCESS:   10138860  HIT:    9097945  MISS:    1040915
L1D RFO       ACCESS:    3512928  HIT:    2913718  MISS:     599210
L1D PREFETCH  ACCESS:          0  HIT:          0  MISS:          0
L1D WRITEBACK ACCESS:          0  HIT:          0  MISS:          0
L1D PREFETCH  REQUESTED:          0  ISSUED:          0  USEFUL:          0  USELESS:          0
L1I TOTAL     ACCESS:   22599899  HIT:   22599849  MISS:         50
L1I LOAD      ACCESS:   22599899  HIT:   22599849  MISS:         50
L1I RFO       ACCESS:          0  HIT:          0  MISS:          0
L1I PREFETCH  ACCESS:          0  HIT:          0  MISS:          0
L1I WRITEBACK ACCESS:          0  HIT:          0  MISS:          0
L1I PREFETCH  REQUESTED:          0  ISSUED:          0  USEFUL:          0  USELESS:          0
L2C TOTAL     ACCESS:    2419340  HIT:     762525  MISS:    1656815
L2C LOAD      ACCESS:    1040965  HIT:      69005  MISS:     971960
L2C RFO       ACCESS:     599210  HIT:          0  MISS:     599210
L2C PREFETCH  ACCESS:     145210  HIT:      59666  MISS:      85544
L2C WRITEBACK ACCESS:     633955  HIT:     633854  MISS:        101
L2C PREFETCH  REQUESTED:   11817055  ISSUED:   11817055  USEFUL:     642427  USELESS:      67156
LLC TOTAL     ACCESS:    3455069  HIT:    1542801  MISS:    1912268
LLC LOAD      ACCESS:     893360  HIT:     440927  MISS:     452433
LLC RFO       ACCESS:     599210  HIT:          2  MISS:     599208
LLC PREFETCH  ACCESS:    1328549  HIT:     472176  MISS:     856373
LLC WRITEBACK ACCESS:     633950  HIT:     629696  MISS:       4254
LLC PREFETCH  REQUESTED:          0  ISSUED:          0  USEFUL:   12046375  USELESS:   15966662
Major fault: 0 Minor fault: 109242

CPU 7 cumulative IPC: 0.534493 instructions: 100000003 cycles: 187093072
L1D TOTAL     ACCESS:   13906169  HIT:   11408331  MISS:    2497838
L1D LOAD      ACCESS:   11235098  HIT:    8737278  MISS:    2497820
L1D RFO       ACCESS:    2671071  HIT:    2671053  MISS:         18
L1D PREFETCH  ACCESS:          0  HIT:          0  MISS:          0
L1D WRITEBACK ACCESS:          0  HIT:          0  MISS:          0
L1D PREFETCH  REQUESTED:          0  ISSUED:          0  USEFUL:          0  USELESS:          0
L1I TOTAL     ACCESS:   28345009  HIT:   28345000  MISS:          9
L1I LOAD      ACCESS:   28345009  HIT:   28345000  MISS:          9
L1I RFO       ACCESS:          0  HIT:          0  MISS:          0
L1I PREFETCH  ACCESS:          0  HIT:          0  MISS:          0
L1I WRITEBACK ACCESS:          0  HIT:          0  MISS:          0
L1I PREFETCH  REQUESTED:          0  ISSUED:          0  USEFUL:          0  USELESS:          0
L2C TOTAL     ACCESS:    4007156  HIT:    1509306  MISS:    2497850
L2C LOAD      ACCESS:    2497829  HIT:     549286  MISS:    1948543
L2C RFO       ACCESS:         18  HIT:          0  MISS:         18
L2C PREFETCH  ACCESS:     550259  HIT:        970  MISS:     549289
L2C WRITEBACK ACCESS:     959050  HIT:     959050  MISS:          0
L2C PREFETCH  REQUESTED:   35316615  ISSUED:   35316615  USEFUL:    1698297  USELESS:          7
LLC TOTAL     ACCESS:    7097874  HIT:    4599986  MISS:    2497888
LLC LOAD      ACCESS:    1414226  HIT:    1017392  MISS:     396834
LLC RFO       ACCESS:         18  HIT:          0  MISS:         18
LLC PREFETCH  ACCESS:    4723365  HIT:    2622329  MISS:    2101036
LLC WRITEBACK ACCESS:     960265  HIT:     960265  MISS:          0
LLC PREFETCH  REQUESTED:          0  ISSUED:          0  USEFUL:   12046375  USELESS:   15966662
Major fault: 0 Minor fault: 8200

DRAM Statistics
 CHANNEL 0
 RQ ROW_BUFFER_HIT:    6016743  ROW_BUFFER_MISS:   11824505
 DBUS_CONGESTED:   34535653
 WQ ROW_BUFFER_HIT:     381230  ROW_BUFFER_MISS:    4783818  FULL:          0

 CHANNEL 1
 RQ ROW_BUFFER_HIT:    5627360  ROW_BUFFER_MISS:   11659332
 DBUS_CONGESTED:   34535653
 WQ ROW_BUFFER_HIT:     399961  ROW_BUFFER_MISS:    4906598  FULL:          0

 AVG_CONGESTED_CYCLE: 13
