Initialize SIGNATURE TABLE
ST_SET: 1
ST_WAY: 256
ST_TAG_BIT: 16
ST_TAG_MASK: ffff

Initialize PATTERN TABLE
PT_SET: 512
PT_WAY: 4
SIG_DELTA_BIT: 7
C_SIG_BIT: 4
C_DELTA_BIT: 4

Initialize PREFETCH FILTER
FILTER_SET: 1024

*** ChampSim Multicore Out-of-Order Simulator ***

Warmup Instructions: 20000000
Simulation Instructions: 100000000
Number of CPUs: 8
LLC sets: 16384
LLC ways: 16
Off-chip DRAM Size: 8192 MB Channels: 2 Width: 64-bit Data Rate: 1600 MT/s

CPU 0 runs /scratch/user/djimenez/champsim-traces/speccpu2006/xz/473.astar-153B.champsimtrace.xz
CPU 1 runs /scratch/user/djimenez/champsim-traces/speccpu2006/xz/482.sphinx3-1395B.champsimtrace.xz
CPU 2 runs /scratch/user/djimenez/champsim-traces/speccpu2006/xz/462.libquantum-1343B.champsimtrace.xz
CPU 3 runs /scratch/user/djimenez/champsim-traces/speccpu2006/xz/437.leslie3d-273B.champsimtrace.xz
CPU 4 runs /scratch/user/djimenez/champsim-traces/speccpu2006/xz/481.wrf-1170B.champsimtrace.xz
CPU 5 runs /scratch/user/djimenez/champsim-traces/speccpu2006/xz/459.GemsFDTD-765B.champsimtrace.xz
CPU 6 runs /scratch/user/djimenez/champsim-traces/speccpu2006/xz/450.soplex-247B.champsimtrace.xz
CPU 7 runs /scratch/user/djimenez/champsim-traces/speccpu2006/xz/459.GemsFDTD-1418B.champsimtrace.xz
Heartbeat CPU 1 instructions: 10000001 cycles: 3911467 heartbeat IPC: 2.55659 cumulative IPC: 2.55659 (Simulation time: 0 hr 3 min 8 sec) 
Heartbeat CPU 3 instructions: 10000002 cycles: 4932662 heartbeat IPC: 2.0273 cumulative IPC: 2.0273 (Simulation time: 0 hr 3 min 56 sec) 
Heartbeat CPU 2 instructions: 10000002 cycles: 5045097 heartbeat IPC: 1.98212 cumulative IPC: 1.98212 (Simulation time: 0 hr 4 min 1 sec) 
Heartbeat CPU 0 instructions: 10000002 cycles: 5811186 heartbeat IPC: 1.72082 cumulative IPC: 1.72082 (Simulation time: 0 hr 4 min 36 sec) 
Heartbeat CPU 6 instructions: 10000000 cycles: 5999059 heartbeat IPC: 1.66693 cumulative IPC: 1.66693 (Simulation time: 0 hr 4 min 44 sec) 
Heartbeat CPU 4 instructions: 10000001 cycles: 6135516 heartbeat IPC: 1.62985 cumulative IPC: 1.62985 (Simulation time: 0 hr 4 min 51 sec) 
Heartbeat CPU 1 instructions: 20000000 cycles: 7880363 heartbeat IPC: 2.51959 cumulative IPC: 2.53795 (Simulation time: 0 hr 6 min 10 sec) 
Heartbeat CPU 7 instructions: 10000003 cycles: 7881402 heartbeat IPC: 1.26881 cumulative IPC: 1.26881 (Simulation time: 0 hr 6 min 10 sec) 
Heartbeat CPU 5 instructions: 10000001 cycles: 8130381 heartbeat IPC: 1.22995 cumulative IPC: 1.22995 (Simulation time: 0 hr 6 min 22 sec) 
Heartbeat CPU 3 instructions: 20000000 cycles: 9809050 heartbeat IPC: 2.0507 cumulative IPC: 2.03893 (Simulation time: 0 hr 7 min 38 sec) 
Heartbeat CPU 2 instructions: 20000000 cycles: 10040530 heartbeat IPC: 2.00183 cumulative IPC: 1.99193 (Simulation time: 0 hr 7 min 49 sec) 
Heartbeat CPU 6 instructions: 20000000 cycles: 11090103 heartbeat IPC: 1.96423 cumulative IPC: 1.80341 (Simulation time: 0 hr 8 min 38 sec) 
Heartbeat CPU 0 instructions: 20000000 cycles: 11601245 heartbeat IPC: 1.7271 cumulative IPC: 1.72395 (Simulation time: 0 hr 9 min 2 sec) 
Heartbeat CPU 1 instructions: 30000000 cycles: 11718043 heartbeat IPC: 2.60574 cumulative IPC: 0.853385 (Simulation time: 0 hr 9 min 8 sec) 
Heartbeat CPU 4 instructions: 20000000 cycles: 12265167 heartbeat IPC: 1.63141 cumulative IPC: 1.63063 (Simulation time: 0 hr 9 min 32 sec) 
Heartbeat CPU 3 instructions: 30000002 cycles: 14845644 heartbeat IPC: 1.98547 cumulative IPC: 0.673598 (Simulation time: 0 hr 11 min 32 sec) 
Heartbeat CPU 2 instructions: 30000000 cycles: 15234733 heartbeat IPC: 1.92522 cumulative IPC: 0.656395 (Simulation time: 0 hr 11 min 49 sec) 
Heartbeat CPU 1 instructions: 40000000 cycles: 15557292 heartbeat IPC: 2.60468 cumulative IPC: 1.28557 (Simulation time: 0 hr 12 min 4 sec) 
Heartbeat CPU 7 instructions: 20000000 cycles: 15761814 heartbeat IPC: 1.26897 cumulative IPC: 1.26889 (Simulation time: 0 hr 12 min 15 sec) 
Heartbeat CPU 6 instructions: 30000001 cycles: 16153620 heartbeat IPC: 1.97491 cumulative IPC: 0.619056 (Simulation time: 0 hr 12 min 35 sec) 
Heartbeat CPU 5 instructions: 20000000 cycles: 16260116 heartbeat IPC: 1.23005 cumulative IPC: 1.23 (Simulation time: 0 hr 12 min 40 sec) 

Warmup complete CPU 0 instructions: 28053329 cycles: 16260117 (Simulation time: 0 hr 12 min 40 sec) 
Warmup complete CPU 1 instructions: 41970181 cycles: 16260117 (Simulation time: 0 hr 12 min 40 sec) 
Warmup complete CPU 2 instructions: 31913171 cycles: 16260117 (Simulation time: 0 hr 12 min 40 sec) 
Warmup complete CPU 3 instructions: 32808893 cycles: 16260117 (Simulation time: 0 hr 12 min 40 sec) 
Warmup complete CPU 4 instructions: 26519390 cycles: 16260117 (Simulation time: 0 hr 12 min 40 sec) 
Warmup complete CPU 5 instructions: 20000001 cycles: 16260117 (Simulation time: 0 hr 12 min 40 sec) 
Warmup complete CPU 6 instructions: 30202369 cycles: 16260116 (Simulation time: 0 hr 12 min 40 sec) 
Warmup complete CPU 7 instructions: 20632449 cycles: 16260116 (Simulation time: 0 hr 12 min 40 sec) 

Heartbeat CPU 0 instructions: 30000000 cycles: 20568099 heartbeat IPC: 1.11522 cumulative IPC: 0.451875 (Simulation time: 0 hr 14 min 29 sec) 
Heartbeat CPU 4 instructions: 30000003 cycles: 21631282 heartbeat IPC: 1.06768 cumulative IPC: 0.648018 (Simulation time: 0 hr 14 min 54 sec) 
Heartbeat CPU 3 instructions: 40000000 cycles: 23320543 heartbeat IPC: 1.17995 cumulative IPC: 1.01851 (Simulation time: 0 hr 15 min 34 sec) 
Heartbeat CPU 1 instructions: 50000001 cycles: 24942355 heartbeat IPC: 1.06552 cumulative IPC: 0.924856 (Simulation time: 0 hr 16 min 11 sec) 
Heartbeat CPU 7 instructions: 30000002 cycles: 29406422 heartbeat IPC: 0.73289 cumulative IPC: 0.712562 (Simulation time: 0 hr 18 min 5 sec) 
Heartbeat CPU 3 instructions: 50000003 cycles: 33172344 heartbeat IPC: 1.01504 cumulative IPC: 1.01649 (Simulation time: 0 hr 19 min 40 sec) 
Heartbeat CPU 5 instructions: 30000001 cycles: 34105180 heartbeat IPC: 0.560379 cumulative IPC: 0.560379 (Simulation time: 0 hr 20 min 4 sec) 
Heartbeat CPU 1 instructions: 60000000 cycles: 34334478 heartbeat IPC: 1.06472 cumulative IPC: 0.997536 (Simulation time: 0 hr 20 min 10 sec) 
Heartbeat CPU 2 instructions: 40000000 cycles: 37097343 heartbeat IPC: 0.457402 cumulative IPC: 0.388095 (Simulation time: 0 hr 21 min 19 sec) 
Heartbeat CPU 4 instructions: 40000000 cycles: 37150627 heartbeat IPC: 0.644357 cumulative IPC: 0.645298 (Simulation time: 0 hr 21 min 20 sec) 
Heartbeat CPU 3 instructions: 60000000 cycles: 43020923 heartbeat IPC: 1.01537 cumulative IPC: 1.01608 (Simulation time: 0 hr 23 min 44 sec) 
Heartbeat CPU 0 instructions: 40000000 cycles: 43185474 heartbeat IPC: 0.442138 cumulative IPC: 0.443696 (Simulation time: 0 hr 23 min 48 sec) 
Heartbeat CPU 7 instructions: 40000000 cycles: 43610978 heartbeat IPC: 0.703999 cumulative IPC: 0.708115 (Simulation time: 0 hr 23 min 59 sec) 
Heartbeat CPU 6 instructions: 40000000 cycles: 43988543 heartbeat IPC: 0.359261 cumulative IPC: 0.353342 (Simulation time: 0 hr 24 min 8 sec) 
Heartbeat CPU 1 instructions: 70000000 cycles: 44853825 heartbeat IPC: 0.950629 cumulative IPC: 0.980279 (Simulation time: 0 hr 24 min 32 sec) 
Heartbeat CPU 5 instructions: 40000000 cycles: 52103869 heartbeat IPC: 0.555596 cumulative IPC: 0.557977 (Simulation time: 0 hr 27 min 30 sec) 
Heartbeat CPU 4 instructions: 50000001 cycles: 52614460 heartbeat IPC: 0.64667 cumulative IPC: 0.645882 (Simulation time: 0 hr 27 min 43 sec) 
Heartbeat CPU 3 instructions: 70000000 cycles: 52860166 heartbeat IPC: 1.01634 cumulative IPC: 1.01615 (Simulation time: 0 hr 27 min 50 sec) 
Heartbeat CPU 1 instructions: 80000000 cycles: 56097590 heartbeat IPC: 0.889382 cumulative IPC: 0.954624 (Simulation time: 0 hr 29 min 4 sec) 
Heartbeat CPU 7 instructions: 50000002 cycles: 57919894 heartbeat IPC: 0.698865 cumulative IPC: 0.704938 (Simulation time: 0 hr 29 min 50 sec) 
Heartbeat CPU 2 instructions: 50000001 cycles: 61730130 heartbeat IPC: 0.405963 cumulative IPC: 0.397775 (Simulation time: 0 hr 31 min 24 sec) 
Heartbeat CPU 3 instructions: 80000000 cycles: 62796162 heartbeat IPC: 1.00644 cumulative IPC: 1.01408 (Simulation time: 0 hr 31 min 50 sec) 
Heartbeat CPU 1 instructions: 90000000 cycles: 65909038 heartbeat IPC: 1.01922 cumulative IPC: 0.967389 (Simulation time: 0 hr 33 min 12 sec) 
Heartbeat CPU 0 instructions: 50000000 cycles: 66242225 heartbeat IPC: 0.433712 cumulative IPC: 0.439091 (Simulation time: 0 hr 33 min 20 sec) 
Heartbeat CPU 4 instructions: 60000000 cycles: 68297828 heartbeat IPC: 0.637618 cumulative IPC: 0.643391 (Simulation time: 0 hr 34 min 7 sec) 
Heartbeat CPU 7 instructions: 60000000 cycles: 72392929 heartbeat IPC: 0.69094 cumulative IPC: 0.701329 (Simulation time: 0 hr 35 min 43 sec) 
Heartbeat CPU 3 instructions: 90000002 cycles: 72874548 heartbeat IPC: 0.992223 cumulative IPC: 1.01019 (Simulation time: 0 hr 35 min 55 sec) 
Heartbeat CPU 1 instructions: 100000000 cycles: 74409515 heartbeat IPC: 1.1764 cumulative IPC: 0.997944 (Simulation time: 0 hr 36 min 30 sec) 
Heartbeat CPU 6 instructions: 50000001 cycles: 76930965 heartbeat IPC: 0.30356 cumulative IPC: 0.326312 (Simulation time: 0 hr 37 min 31 sec) 
Heartbeat CPU 3 instructions: 100000000 cycles: 82944391 heartbeat IPC: 0.993064 cumulative IPC: 1.0076 (Simulation time: 0 hr 39 min 38 sec) 
Heartbeat CPU 4 instructions: 70000000 cycles: 83901448 heartbeat IPC: 0.640877 cumulative IPC: 0.642811 (Simulation time: 0 hr 40 min 0 sec) 
Heartbeat CPU 7 instructions: 70000001 cycles: 86991969 heartbeat IPC: 0.684977 cumulative IPC: 0.697954 (Simulation time: 0 hr 41 min 8 sec) 
Heartbeat CPU 1 instructions: 110000001 cycles: 86995471 heartbeat IPC: 0.794536 cumulative IPC: 0.961751 (Simulation time: 0 hr 41 min 8 sec) 
Heartbeat CPU 5 instructions: 50000000 cycles: 87885667 heartbeat IPC: 0.279472 cumulative IPC: 0.418845 (Simulation time: 0 hr 41 min 29 sec) 
Heartbeat CPU 2 instructions: 60000000 cycles: 87957217 heartbeat IPC: 0.381285 cumulative IPC: 0.391743 (Simulation time: 0 hr 41 min 31 sec) 
Heartbeat CPU 0 instructions: 60000000 cycles: 89149285 heartbeat IPC: 0.436547 cumulative IPC: 0.438291 (Simulation time: 0 hr 41 min 59 sec) 
Heartbeat CPU 3 instructions: 110000002 cycles: 93399080 heartbeat IPC: 0.956509 cumulative IPC: 1.00068 (Simulation time: 0 hr 43 min 30 sec) 
Heartbeat CPU 1 instructions: 120000000 cycles: 98171892 heartbeat IPC: 0.894741 cumulative IPC: 0.952608 (Simulation time: 0 hr 45 min 17 sec) 
Heartbeat CPU 4 instructions: 80000000 cycles: 99504117 heartbeat IPC: 0.640916 cumulative IPC: 0.642456 (Simulation time: 0 hr 45 min 47 sec) 
Heartbeat CPU 7 instructions: 80000000 cycles: 101452966 heartbeat IPC: 0.691515 cumulative IPC: 0.696861 (Simulation time: 0 hr 46 min 31 sec) 
Heartbeat CPU 3 instructions: 120000000 cycles: 105814197 heartbeat IPC: 0.80547 cumulative IPC: 0.973614 (Simulation time: 0 hr 48 min 13 sec) 
Heartbeat CPU 1 instructions: 130000001 cycles: 106328789 heartbeat IPC: 1.22596 cumulative IPC: 0.977363 (Simulation time: 0 hr 48 min 25 sec) 
Heartbeat CPU 2 instructions: 70000003 cycles: 107697766 heartbeat IPC: 0.506572 cumulative IPC: 0.416533 (Simulation time: 0 hr 48 min 59 sec) 
Heartbeat CPU 6 instructions: 60000000 cycles: 108688476 heartbeat IPC: 0.314886 cumulative IPC: 0.322386 (Simulation time: 0 hr 49 min 22 sec) 
Heartbeat CPU 0 instructions: 70000000 cycles: 109357399 heartbeat IPC: 0.494851 cumulative IPC: 0.450568 (Simulation time: 0 hr 49 min 38 sec) 
Heartbeat CPU 1 instructions: 140000000 cycles: 113713614 heartbeat IPC: 1.35413 cumulative IPC: 1.00591 (Simulation time: 0 hr 51 min 21 sec) 
Heartbeat CPU 4 instructions: 90000001 cycles: 114957042 heartbeat IPC: 0.647127 cumulative IPC: 0.643187 (Simulation time: 0 hr 51 min 50 sec) 
Finished CPU 1 instructions: 100000001 cycles: 99135553 cumulative IPC: 1.00872 (Simulation time: 0 hr 52 min 0 sec) 
Heartbeat CPU 7 instructions: 90000003 cycles: 115735400 heartbeat IPC: 0.700161 cumulative IPC: 0.697335 (Simulation time: 0 hr 52 min 7 sec) 
Heartbeat CPU 3 instructions: 130000003 cycles: 118101252 heartbeat IPC: 0.813865 cumulative IPC: 0.95434 (Simulation time: 0 hr 53 min 0 sec) 
Finished CPU 3 instructions: 100000000 cycles: 105315431 cumulative IPC: 0.949528 (Simulation time: 0 hr 54 min 20 sec) 
Heartbeat CPU 1 instructions: 150000000 cycles: 121736575 heartbeat IPC: 1.24642 cumulative IPC: 1.02421 (Simulation time: 0 hr 54 min 24 sec) 
Heartbeat CPU 2 instructions: 80000000 cycles: 126226875 heartbeat IPC: 0.539691 cumulative IPC: 0.437285 (Simulation time: 0 hr 56 min 12 sec) 
Heartbeat CPU 0 instructions: 80000000 cycles: 128540173 heartbeat IPC: 0.521301 cumulative IPC: 0.462653 (Simulation time: 0 hr 57 min 6 sec) 
Heartbeat CPU 1 instructions: 160000000 cycles: 129060479 heartbeat IPC: 1.36539 cumulative IPC: 1.04636 (Simulation time: 0 hr 57 min 19 sec) 
Heartbeat CPU 7 instructions: 100000000 cycles: 130083962 heartbeat IPC: 0.696934 cumulative IPC: 0.697284 (Simulation time: 0 hr 57 min 47 sec) 
Heartbeat CPU 4 instructions: 100000000 cycles: 130433319 heartbeat IPC: 0.64615 cumulative IPC: 0.643589 (Simulation time: 0 hr 57 min 57 sec) 
Heartbeat CPU 3 instructions: 140000000 cycles: 130494963 heartbeat IPC: 0.806861 cumulative IPC: 0.93834 (Simulation time: 0 hr 58 min 0 sec) 
Heartbeat CPU 5 instructions: 60000000 cycles: 135794655 heartbeat IPC: 0.208729 cumulative IPC: 0.334631 (Simulation time: 1 hr 0 min 34 sec) 
Heartbeat CPU 1 instructions: 170000003 cycles: 136485498 heartbeat IPC: 1.3468 cumulative IPC: 1.06492 (Simulation time: 1 hr 0 min 52 sec) 
Heartbeat CPU 6 instructions: 70000000 cycles: 139149182 heartbeat IPC: 0.328292 cumulative IPC: 0.32385 (Simulation time: 1 hr 2 min 6 sec) 
Heartbeat CPU 3 instructions: 150000000 cycles: 141385915 heartbeat IPC: 0.918193 cumulative IPC: 0.936586 (Simulation time: 1 hr 3 min 14 sec) 
Heartbeat CPU 2 instructions: 90000001 cycles: 142394035 heartbeat IPC: 0.618538 cumulative IPC: 0.460517 (Simulation time: 1 hr 3 min 48 sec) 
Heartbeat CPU 7 instructions: 110000001 cycles: 144353221 heartbeat IPC: 0.700807 cumulative IPC: 0.697677 (Simulation time: 1 hr 4 min 41 sec) 
Heartbeat CPU 1 instructions: 180000000 cycles: 145042197 heartbeat IPC: 1.16867 cumulative IPC: 1.07181 (Simulation time: 1 hr 5 min 0 sec) 
Heartbeat CPU 4 instructions: 110000001 cycles: 145806678 heartbeat IPC: 0.650476 cumulative IPC: 0.644406 (Simulation time: 1 hr 5 min 21 sec) 
Heartbeat CPU 0 instructions: 90000000 cycles: 147247663 heartbeat IPC: 0.534545 cumulative IPC: 0.47292 (Simulation time: 1 hr 6 min 1 sec) 
Heartbeat CPU 3 instructions: 160000000 cycles: 151060076 heartbeat IPC: 1.03368 cumulative IPC: 0.943555 (Simulation time: 1 hr 7 min 52 sec) 
Heartbeat CPU 5 instructions: 70000001 cycles: 153571439 heartbeat IPC: 0.562532 cumulative IPC: 0.364136 (Simulation time: 1 hr 9 min 1 sec) 
Heartbeat CPU 1 instructions: 190000003 cycles: 155441649 heartbeat IPC: 0.961589 cumulative IPC: 1.06357 (Simulation time: 1 hr 9 min 58 sec) 
Heartbeat CPU 7 instructions: 120000000 cycles: 158536275 heartbeat IPC: 0.705067 cumulative IPC: 0.698413 (Simulation time: 1 hr 11 min 28 sec) 
Heartbeat CPU 2 instructions: 100000000 cycles: 158701916 heartbeat IPC: 0.6132 cumulative IPC: 0.477998 (Simulation time: 1 hr 11 min 32 sec) 
Finished CPU 7 instructions: 100000001 cycles: 143169947 cumulative IPC: 0.698471 (Simulation time: 1 hr 11 min 52 sec) 
Heartbeat CPU 3 instructions: 170000001 cycles: 160690851 heartbeat IPC: 1.03834 cumulative IPC: 0.949875 (Simulation time: 1 hr 12 min 29 sec) 
Heartbeat CPU 4 instructions: 120000000 cycles: 161252551 heartbeat IPC: 0.647422 cumulative IPC: 0.644728 (Simulation time: 1 hr 12 min 44 sec) 
Heartbeat CPU 1 instructions: 200000000 cycles: 166094368 heartbeat IPC: 0.938727 cumulative IPC: 1.0547 (Simulation time: 1 hr 14 min 47 sec) 
Heartbeat CPU 0 instructions: 100000000 cycles: 166450267 heartbeat IPC: 0.520763 cumulative IPC: 0.479037 (Simulation time: 1 hr 14 min 57 sec) 
Heartbeat CPU 6 instructions: 80000000 cycles: 168261377 heartbeat IPC: 0.343499 cumulative IPC: 0.327613 (Simulation time: 1 hr 15 min 40 sec) 
Heartbeat CPU 3 instructions: 180000000 cycles: 170277890 heartbeat IPC: 1.04307 cumulative IPC: 0.955676 (Simulation time: 1 hr 16 min 32 sec) 
Heartbeat CPU 5 instructions: 80000000 cycles: 171243330 heartbeat IPC: 0.56587 cumulative IPC: 0.387139 (Simulation time: 1 hr 16 min 55 sec) 
Finished CPU 4 instructions: 100000002 cycles: 155016695 cumulative IPC: 0.645092 (Simulation time: 1 hr 16 min 56 sec) 
Heartbeat CPU 7 instructions: 130000003 cycles: 172774836 heartbeat IPC: 0.702318 cumulative IPC: 0.698768 (Simulation time: 1 hr 17 min 32 sec) 
Heartbeat CPU 2 instructions: 110000000 cycles: 175303534 heartbeat IPC: 0.602351 cumulative IPC: 0.490978 (Simulation time: 1 hr 18 min 49 sec) 
Heartbeat CPU 4 instructions: 130000000 cycles: 176680801 heartbeat IPC: 0.648162 cumulative IPC: 0.645058 (Simulation time: 1 hr 19 min 22 sec) 
Heartbeat CPU 1 instructions: 210000003 cycles: 177767815 heartbeat IPC: 0.856645 cumulative IPC: 1.04038 (Simulation time: 1 hr 19 min 50 sec) 
Heartbeat CPU 3 instructions: 190000003 cycles: 179977758 heartbeat IPC: 1.03094 cumulative IPC: 0.960135 (Simulation time: 1 hr 20 min 49 sec) 
Heartbeat CPU 7 instructions: 140000000 cycles: 185146282 heartbeat IPC: 0.808313 cumulative IPC: 0.706793 (Simulation time: 1 hr 22 min 59 sec) 
Heartbeat CPU 0 instructions: 110000000 cycles: 185348901 heartbeat IPC: 0.529139 cumulative IPC: 0.484637 (Simulation time: 1 hr 23 min 4 sec) 
Heartbeat CPU 5 instructions: 90000003 cycles: 189284130 heartbeat IPC: 0.554299 cumulative IPC: 0.404568 (Simulation time: 1 hr 24 min 48 sec) 
Heartbeat CPU 1 instructions: 220000000 cycles: 189290936 heartbeat IPC: 0.86782 cumulative IPC: 1.02889 (Simulation time: 1 hr 24 min 48 sec) 
Heartbeat CPU 3 instructions: 200000000 cycles: 189523860 heartbeat IPC: 1.04755 cumulative IPC: 0.964952 (Simulation time: 1 hr 24 min 55 sec) 
Heartbeat CPU 4 instructions: 140000000 cycles: 192123894 heartbeat IPC: 0.647539 cumulative IPC: 0.645276 (Simulation time: 1 hr 26 min 0 sec) 
Heartbeat CPU 2 instructions: 120000000 cycles: 193146113 heartbeat IPC: 0.560457 cumulative IPC: 0.497986 (Simulation time: 1 hr 26 min 24 sec) 
Heartbeat CPU 7 instructions: 150000003 cycles: 198573260 heartbeat IPC: 0.744769 cumulative IPC: 0.70959 (Simulation time: 1 hr 28 min 39 sec) 
Heartbeat CPU 6 instructions: 90000000 cycles: 198689896 heartbeat IPC: 0.328639 cumulative IPC: 0.327784 (Simulation time: 1 hr 28 min 42 sec) 
Heartbeat CPU 3 instructions: 210000003 cycles: 199136148 heartbeat IPC: 1.04034 cumulative IPC: 0.968914 (Simulation time: 1 hr 28 min 54 sec) 
Heartbeat CPU 1 instructions: 230000001 cycles: 200894345 heartbeat IPC: 0.861816 cumulative IPC: 1.01839 (Simulation time: 1 hr 29 min 39 sec) 
Heartbeat CPU 0 instructions: 120000000 cycles: 204580659 heartbeat IPC: 0.519973 cumulative IPC: 0.488246 (Simulation time: 1 hr 31 min 9 sec) 
Heartbeat CPU 5 instructions: 100000000 cycles: 207212316 heartbeat IPC: 0.557781 cumulative IPC: 0.418953 (Simulation time: 1 hr 32 min 19 sec) 
Heartbeat CPU 4 instructions: 150000003 cycles: 207559047 heartbeat IPC: 0.647872 cumulative IPC: 0.645485 (Simulation time: 1 hr 32 min 28 sec) 
Heartbeat CPU 3 instructions: 220000000 cycles: 208888867 heartbeat IPC: 1.02535 cumulative IPC: 0.971771 (Simulation time: 1 hr 32 min 59 sec) 
Heartbeat CPU 2 instructions: 130000003 cycles: 211214376 heartbeat IPC: 0.553457 cumulative IPC: 0.503127 (Simulation time: 1 hr 33 min 54 sec) 
Heartbeat CPU 7 instructions: 160000000 cycles: 212871122 heartbeat IPC: 0.699405 cumulative IPC: 0.708849 (Simulation time: 1 hr 34 min 36 sec) 
Finished CPU 2 instructions: 100000002 cycles: 197975502 cumulative IPC: 0.505113 (Simulation time: 1 hr 35 min 10 sec) 
Heartbeat CPU 1 instructions: 240000000 cycles: 214668230 heartbeat IPC: 0.726012 cumulative IPC: 0.998093 (Simulation time: 1 hr 35 min 21 sec) 
Heartbeat CPU 3 instructions: 230000002 cycles: 218484755 heartbeat IPC: 1.04211 cumulative IPC: 0.975109 (Simulation time: 1 hr 37 min 1 sec) 
Finished CPU 0 instructions: 100000003 cycles: 204629895 cumulative IPC: 0.488687 (Simulation time: 1 hr 37 min 56 sec) 
Heartbeat CPU 4 instructions: 160000000 cycles: 222990356 heartbeat IPC: 0.648033 cumulative IPC: 0.645675 (Simulation time: 1 hr 38 min 53 sec) 
Heartbeat CPU 0 instructions: 130000002 cycles: 224671388 heartbeat IPC: 0.497742 cumulative IPC: 0.489161 (Simulation time: 1 hr 39 min 34 sec) 
Heartbeat CPU 5 instructions: 110000003 cycles: 225041180 heartbeat IPC: 0.560888 cumulative IPC: 0.431074 (Simulation time: 1 hr 39 min 43 sec) 
Heartbeat CPU 2 instructions: 140000000 cycles: 226798651 heartbeat IPC: 0.641672 cumulative IPC: 0.513383 (Simulation time: 1 hr 40 min 28 sec) 
Heartbeat CPU 6 instructions: 100000000 cycles: 226827682 heartbeat IPC: 0.355394 cumulative IPC: 0.331474 (Simulation time: 1 hr 40 min 29 sec) 
Heartbeat CPU 7 instructions: 170000003 cycles: 227092671 heartbeat IPC: 0.703158 cumulative IPC: 0.708465 (Simulation time: 1 hr 40 min 37 sec) 
Heartbeat CPU 1 instructions: 250000001 cycles: 227607048 heartbeat IPC: 0.772868 cumulative IPC: 0.984305 (Simulation time: 1 hr 40 min 50 sec) 
Heartbeat CPU 3 instructions: 240000000 cycles: 228120715 heartbeat IPC: 1.03778 cumulative IPC: 0.97796 (Simulation time: 1 hr 41 min 4 sec) 
Heartbeat CPU 3 instructions: 250000003 cycles: 237668640 heartbeat IPC: 1.04735 cumulative IPC: 0.980952 (Simulation time: 1 hr 44 min 50 sec) 
Heartbeat CPU 4 instructions: 170000001 cycles: 238409137 heartbeat IPC: 0.64856 cumulative IPC: 0.645876 (Simulation time: 1 hr 45 min 11 sec) 
Heartbeat CPU 1 instructions: 260000000 cycles: 240713585 heartbeat IPC: 0.762978 cumulative IPC: 0.971381 (Simulation time: 1 hr 46 min 8 sec) 
Heartbeat CPU 7 instructions: 180000000 cycles: 241148188 heartbeat IPC: 0.711464 cumulative IPC: 0.708653 (Simulation time: 1 hr 46 min 18 sec) 
Heartbeat CPU 2 instructions: 150000000 cycles: 242310318 heartbeat IPC: 0.644676 cumulative IPC: 0.522392 (Simulation time: 1 hr 46 min 46 sec) 
Heartbeat CPU 5 instructions: 120000000 cycles: 242822129 heartbeat IPC: 0.5624 cumulative IPC: 0.44138 (Simulation time: 1 hr 46 min 59 sec) 
Finished CPU 5 instructions: 100000001 cycles: 226562021 cumulative IPC: 0.44138 (Simulation time: 1 hr 46 min 59 sec) 
Heartbeat CPU 0 instructions: 140000000 cycles: 243834354 heartbeat IPC: 0.52184 cumulative IPC: 0.491913 (Simulation time: 1 hr 47 min 25 sec) 
Heartbeat CPU 3 instructions: 260000000 cycles: 247274136 heartbeat IPC: 1.04107 cumulative IPC: 0.983452 (Simulation time: 1 hr 48 min 46 sec) 
Heartbeat CPU 1 instructions: 270000003 cycles: 252605916 heartbeat IPC: 0.840878 cumulative IPC: 0.964814 (Simulation time: 1 hr 50 min 58 sec) 
Heartbeat CPU 4 instructions: 180000000 cycles: 253826480 heartbeat IPC: 0.64862 cumulative IPC: 0.646054 (Simulation time: 1 hr 51 min 29 sec) 
Heartbeat CPU 7 instructions: 190000003 cycles: 255340812 heartbeat IPC: 0.704592 cumulative IPC: 0.708412 (Simulation time: 1 hr 52 min 5 sec) 
Heartbeat CPU 3 instructions: 270000002 cycles: 256847533 heartbeat IPC: 1.04456 cumulative IPC: 0.985883 (Simulation time: 1 hr 52 min 44 sec) 
Heartbeat CPU 2 instructions: 160000000 cycles: 259189657 heartbeat IPC: 0.59244 cumulative IPC: 0.527259 (Simulation time: 1 hr 53 min 41 sec) 
Heartbeat CPU 5 instructions: 130000001 cycles: 260557505 heartbeat IPC: 0.563845 cumulative IPC: 0.450271 (Simulation time: 1 hr 54 min 16 sec) 
Heartbeat CPU 1 instructions: 280000000 cycles: 262874520 heartbeat IPC: 0.973842 cumulative IPC: 0.96519 (Simulation time: 1 hr 55 min 13 sec) 
Heartbeat CPU 0 instructions: 150000001 cycles: 263138386 heartbeat IPC: 0.518027 cumulative IPC: 0.493955 (Simulation time: 1 hr 55 min 20 sec) 
Heartbeat CPU 3 instructions: 280000000 cycles: 266371015 heartbeat IPC: 1.05004 cumulative IPC: 0.988326 (Simulation time: 1 hr 56 min 43 sec) 
Heartbeat CPU 4 instructions: 190000003 cycles: 269253375 heartbeat IPC: 0.648219 cumulative IPC: 0.646186 (Simulation time: 1 hr 57 min 57 sec) 
Heartbeat CPU 7 instructions: 200000000 cycles: 269504283 heartbeat IPC: 0.706041 cumulative IPC: 0.708279 (Simulation time: 1 hr 58 min 4 sec) 
Heartbeat CPU 6 instructions: 110000001 cycles: 270294432 heartbeat IPC: 0.230061 cumulative IPC: 0.314121 (Simulation time: 1 hr 58 min 25 sec) 
Heartbeat CPU 1 instructions: 290000001 cycles: 272002650 heartbeat IPC: 1.09551 cumulative IPC: 0.969842 (Simulation time: 1 hr 59 min 7 sec) 
Heartbeat CPU 2 instructions: 170000003 cycles: 275818570 heartbeat IPC: 0.601362 cumulative IPC: 0.532007 (Simulation time: 2 hr 0 min 47 sec) 
Heartbeat CPU 3 instructions: 290000003 cycles: 275925801 heartbeat IPC: 1.0466 cumulative IPC: 0.99047 (Simulation time: 2 hr 0 min 49 sec) 
Heartbeat CPU 5 instructions: 140000000 cycles: 278210338 heartbeat IPC: 0.566481 cumulative IPC: 0.458102 (Simulation time: 2 hr 1 min 51 sec) 
Heartbeat CPU 1 instructions: 300000000 cycles: 281601326 heartbeat IPC: 1.04181 cumulative IPC: 0.972445 (Simulation time: 2 hr 3 min 17 sec) 
Heartbeat CPU 0 instructions: 160000000 cycles: 282100714 heartbeat IPC: 0.527361 cumulative IPC: 0.496338 (Simulation time: 2 hr 3 min 29 sec) 
Heartbeat CPU 7 instructions: 210000000 cycles: 283667557 heartbeat IPC: 0.706051 cumulative IPC: 0.708161 (Simulation time: 2 hr 4 min 8 sec) 
Heartbeat CPU 4 instructions: 200000000 cycles: 284726089 heartbeat IPC: 0.646299 cumulative IPC: 0.646192 (Simulation time: 2 hr 4 min 36 sec) 
Heartbeat CPU 3 instructions: 300000000 cycles: 286158635 heartbeat IPC: 0.977246 cumulative IPC: 0.989969 (Simulation time: 2 hr 5 min 10 sec) 
Heartbeat CPU 1 instructions: 310000001 cycles: 290874655 heartbeat IPC: 1.07836 cumulative IPC: 0.976022 (Simulation time: 2 hr 7 min 6 sec) 
Heartbeat CPU 6 instructions: 120000000 cycles: 291900315 heartbeat IPC: 0.462837 cumulative IPC: 0.325778 (Simulation time: 2 hr 7 min 32 sec) 
Heartbeat CPU 2 instructions: 180000000 cycles: 293260636 heartbeat IPC: 0.573326 cumulative IPC: 0.534608 (Simulation time: 2 hr 8 min 4 sec) 
Heartbeat CPU 5 instructions: 150000001 cycles: 296070251 heartbeat IPC: 0.559913 cumulative IPC: 0.464601 (Simulation time: 2 hr 9 min 9 sec) 
Heartbeat CPU 3 instructions: 310000000 cycles: 296547875 heartbeat IPC: 0.962534 cumulative IPC: 0.988952 (Simulation time: 2 hr 9 min 19 sec) 
Heartbeat CPU 7 instructions: 220000000 cycles: 297925832 heartbeat IPC: 0.701347 cumulative IPC: 0.707816 (Simulation time: 2 hr 9 min 51 sec) 
Heartbeat CPU 4 instructions: 210000002 cycles: 300155668 heartbeat IPC: 0.648106 cumulative IPC: 0.646296 (Simulation time: 2 hr 10 min 43 sec) 
Heartbeat CPU 0 instructions: 170000003 cycles: 302349927 heartbeat IPC: 0.493847 cumulative IPC: 0.496161 (Simulation time: 2 hr 11 min 33 sec) 
Heartbeat CPU 1 instructions: 320000000 cycles: 302531682 heartbeat IPC: 0.857852 cumulative IPC: 0.97121 (Simulation time: 2 hr 11 min 38 sec) 
Heartbeat CPU 3 instructions: 320000000 cycles: 306973741 heartbeat IPC: 0.959153 cumulative IPC: 0.987883 (Simulation time: 2 hr 13 min 16 sec) 
Heartbeat CPU 2 instructions: 190000003 cycles: 309732189 heartbeat IPC: 0.607107 cumulative IPC: 0.538678 (Simulation time: 2 hr 14 min 21 sec) 
Heartbeat CPU 7 instructions: 230000002 cycles: 312153749 heartbeat IPC: 0.702844 cumulative IPC: 0.707577 (Simulation time: 2 hr 15 min 14 sec) 
Heartbeat CPU 5 instructions: 160000000 cycles: 313597006 heartbeat IPC: 0.570556 cumulative IPC: 0.470846 (Simulation time: 2 hr 15 min 46 sec) 
Heartbeat CPU 1 instructions: 330000000 cycles: 315550902 heartbeat IPC: 0.768095 cumulative IPC: 0.962375 (Simulation time: 2 hr 16 min 32 sec) 
Heartbeat CPU 4 instructions: 220000000 cycles: 315599455 heartbeat IPC: 0.647509 cumulative IPC: 0.646359 (Simulation time: 2 hr 16 min 33 sec) 
Heartbeat CPU 3 instructions: 330000001 cycles: 317376179 heartbeat IPC: 0.961313 cumulative IPC: 0.986965 (Simulation time: 2 hr 17 min 14 sec) 
Heartbeat CPU 0 instructions: 180000000 cycles: 322639051 heartbeat IPC: 0.492875 cumulative IPC: 0.495944 (Simulation time: 2 hr 19 min 11 sec) 
Heartbeat CPU 6 instructions: 130000000 cycles: 323078357 heartbeat IPC: 0.320739 cumulative IPC: 0.325266 (Simulation time: 2 hr 19 min 20 sec) 
Finished CPU 6 instructions: 100000000 cycles: 307331650 cumulative IPC: 0.325381 (Simulation time: 2 hr 19 min 31 sec) 

CPU 0 Branch Prediction Accuracy: 95.8717% MPKI: 4.05574

CPU 1 Branch Prediction Accuracy: 98.2329% MPKI: 1.43545

CPU 2 Branch Prediction Accuracy: 97.1697% MPKI: 4.74094

CPU 3 Branch Prediction Accuracy: 99.1597% MPKI: 0.188718

CPU 4 Branch Prediction Accuracy: 98.8615% MPKI: 1.27542

CPU 5 Branch Prediction Accuracy: 99.9101% MPKI: 0.00519201

CPU 6 Branch Prediction Accuracy: 95.106% MPKI: 7.70398

CPU 7 Branch Prediction Accuracy: 99.522% MPKI: 0.0254893

ChampSim completed all CPUs

Total Simulation Statistics (not including warmup)

CPU 0 cumulative IPC: 0.496009 instructions: 152439118 cycles: 307331649
L1D TOTAL     ACCESS:   52615929  HIT:   52066737  MISS:     549192
L1D LOAD      ACCESS:   32823074  HIT:   32361656  MISS:     461418
L1D RFO       ACCESS:   19792855  HIT:   19705081  MISS:      87774
L1D PREFETCH  ACCESS:          0  HIT:          0  MISS:          0
L1D WRITEBACK ACCESS:          0  HIT:          0  MISS:          0
L1I TOTAL     ACCESS:   43880538  HIT:   43880538  MISS:          0
L1I LOAD      ACCESS:   43880538  HIT:   43880538  MISS:          0
L1I RFO       ACCESS:          0  HIT:          0  MISS:          0
L1I PREFETCH  ACCESS:          0  HIT:          0  MISS:          0
L1I WRITEBACK ACCESS:          0  HIT:          0  MISS:          0
L2C TOTAL     ACCESS:     933444  HIT:     631961  MISS:     301483
L2C LOAD      ACCESS:     461327  HIT:     249084  MISS:     212243
L2C RFO       ACCESS:      87773  HIT:       8561  MISS:      79212
L2C PREFETCH  ACCESS:     108460  HIT:      98625  MISS:       9835
L2C WRITEBACK ACCESS:     275884  HIT:     275691  MISS:        193
LLC TOTAL     ACCESS:     746427  HIT:     283411  MISS:     463016
LLC LOAD      ACCESS:     212133  HIT:      62214  MISS:     149919
LLC RFO       ACCESS:      79212  HIT:       2941  MISS:      76271
LLC PREFETCH  ACCESS:     254648  HIT:     105062  MISS:     149586
LLC WRITEBACK ACCESS:     200434  HIT:     113194  MISS:      87240

CPU 1 cumulative IPC: 0.955684 instructions: 293711941 cycles: 307331649
L1D TOTAL     ACCESS:   50455438  HIT:   45988911  MISS:    4466527
L1D LOAD      ACCESS:   45573153  HIT:   41473517  MISS:    4099636
L1D RFO       ACCESS:    4882285  HIT:    4515394  MISS:     366891
L1D PREFETCH  ACCESS:          0  HIT:          0  MISS:          0
L1D WRITEBACK ACCESS:          0  HIT:          0  MISS:          0
L1I TOTAL     ACCESS:   80216668  HIT:   80215596  MISS:       1072
L1I LOAD      ACCESS:   80216668  HIT:   80215596  MISS:       1072
L1I RFO       ACCESS:          0  HIT:          0  MISS:          0
L1I PREFETCH  ACCESS:          0  HIT:          0  MISS:          0
L1I WRITEBACK ACCESS:          0  HIT:          0  MISS:          0
L2C TOTAL     ACCESS:    7261734  HIT:    3399955  MISS:    3861779
L2C LOAD      ACCESS:    4100707  HIT:    2043666  MISS:    2057041
L2C RFO       ACCESS:     366888  HIT:      35574  MISS:     331314
L2C PREFETCH  ACCESS:    2346174  HIT:     873581  MISS:    1472593
L2C WRITEBACK ACCESS:     447965  HIT:     447134  MISS:        831
LLC TOTAL     ACCESS:   14773653  HIT:   13069530  MISS:    1704123
LLC LOAD      ACCESS:    1884339  HIT:    1571177  MISS:     313162
LLC RFO       ACCESS:     331313  HIT:     224951  MISS:     106362
LLC PREFETCH  ACCESS:   12160364  HIT:   10875858  MISS:    1284506
LLC WRITEBACK ACCESS:     397637  HIT:     397544  MISS:         93

CPU 2 cumulative IPC: 0.541814 instructions: 166516466 cycles: 307331649
L1D TOTAL     ACCESS:   21215976  HIT:   17217713  MISS:    3998263
L1D LOAD      ACCESS:   18295830  HIT:   14297594  MISS:    3998236
L1D RFO       ACCESS:    2920146  HIT:    2920119  MISS:         27
L1D PREFETCH  ACCESS:          0  HIT:          0  MISS:          0
L1D WRITEBACK ACCESS:          0  HIT:          0  MISS:          0
L1I TOTAL     ACCESS:   49700253  HIT:   49700243  MISS:         10
L1I LOAD      ACCESS:   49700253  HIT:   49700243  MISS:         10
L1I RFO       ACCESS:          0  HIT:          0  MISS:          0
L1I PREFETCH  ACCESS:          0  HIT:          0  MISS:          0
L1I WRITEBACK ACCESS:          0  HIT:          0  MISS:          0
L2C TOTAL     ACCESS:    6142890  HIT:    2144610  MISS:    3998280
L2C LOAD      ACCESS:    3998246  HIT:     958747  MISS:    3039499
L2C RFO       ACCESS:         27  HIT:          0  MISS:         27
L2C PREFETCH  ACCESS:     958979  HIT:        225  MISS:     958754
L2C WRITEBACK ACCESS:    1185638  HIT:    1185638  MISS:          0
LLC TOTAL     ACCESS:   10706561  HIT:    6708232  MISS:    3998329
LLC LOAD      ACCESS:    2137113  HIT:    1579077  MISS:     558036
LLC RFO       ACCESS:         27  HIT:          0  MISS:         27
LLC PREFETCH  ACCESS:    7382623  HIT:    3942357  MISS:    3440266
LLC WRITEBACK ACCESS:    1186798  HIT:    1186798  MISS:          0

CPU 3 cumulative IPC: 0.986355 instructions: 303138190 cycles: 307331649
L1D TOTAL     ACCESS:   93032203  HIT:   89753037  MISS:    3279166
L1D LOAD      ACCESS:   86423676  HIT:   83932773  MISS:    2490903
L1D RFO       ACCESS:    6608527  HIT:    5820264  MISS:     788263
L1D PREFETCH  ACCESS:          0  HIT:          0  MISS:          0
L1D WRITEBACK ACCESS:          0  HIT:          0  MISS:          0
L1I TOTAL     ACCESS:   73110742  HIT:   73110601  MISS:        141
L1I LOAD      ACCESS:   73110742  HIT:   73110601  MISS:        141
L1I RFO       ACCESS:          0  HIT:          0  MISS:          0
L1I PREFETCH  ACCESS:          0  HIT:          0  MISS:          0
L1I WRITEBACK ACCESS:          0  HIT:          0  MISS:          0
L2C TOTAL     ACCESS:    7046369  HIT:    4552882  MISS:    2493487
L2C LOAD      ACCESS:    2491028  HIT:    1693497  MISS:     797531
L2C RFO       ACCESS:     788250  HIT:     230068  MISS:     558182
L2C PREFETCH  ACCESS:    2736793  HIT:    1599031  MISS:    1137762
L2C WRITEBACK ACCESS:    1030298  HIT:    1030286  MISS:         12
LLC TOTAL     ACCESS:   10395341  HIT:    8232020  MISS:    2163321
LLC LOAD      ACCESS:     773923  HIT:     718880  MISS:      55043
LLC RFO       ACCESS:     558182  HIT:      68404  MISS:     489778
LLC PREFETCH  ACCESS:    8369158  HIT:    6753493  MISS:    1615665
LLC WRITEBACK ACCESS:     694078  HIT:     691243  MISS:       2835

CPU 4 cumulative IPC: 0.646388 instructions: 198655425 cycles: 307331649
L1D TOTAL     ACCESS:   76325360  HIT:   74261209  MISS:    2064151
L1D LOAD      ACCESS:   46005632  HIT:   44968910  MISS:    1036722
L1D RFO       ACCESS:   30319728  HIT:   29292299  MISS:    1027429
L1D PREFETCH  ACCESS:          0  HIT:          0  MISS:          0
L1D WRITEBACK ACCESS:          0  HIT:          0  MISS:          0
L1I TOTAL     ACCESS:   57516473  HIT:   57264769  MISS:     251704
L1I LOAD      ACCESS:   57516473  HIT:   57264769  MISS:     251704
L1I RFO       ACCESS:          0  HIT:          0  MISS:          0
L1I PREFETCH  ACCESS:          0  HIT:          0  MISS:          0
L1I WRITEBACK ACCESS:          0  HIT:          0  MISS:          0
L2C TOTAL     ACCESS:    4445227  HIT:    4349922  MISS:      95305
L2C LOAD      ACCESS:    1288411  HIT:    1200637  MISS:      87774
L2C RFO       ACCESS:    1027371  HIT:    1026302  MISS:       1069
L2C PREFETCH  ACCESS:    1056363  HIT:    1050073  MISS:       6290
L2C WRITEBACK ACCESS:    1073082  HIT:    1072910  MISS:        172
LLC TOTAL     ACCESS:     504854  HIT:     349998  MISS:     154856
LLC LOAD      ACCESS:      87524  HIT:      48991  MISS:      38533
LLC RFO       ACCESS:       1069  HIT:          5  MISS:       1064
LLC PREFETCH  ACCESS:     371640  HIT:     299311  MISS:      72329
LLC WRITEBACK ACCESS:      44621  HIT:       1691  MISS:      42930

CPU 5 cumulative IPC: 0.473783 instructions: 145608380 cycles: 307331649
L1D TOTAL     ACCESS:   85572358  HIT:   83612524  MISS:    1959834
L1D LOAD      ACCESS:   74844051  HIT:   72884306  MISS:    1959745
L1D RFO       ACCESS:   10728307  HIT:   10728218  MISS:         89
L1D PREFETCH  ACCESS:          0  HIT:          0  MISS:          0
L1D WRITEBACK ACCESS:          0  HIT:          0  MISS:          0
L1I TOTAL     ACCESS:   41459312  HIT:   41459203  MISS:        109
L1I LOAD      ACCESS:   41459312  HIT:   41459203  MISS:        109
L1I RFO       ACCESS:          0  HIT:          0  MISS:          0
L1I PREFETCH  ACCESS:          0  HIT:          0  MISS:          0
L1I WRITEBACK ACCESS:          0  HIT:          0  MISS:          0
L2C TOTAL     ACCESS:    3417103  HIT:    1598496  MISS:    1818607
L2C LOAD      ACCESS:    1959650  HIT:     450434  MISS:    1509216
L2C RFO       ACCESS:         70  HIT:         59  MISS:         11
L2C PREFETCH  ACCESS:     542667  HIT:     233343  MISS:     309324
L2C WRITEBACK ACCESS:     914716  HIT:     914660  MISS:         56
LLC TOTAL     ACCESS:    5807418  HIT:    3595709  MISS:    2211709
LLC LOAD      ACCESS:    1505913  HIT:     792461  MISS:     713452
LLC RFO       ACCESS:         11  HIT:          2  MISS:          9
LLC PREFETCH  ACCESS:    3388412  HIT:    1890199  MISS:    1498213
LLC WRITEBACK ACCESS:     913082  HIT:     913047  MISS:         35

CPU 6 cumulative IPC: 0.325381 instructions: 100000000 cycles: 307331650
L1D TOTAL     ACCESS:   22438702  HIT:   17145575  MISS:    5293127
L1D LOAD      ACCESS:   16923947  HIT:   12407218  MISS:    4516729
L1D RFO       ACCESS:    5514755  HIT:    4738357  MISS:     776398
L1D PREFETCH  ACCESS:          0  HIT:          0  MISS:          0
L1D WRITEBACK ACCESS:          0  HIT:          0  MISS:          0
L1I TOTAL     ACCESS:   23321554  HIT:   23320876  MISS:        678
L1I LOAD      ACCESS:   23321554  HIT:   23320876  MISS:        678
L1I RFO       ACCESS:          0  HIT:          0  MISS:          0
L1I PREFETCH  ACCESS:          0  HIT:          0  MISS:          0
L1I WRITEBACK ACCESS:          0  HIT:          0  MISS:          0
L2C TOTAL     ACCESS:    8732355  HIT:    4330828  MISS:    4401527
L2C LOAD      ACCESS:    4516942  HIT:    1358498  MISS:    3158444
L2C RFO       ACCESS:     776359  HIT:      83123  MISS:     693236
L2C PREFETCH  ACCESS:    1066129  HIT:     516504  MISS:     549625
L2C WRITEBACK ACCESS:    2372925  HIT:    2372703  MISS:        222
LLC TOTAL     ACCESS:   11219847  HIT:    8194482  MISS:    3025365
LLC LOAD      ACCESS:    3054613  HIT:    1935684  MISS:    1118929
LLC RFO       ACCESS:     693230  HIT:     346227  MISS:     347003
LLC PREFETCH  ACCESS:    5667111  HIT:    4107706  MISS:    1559405
LLC WRITEBACK ACCESS:    1804893  HIT:    1804865  MISS:         28

CPU 7 cumulative IPC: 0.707444 instructions: 217420063 cycles: 307331650
L1D TOTAL     ACCESS:  126815156  HIT:  124979630  MISS:    1835526
L1D LOAD      ACCESS:  114256953  HIT:  112421631  MISS:    1835322
L1D RFO       ACCESS:   12558203  HIT:   12557999  MISS:        204
L1D PREFETCH  ACCESS:          0  HIT:          0  MISS:          0
L1D WRITEBACK ACCESS:          0  HIT:          0  MISS:          0
L1I TOTAL     ACCESS:   60159572  HIT:   60159444  MISS:        128
L1I LOAD      ACCESS:   60159572  HIT:   60159444  MISS:        128
L1I RFO       ACCESS:          0  HIT:          0  MISS:          0
L1I PREFETCH  ACCESS:          0  HIT:          0  MISS:          0
L1I WRITEBACK ACCESS:          0  HIT:          0  MISS:          0
L2C TOTAL     ACCESS:    4472991  HIT:    2938147  MISS:    1534844
L2C LOAD      ACCESS:    1835131  HIT:    1176349  MISS:     658782
L2C RFO       ACCESS:        176  HIT:        156  MISS:         20
L2C PREFETCH  ACCESS:    1818418  HIT:     942448  MISS:     875970
L2C WRITEBACK ACCESS:     819266  HIT:     819194  MISS:         72
LLC TOTAL     ACCESS:    8409428  HIT:    6824421  MISS:    1585007
LLC LOAD      ACCESS:     658669  HIT:     608580  MISS:      50089
LLC RFO       ACCESS:         19  HIT:         10  MISS:          9
LLC PREFETCH  ACCESS:    6940666  HIT:    5405816  MISS:    1534850
LLC WRITEBACK ACCESS:     810074  HIT:     810015  MISS:         59

Region of Interest Statistics

CPU 0 cumulative IPC: 0.488687 instructions: 100000003 cycles: 204629895
L1D TOTAL     ACCESS:   34538656  HIT:   34199931  MISS:     338725
L1D LOAD      ACCESS:   21533113  HIT:   21248203  MISS:     284910
L1D RFO       ACCESS:   13005543  HIT:   12951728  MISS:      53815
L1D PREFETCH  ACCESS:          0  HIT:          0  MISS:          0
L1D WRITEBACK ACCESS:          0  HIT:          0  MISS:          0
L1D PREFETCH  REQUESTED:          0  ISSUED:          0  USEFUL:          0  USELESS:          0
L1I TOTAL     ACCESS:   28729017  HIT:   28729017  MISS:          0
L1I LOAD      ACCESS:   28729017  HIT:   28729017  MISS:          0
L1I RFO       ACCESS:          0  HIT:          0  MISS:          0
L1I PREFETCH  ACCESS:          0  HIT:          0  MISS:          0
L1I WRITEBACK ACCESS:          0  HIT:          0  MISS:          0
L1I PREFETCH  REQUESTED:          0  ISSUED:          0  USEFUL:          0  USELESS:          0
L2C TOTAL     ACCESS:     581469  HIT:     376193  MISS:     205276
L2C LOAD      ACCESS:     284873  HIT:     135116  MISS:     149757
L2C RFO       ACCESS:      53814  HIT:       4188  MISS:      49626
L2C PREFETCH  ACCESS:      67753  HIT:      61986  MISS:       5767
L2C WRITEBACK ACCESS:     175029  HIT:     174903  MISS:        126
L2C PREFETCH  REQUESTED:     447414  ISSUED:     447414  USEFUL:       4196  USELESS:       8550
LLC TOTAL     ACCESS:     491454  HIT:     180650  MISS:     310804
LLC LOAD      ACCESS:     149684  HIT:      42322  MISS:     107362
LLC RFO       ACCESS:      49626  HIT:       2684  MISS:      46942
LLC PREFETCH  ACCESS:     158260  HIT:      59166  MISS:      99094
LLC WRITEBACK ACCESS:     133884  HIT:      76478  MISS:      57406
LLC PREFETCH  REQUESTED:          0  ISSUED:          0  USEFUL:    5700183  USELESS:    7193191
Major fault: 0 Minor fault: 3025

CPU 1 cumulative IPC: 1.00872 instructions: 100000001 cycles: 99135553
L1D TOTAL     ACCESS:   17070385  HIT:   15626013  MISS:    1444372
L1D LOAD      ACCESS:   15505707  HIT:   14185344  MISS:    1320363
L1D RFO       ACCESS:    1564678  HIT:    1440669  MISS:     124009
L1D PREFETCH  ACCESS:          0  HIT:          0  MISS:          0
L1D WRITEBACK ACCESS:          0  HIT:          0  MISS:          0
L1D PREFETCH  REQUESTED:          0  ISSUED:          0  USEFUL:          0  USELESS:          0
L1I TOTAL     ACCESS:   27466982  HIT:   27466823  MISS:        159
L1I LOAD      ACCESS:   27466982  HIT:   27466823  MISS:        159
L1I RFO       ACCESS:          0  HIT:          0  MISS:          0
L1I PREFETCH  ACCESS:          0  HIT:          0  MISS:          0
L1I WRITEBACK ACCESS:          0  HIT:          0  MISS:          0
L1I PREFETCH  REQUESTED:          0  ISSUED:          0  USEFUL:          0  USELESS:          0
L2C TOTAL     ACCESS:    2401379  HIT:    1125469  MISS:    1275910
L2C LOAD      ACCESS:    1320522  HIT:     665288  MISS:     655234
L2C RFO       ACCESS:     124009  HIT:      10794  MISS:     113215
L2C PREFETCH  ACCESS:     816963  HIT:     309781  MISS:     507182
L2C WRITEBACK ACCESS:     139885  HIT:     139606  MISS:        279
L2C PREFETCH  REQUESTED:   17241161  ISSUED:   17241161  USEFUL:    1677898  USELESS:      31072
LLC TOTAL     ACCESS:    5031090  HIT:    4608839  MISS:     422251
LLC LOAD      ACCESS:     593400  HIT:     520143  MISS:      73257
LLC RFO       ACCESS:     113215  HIT:      85533  MISS:      27682
LLC PREFETCH  ACCESS:    4199056  HIT:    3877756  MISS:     321300
LLC WRITEBACK ACCESS:     125419  HIT:     125407  MISS:         12
LLC PREFETCH  REQUESTED:          0  ISSUED:          0  USEFUL:    5700183  USELESS:    7193191
Major fault: 0 Minor fault: 3210

CPU 2 cumulative IPC: 0.505113 instructions: 100000002 cycles: 197975502
L1D TOTAL     ACCESS:   13923147  HIT:   11425312  MISS:    2497835
L1D LOAD      ACCESS:   11252075  HIT:    8754259  MISS:    2497816
L1D RFO       ACCESS:    2671072  HIT:    2671053  MISS:         19
L1D PREFETCH  ACCESS:          0  HIT:          0  MISS:          0
L1D WRITEBACK ACCESS:          0  HIT:          0  MISS:          0
L1D PREFETCH  REQUESTED:          0  ISSUED:          0  USEFUL:          0  USELESS:          0
L1I TOTAL     ACCESS:   28333618  HIT:   28333609  MISS:          9
L1I LOAD      ACCESS:   28333618  HIT:   28333609  MISS:          9
L1I RFO       ACCESS:          0  HIT:          0  MISS:          0
L1I PREFETCH  ACCESS:          0  HIT:          0  MISS:          0
L1I WRITEBACK ACCESS:          0  HIT:          0  MISS:          0
L1I PREFETCH  REQUESTED:          0  ISSUED:          0  USEFUL:          0  USELESS:          0
L2C TOTAL     ACCESS:    4038195  HIT:    1540346  MISS:    2497849
L2C LOAD      ACCESS:    2497825  HIT:     581124  MISS:    1916701
L2C RFO       ACCESS:         19  HIT:          0  MISS:         19
L2C PREFETCH  ACCESS:     581300  HIT:        171  MISS:     581129
L2C WRITEBACK ACCESS:     959051  HIT:     959051  MISS:          0
L2C PREFETCH  REQUESTED:   23517348  ISSUED:   23517348  USEFUL:    1433981  USELESS:          8
LLC TOTAL     ACCESS:    6805494  HIT:    4307611  MISS:    2497883
LLC LOAD      ACCESS:    1358983  HIT:     969918  MISS:     389065
LLC RFO       ACCESS:         19  HIT:          0  MISS:         19
LLC PREFETCH  ACCESS:    4486185  HIT:    2377386  MISS:    2108799
LLC WRITEBACK ACCESS:     960307  HIT:     960307  MISS:          0
LLC PREFETCH  REQUESTED:          0  ISSUED:          0  USEFUL:    5700183  USELESS:    7193191
Major fault: 0 Minor fault: 8200

CPU 3 cumulative IPC: 0.949528 instructions: 100000000 cycles: 105315431
L1D TOTAL     ACCESS:   31249009  HIT:   30443363  MISS:     805646
L1D LOAD      ACCESS:   30409841  HIT:   29887943  MISS:     521898
L1D RFO       ACCESS:     839168  HIT:     555420  MISS:     283748
L1D PREFETCH  ACCESS:          0  HIT:          0  MISS:          0
L1D WRITEBACK ACCESS:          0  HIT:          0  MISS:          0
L1D PREFETCH  REQUESTED:          0  ISSUED:          0  USEFUL:          0  USELESS:          0
L1I TOTAL     ACCESS:   23917045  HIT:   23917019  MISS:         26
L1I LOAD      ACCESS:   23917045  HIT:   23917019  MISS:         26
L1I RFO       ACCESS:          0  HIT:          0  MISS:          0
L1I PREFETCH  ACCESS:          0  HIT:          0  MISS:          0
L1I WRITEBACK ACCESS:          0  HIT:          0  MISS:          0
L1I PREFETCH  REQUESTED:          0  ISSUED:          0  USEFUL:          0  USELESS:          0
L2C TOTAL     ACCESS:    1422266  HIT:     616490  MISS:     805776
L2C LOAD      ACCESS:     521924  HIT:     331630  MISS:     190294
L2C RFO       ACCESS:     283749  HIT:          2  MISS:     283747
L2C PREFETCH  ACCESS:     332720  HIT:        985  MISS:     331735
L2C WRITEBACK ACCESS:     283873  HIT:     283873  MISS:          0
L2C PREFETCH  REQUESTED:   11474674  ISSUED:   11473972  USEFUL:    1206151  USELESS:        894
LLC TOTAL     ACCESS:    3079585  HIT:    2272569  MISS:     807016
LLC LOAD      ACCESS:     183524  HIT:     169011  MISS:      14513
LLC RFO       ACCESS:     283747  HIT:         15  MISS:     283732
LLC PREFETCH  ACCESS:    2327539  HIT:    1818768  MISS:     508771
LLC WRITEBACK ACCESS:     284775  HIT:     284775  MISS:          0
LLC PREFETCH  REQUESTED:          0  ISSUED:          0  USEFUL:    5700183  USELESS:    7193191
Major fault: 0 Minor fault: 14567

CPU 4 cumulative IPC: 0.645092 instructions: 100000002 cycles: 155016695
L1D TOTAL     ACCESS:   38421637  HIT:   37382489  MISS:    1039148
L1D LOAD      ACCESS:   23159085  HIT:   22637110  MISS:     521975
L1D RFO       ACCESS:   15262552  HIT:   14745379  MISS:     517173
L1D PREFETCH  ACCESS:          0  HIT:          0  MISS:          0
L1D WRITEBACK ACCESS:          0  HIT:          0  MISS:          0
L1D PREFETCH  REQUESTED:          0  ISSUED:          0  USEFUL:          0  USELESS:          0
L1I TOTAL     ACCESS:   28911436  HIT:   28784743  MISS:     126693
L1I LOAD      ACCESS:   28911436  HIT:   28784743  MISS:     126693
L1I RFO       ACCESS:          0  HIT:          0  MISS:          0
L1I PREFETCH  ACCESS:          0  HIT:          0  MISS:          0
L1I WRITEBACK ACCESS:          0  HIT:          0  MISS:          0
L1I PREFETCH  REQUESTED:          0  ISSUED:          0  USEFUL:          0  USELESS:          0
L2C TOTAL     ACCESS:    2254917  HIT:    2206857  MISS:      48060
L2C LOAD      ACCESS:     648662  HIT:     604512  MISS:      44150
L2C RFO       ACCESS:     517144  HIT:     516605  MISS:        539
L2C PREFETCH  ACCESS:     548931  HIT:     545661  MISS:       3270
L2C WRITEBACK ACCESS:     540180  HIT:     540079  MISS:        101
L2C PREFETCH  REQUESTED:    1746323  ISSUED:    1746302  USEFUL:       5533  USELESS:       1806
LLC TOTAL     ACCESS:     249743  HIT:     171498  MISS:      78245
LLC LOAD      ACCESS:      44026  HIT:      24448  MISS:      19578
LLC RFO       ACCESS:        539  HIT:          5  MISS:        534
LLC PREFETCH  ACCESS:     182741  HIT:     146156  MISS:      36585
LLC WRITEBACK ACCESS:      22437  HIT:        889  MISS:      21548
LLC PREFETCH  REQUESTED:          0  ISSUED:          0  USEFUL:    5700183  USELESS:    7193191
Major fault: 0 Minor fault: 1787

CPU 5 cumulative IPC: 0.44138 instructions: 100000001 cycles: 226562021
L1D TOTAL     ACCESS:   58779346  HIT:   57243180  MISS:    1536166
L1D LOAD      ACCESS:   51548525  HIT:   50012417  MISS:    1536108
L1D RFO       ACCESS:    7230821  HIT:    7230763  MISS:         58
L1D PREFETCH  ACCESS:          0  HIT:          0  MISS:          0
L1D WRITEBACK ACCESS:          0  HIT:          0  MISS:          0
L1D PREFETCH  REQUESTED:          0  ISSUED:          0  USEFUL:          0  USELESS:          0
L1I TOTAL     ACCESS:   28375200  HIT:   28375091  MISS:        109
L1I LOAD      ACCESS:   28375200  HIT:   28375091  MISS:        109
L1I RFO       ACCESS:          0  HIT:          0  MISS:          0
L1I PREFETCH  ACCESS:          0  HIT:          0  MISS:          0
L1I WRITEBACK ACCESS:          0  HIT:          0  MISS:          0
L1I PREFETCH  REQUESTED:          0  ISSUED:          0  USEFUL:          0  USELESS:          0
L2C TOTAL     ACCESS:    2680030  HIT:    1280546  MISS:    1399484
L2C LOAD      ACCESS:    1536083  HIT:     358781  MISS:    1177302
L2C RFO       ACCESS:         43  HIT:         32  MISS:         11
L2C PREFETCH  ACCESS:     438527  HIT:     216410  MISS:     222117
L2C WRITEBACK ACCESS:     705377  HIT:     705323  MISS:         54
L2C PREFETCH  REQUESTED:    4124244  ISSUED:    4124244  USEFUL:     321485  USELESS:      32257
LLC TOTAL     ACCESS:    4357049  HIT:    2612139  MISS:    1744910
LLC LOAD      ACCESS:    1174214  HIT:     575549  MISS:     598665
LLC RFO       ACCESS:         11  HIT:          2  MISS:          9
LLC PREFETCH  ACCESS:    2478636  HIT:    1332433  MISS:    1146203
LLC WRITEBACK ACCESS:     704188  HIT:     704155  MISS:         33
LLC PREFETCH  REQUESTED:          0  ISSUED:          0  USEFUL:    5700183  USELESS:    7193191
Major fault: 0 Minor fault: 157633

CPU 6 cumulative IPC: 0.325381 instructions: 100000000 cycles: 307331650
L1D TOTAL     ACCESS:   22438702  HIT:   17145575  MISS:    5293127
L1D LOAD      ACCESS:   16923947  HIT:   12407218  MISS:    4516729
L1D RFO       ACCESS:    5514755  HIT:    4738357  MISS:     776398
L1D PREFETCH  ACCESS:          0  HIT:          0  MISS:          0
L1D WRITEBACK ACCESS:          0  HIT:          0  MISS:          0
L1D PREFETCH  REQUESTED:          0  ISSUED:          0  USEFUL:          0  USELESS:          0
L1I TOTAL     ACCESS:   23321554  HIT:   23320876  MISS:        678
L1I LOAD      ACCESS:   23321554  HIT:   23320876  MISS:        678
L1I RFO       ACCESS:          0  HIT:          0  MISS:          0
L1I PREFETCH  ACCESS:          0  HIT:          0  MISS:          0
L1I WRITEBACK ACCESS:          0  HIT:          0  MISS:          0
L1I PREFETCH  REQUESTED:          0  ISSUED:          0  USEFUL:          0  USELESS:          0
L2C TOTAL     ACCESS:    8732355  HIT:    4330828  MISS:    4401527
L2C LOAD      ACCESS:    4516942  HIT:    1358498  MISS:    3158444
L2C RFO       ACCESS:     776359  HIT:      83123  MISS:     693236
L2C PREFETCH  ACCESS:    1066129  HIT:     516504  MISS:     549625
L2C WRITEBACK ACCESS:    2372925  HIT:    2372703  MISS:        222
L2C PREFETCH  REQUESTED:   10884578  ISSUED:   10884576  USEFUL:     689771  USELESS:      76410
LLC TOTAL     ACCESS:   11219847  HIT:    8194482  MISS:    3025365
LLC LOAD      ACCESS:    3054613  HIT:    1935684  MISS:    1118929
LLC RFO       ACCESS:     693230  HIT:     346227  MISS:     347003
LLC PREFETCH  ACCESS:    5667111  HIT:    4107706  MISS:    1559405
LLC WRITEBACK ACCESS:    1804893  HIT:    1804865  MISS:         28
LLC PREFETCH  REQUESTED:          0  ISSUED:          0  USEFUL:    5700183  USELESS:    7193191
Major fault: 0 Minor fault: 12933

CPU 7 cumulative IPC: 0.698471 instructions: 100000001 cycles: 143169947
L1D TOTAL     ACCESS:   58749351  HIT:   57898531  MISS:     850820
L1D LOAD      ACCESS:   52842942  HIT:   51992197  MISS:     850745
L1D RFO       ACCESS:    5906409  HIT:    5906334  MISS:         75
L1D PREFETCH  ACCESS:          0  HIT:          0  MISS:          0
L1D WRITEBACK ACCESS:          0  HIT:          0  MISS:          0
L1D PREFETCH  REQUESTED:          0  ISSUED:          0  USEFUL:          0  USELESS:          0
L1I TOTAL     ACCESS:   28049798  HIT:   28049742  MISS:         56
L1I LOAD      ACCESS:   28049798  HIT:   28049742  MISS:         56
L1I RFO       ACCESS:          0  HIT:          0  MISS:          0
L1I PREFETCH  ACCESS:          0  HIT:          0  MISS:          0
L1I WRITEBACK ACCESS:          0  HIT:          0  MISS:          0
L1I PREFETCH  REQUESTED:          0  ISSUED:          0  USEFUL:          0  USELESS:          0
L2C TOTAL     ACCESS:    2125975  HIT:    1431993  MISS:     693982
L2C LOAD      ACCESS:     850708  HIT:     551139  MISS:     299569
L2C RFO       ACCESS:         69  HIT:         58  MISS:         11
L2C PREFETCH  ACCESS:     898254  HIT:     503861  MISS:     394393
L2C WRITEBACK ACCESS:     376944  HIT:     376935  MISS:          9
L2C PREFETCH  REQUESTED:    8638307  ISSUED:    8637859  USEFUL:     919158  USELESS:      29087
LLC TOTAL     ACCESS:    3833779  HIT:    3117792  MISS:     715987
LLC LOAD      ACCESS:     299554  HIT:     275710  MISS:      23844
LLC RFO       ACCESS:         10  HIT:          8  MISS:          2
LLC PREFETCH  ACCESS:    3160987  HIT:    2468866  MISS:     692121
LLC WRITEBACK ACCESS:     373228  HIT:     373208  MISS:         20
LLC PREFETCH  REQUESTED:          0  ISSUED:          0  USEFUL:    5700183  USELESS:    7193191
Major fault: 0 Minor fault: 23078

DRAM Statistics
 CHANNEL 0
 RQ ROW_BUFFER_HIT:    2823294  ROW_BUFFER_MISS:    4751759
 DBUS_CONGESTED:   13724385
 WQ ROW_BUFFER_HIT:     219823  ROW_BUFFER_MISS:    2240830  FULL:          0

 CHANNEL 1
 RQ ROW_BUFFER_HIT:    2825601  ROW_BUFFER_MISS:    4771044
 DBUS_CONGESTED:   13724385
 WQ ROW_BUFFER_HIT:     219589  ROW_BUFFER_MISS:    2243490  FULL:          0

 AVG_CONGESTED_CYCLE: 13
