Initialize SIGNATURE TABLE
ST_SET: 1
ST_WAY: 256
ST_TAG_BIT: 16
ST_TAG_MASK: ffff

Initialize PATTERN TABLE
PT_SET: 512
PT_WAY: 4
SIG_DELTA_BIT: 7
C_SIG_BIT: 4
C_DELTA_BIT: 4

Initialize PREFETCH FILTER
FILTER_SET: 1024

*** ChampSim Multicore Out-of-Order Simulator ***

Warmup Instructions: 20000000
Simulation Instructions: 100000000
Number of CPUs: 8
LLC sets: 16384
LLC ways: 16
Off-chip DRAM Size: 8192 MB Channels: 2 Width: 64-bit Data Rate: 1600 MT/s

CPU 0 runs /scratch/user/djimenez/champsim-traces/speccpu2006/xz/471.omnetpp-188B.champsimtrace.xz
CPU 1 runs /scratch/user/djimenez/champsim-traces/speccpu2006/xz/482.sphinx3-234B.champsimtrace.xz
CPU 2 runs /scratch/user/djimenez/champsim-traces/speccpu2006/xz/483.xalancbmk-127B.champsimtrace.xz
CPU 3 runs /scratch/user/djimenez/champsim-traces/speccpu2006/xz/482.sphinx3-1297B.champsimtrace.xz
CPU 4 runs /scratch/user/djimenez/champsim-traces/speccpu2006/xz/433.milc-337B.champsimtrace.xz
CPU 5 runs /scratch/user/djimenez/champsim-traces/speccpu2006/xz/473.astar-153B.champsimtrace.xz
CPU 6 runs /scratch/user/djimenez/champsim-traces/speccpu2006/xz/450.soplex-247B.champsimtrace.xz
CPU 7 runs /scratch/user/djimenez/champsim-traces/speccpu2006/xz/403.gcc-48B.champsimtrace.xz
Heartbeat CPU 1 instructions: 10000003 cycles: 3880834 heartbeat IPC: 2.57677 cumulative IPC: 2.57677 (Simulation time: 0 hr 3 min 8 sec) 
Heartbeat CPU 3 instructions: 10000003 cycles: 4031313 heartbeat IPC: 2.48058 cumulative IPC: 2.48058 (Simulation time: 0 hr 3 min 16 sec) 
Heartbeat CPU 4 instructions: 10000000 cycles: 4185267 heartbeat IPC: 2.38933 cumulative IPC: 2.38933 (Simulation time: 0 hr 3 min 23 sec) 
Heartbeat CPU 2 instructions: 10000002 cycles: 4553540 heartbeat IPC: 2.19609 cumulative IPC: 2.19609 (Simulation time: 0 hr 3 min 41 sec) 
Heartbeat CPU 7 instructions: 10000001 cycles: 5486428 heartbeat IPC: 1.82268 cumulative IPC: 1.82268 (Simulation time: 0 hr 4 min 26 sec) 
Heartbeat CPU 5 instructions: 10000002 cycles: 5812219 heartbeat IPC: 1.72051 cumulative IPC: 1.72051 (Simulation time: 0 hr 4 min 42 sec) 
Heartbeat CPU 6 instructions: 10000000 cycles: 6011280 heartbeat IPC: 1.66354 cumulative IPC: 1.66354 (Simulation time: 0 hr 4 min 52 sec) 
Heartbeat CPU 0 instructions: 10000002 cycles: 6123256 heartbeat IPC: 1.63312 cumulative IPC: 1.63312 (Simulation time: 0 hr 4 min 57 sec) 
Heartbeat CPU 1 instructions: 20000000 cycles: 7719564 heartbeat IPC: 2.60503 cumulative IPC: 2.59082 (Simulation time: 0 hr 6 min 17 sec) 
Heartbeat CPU 3 instructions: 20000000 cycles: 7927143 heartbeat IPC: 2.56685 cumulative IPC: 2.52298 (Simulation time: 0 hr 6 min 27 sec) 
Heartbeat CPU 4 instructions: 20000000 cycles: 8009634 heartbeat IPC: 2.61481 cumulative IPC: 2.49699 (Simulation time: 0 hr 6 min 32 sec) 
Heartbeat CPU 2 instructions: 20000000 cycles: 9107422 heartbeat IPC: 2.19593 cumulative IPC: 2.19601 (Simulation time: 0 hr 7 min 28 sec) 
Heartbeat CPU 7 instructions: 20000000 cycles: 10965989 heartbeat IPC: 1.82496 cumulative IPC: 1.82382 (Simulation time: 0 hr 9 min 4 sec) 
Heartbeat CPU 6 instructions: 20000000 cycles: 11123126 heartbeat IPC: 1.95624 cumulative IPC: 1.79806 (Simulation time: 0 hr 9 min 12 sec) 
Heartbeat CPU 4 instructions: 30000003 cycles: 11317557 heartbeat IPC: 3.02305 cumulative IPC: 0.883583 (Simulation time: 0 hr 9 min 23 sec) 
Heartbeat CPU 5 instructions: 20000000 cycles: 11603685 heartbeat IPC: 1.72668 cumulative IPC: 1.72359 (Simulation time: 0 hr 9 min 38 sec) 
Heartbeat CPU 1 instructions: 30000000 cycles: 11658697 heartbeat IPC: 2.53863 cumulative IPC: 0.857729 (Simulation time: 0 hr 9 min 41 sec) 
Heartbeat CPU 3 instructions: 30000001 cycles: 11768942 heartbeat IPC: 2.60295 cumulative IPC: 0.849694 (Simulation time: 0 hr 9 min 46 sec) 
Heartbeat CPU 0 instructions: 20000000 cycles: 12223761 heartbeat IPC: 1.63921 cumulative IPC: 1.63616 (Simulation time: 0 hr 10 min 9 sec) 

Warmup complete CPU 0 instructions: 20000001 cycles: 12223762 (Simulation time: 0 hr 10 min 9 sec) 
Warmup complete CPU 1 instructions: 31515534 cycles: 12223761 (Simulation time: 0 hr 10 min 9 sec) 
Warmup complete CPU 2 instructions: 26672384 cycles: 12223761 (Simulation time: 0 hr 10 min 9 sec) 
Warmup complete CPU 3 instructions: 31068184 cycles: 12223761 (Simulation time: 0 hr 10 min 9 sec) 
Warmup complete CPU 4 instructions: 32740992 cycles: 12223761 (Simulation time: 0 hr 10 min 9 sec) 
Warmup complete CPU 5 instructions: 21071620 cycles: 12223761 (Simulation time: 0 hr 10 min 9 sec) 
Warmup complete CPU 6 instructions: 22145293 cycles: 12223761 (Simulation time: 0 hr 10 min 9 sec) 
Warmup complete CPU 7 instructions: 22296449 cycles: 12223761 (Simulation time: 0 hr 10 min 9 sec) 

Heartbeat CPU 4 instructions: 40000000 cycles: 20897719 heartbeat IPC: 1.04382 cumulative IPC: 0.836874 (Simulation time: 0 hr 13 min 2 sec) 
Heartbeat CPU 1 instructions: 40000000 cycles: 23051307 heartbeat IPC: 0.877762 cumulative IPC: 0.7836 (Simulation time: 0 hr 13 min 41 sec) 
Heartbeat CPU 7 instructions: 30000001 cycles: 23644866 heartbeat IPC: 0.788713 cumulative IPC: 0.674501 (Simulation time: 0 hr 13 min 53 sec) 
Heartbeat CPU 3 instructions: 40000000 cycles: 25085932 heartbeat IPC: 0.75092 cumulative IPC: 0.694425 (Simulation time: 0 hr 14 min 21 sec) 
Heartbeat CPU 2 instructions: 30000002 cycles: 29142010 heartbeat IPC: 0.499137 cumulative IPC: 0.196688 (Simulation time: 0 hr 15 min 40 sec) 
Heartbeat CPU 5 instructions: 30000000 cycles: 31990568 heartbeat IPC: 0.490511 cumulative IPC: 0.451685 (Simulation time: 0 hr 16 min 37 sec) 
Heartbeat CPU 4 instructions: 50000001 cycles: 33670404 heartbeat IPC: 0.782921 cumulative IPC: 0.804742 (Simulation time: 0 hr 17 min 12 sec) 
Heartbeat CPU 1 instructions: 50000001 cycles: 35728429 heartbeat IPC: 0.788823 cumulative IPC: 0.786417 (Simulation time: 0 hr 17 min 52 sec) 
Heartbeat CPU 6 instructions: 30000001 cycles: 37276372 heartbeat IPC: 0.382362 cumulative IPC: 0.313529 (Simulation time: 0 hr 18 min 22 sec) 
Heartbeat CPU 7 instructions: 40000000 cycles: 38495342 heartbeat IPC: 0.673379 cumulative IPC: 0.673867 (Simulation time: 0 hr 18 min 48 sec) 
Heartbeat CPU 3 instructions: 50000002 cycles: 38781458 heartbeat IPC: 0.730166 cumulative IPC: 0.712856 (Simulation time: 0 hr 18 min 54 sec) 
Heartbeat CPU 1 instructions: 60000000 cycles: 47645597 heartbeat IPC: 0.839125 cumulative IPC: 0.80415 (Simulation time: 0 hr 21 min 47 sec) 
Heartbeat CPU 4 instructions: 60000000 cycles: 47743596 heartbeat IPC: 0.710571 cumulative IPC: 0.767431 (Simulation time: 0 hr 21 min 49 sec) 
Heartbeat CPU 3 instructions: 60000000 cycles: 53105342 heartbeat IPC: 0.698135 cumulative IPC: 0.707698 (Simulation time: 0 hr 23 min 38 sec) 
Heartbeat CPU 7 instructions: 50000003 cycles: 53270199 heartbeat IPC: 0.676826 cumulative IPC: 0.674932 (Simulation time: 0 hr 23 min 41 sec) 
Heartbeat CPU 5 instructions: 40000000 cycles: 54110744 heartbeat IPC: 0.452076 cumulative IPC: 0.451892 (Simulation time: 0 hr 23 min 58 sec) 
Heartbeat CPU 1 instructions: 70000000 cycles: 58801518 heartbeat IPC: 0.896385 cumulative IPC: 0.826241 (Simulation time: 0 hr 25 min 34 sec) 
Heartbeat CPU 0 instructions: 30000001 cycles: 60791302 heartbeat IPC: 0.205899 cumulative IPC: 0.205899 (Simulation time: 0 hr 26 min 11 sec) 
Heartbeat CPU 4 instructions: 70000003 cycles: 61627472 heartbeat IPC: 0.72026 cumulative IPC: 0.754174 (Simulation time: 0 hr 26 min 29 sec) 
Heartbeat CPU 6 instructions: 40000000 cycles: 65757978 heartbeat IPC: 0.351104 cumulative IPC: 0.33352 (Simulation time: 0 hr 27 min 50 sec) 
Heartbeat CPU 3 instructions: 70000003 cycles: 67568519 heartbeat IPC: 0.691411 cumulative IPC: 0.703442 (Simulation time: 0 hr 28 min 30 sec) 
Heartbeat CPU 7 instructions: 60000000 cycles: 68030893 heartbeat IPC: 0.677475 cumulative IPC: 0.675605 (Simulation time: 0 hr 28 min 42 sec) 
Heartbeat CPU 1 instructions: 80000000 cycles: 69619439 heartbeat IPC: 0.924392 cumulative IPC: 0.844741 (Simulation time: 0 hr 29 min 14 sec) 
Heartbeat CPU 4 instructions: 80000000 cycles: 74963511 heartbeat IPC: 0.749848 cumulative IPC: 0.753255 (Simulation time: 0 hr 31 min 1 sec) 
Heartbeat CPU 5 instructions: 50000000 cycles: 76035765 heartbeat IPC: 0.4561 cumulative IPC: 0.453338 (Simulation time: 0 hr 31 min 20 sec) 
Heartbeat CPU 2 instructions: 40000000 cycles: 77208876 heartbeat IPC: 0.208043 cumulative IPC: 0.205087 (Simulation time: 0 hr 31 min 42 sec) 
Heartbeat CPU 1 instructions: 90000000 cycles: 81064053 heartbeat IPC: 0.873773 cumulative IPC: 0.849567 (Simulation time: 0 hr 32 min 58 sec) 
Heartbeat CPU 3 instructions: 80000000 cycles: 81236560 heartbeat IPC: 0.731634 cumulative IPC: 0.709025 (Simulation time: 0 hr 33 min 2 sec) 
Heartbeat CPU 7 instructions: 70000001 cycles: 82812979 heartbeat IPC: 0.676495 cumulative IPC: 0.675791 (Simulation time: 0 hr 33 min 29 sec) 
Heartbeat CPU 4 instructions: 90000003 cycles: 88453707 heartbeat IPC: 0.741279 cumulative IPC: 0.751135 (Simulation time: 0 hr 35 min 16 sec) 
Heartbeat CPU 1 instructions: 100000000 cycles: 93361968 heartbeat IPC: 0.813146 cumulative IPC: 0.844047 (Simulation time: 0 hr 36 min 52 sec) 
Heartbeat CPU 6 instructions: 50000001 cycles: 93664042 heartbeat IPC: 0.358345 cumulative IPC: 0.342026 (Simulation time: 0 hr 36 min 58 sec) 
Heartbeat CPU 3 instructions: 90000000 cycles: 96119427 heartbeat IPC: 0.671914 cumulative IPC: 0.702442 (Simulation time: 0 hr 37 min 44 sec) 
Heartbeat CPU 5 instructions: 60000000 cycles: 96995827 heartbeat IPC: 0.477098 cumulative IPC: 0.459212 (Simulation time: 0 hr 38 min 3 sec) 
Heartbeat CPU 7 instructions: 80000000 cycles: 97568463 heartbeat IPC: 0.677714 cumulative IPC: 0.676123 (Simulation time: 0 hr 38 min 16 sec) 
Heartbeat CPU 0 instructions: 40000000 cycles: 100483575 heartbeat IPC: 0.251938 cumulative IPC: 0.226604 (Simulation time: 0 hr 39 min 6 sec) 
Heartbeat CPU 4 instructions: 100000000 cycles: 101615941 heartbeat IPC: 0.759749 cumulative IPC: 0.752404 (Simulation time: 0 hr 39 min 29 sec) 
Heartbeat CPU 1 instructions: 110000003 cycles: 105573601 heartbeat IPC: 0.818892 cumulative IPC: 0.840756 (Simulation time: 0 hr 40 min 48 sec) 
Heartbeat CPU 3 instructions: 100000000 cycles: 108203598 heartbeat IPC: 0.827529 cumulative IPC: 0.718191 (Simulation time: 0 hr 41 min 41 sec) 
Heartbeat CPU 7 instructions: 90000001 cycles: 112394623 heartbeat IPC: 0.674484 cumulative IPC: 0.675881 (Simulation time: 0 hr 43 min 1 sec) 
Heartbeat CPU 4 instructions: 110000000 cycles: 115136485 heartbeat IPC: 0.739615 cumulative IPC: 0.750724 (Simulation time: 0 hr 43 min 56 sec) 
Heartbeat CPU 5 instructions: 70000000 cycles: 116764869 heartbeat IPC: 0.505841 cumulative IPC: 0.46803 (Simulation time: 0 hr 44 min 29 sec) 
Heartbeat CPU 1 instructions: 120000000 cycles: 118379006 heartbeat IPC: 0.78092 cumulative IPC: 0.833538 (Simulation time: 0 hr 45 min 3 sec) 
Heartbeat CPU 6 instructions: 60000000 cycles: 120999302 heartbeat IPC: 0.365828 cumulative IPC: 0.348008 (Simulation time: 0 hr 45 min 53 sec) 
Heartbeat CPU 3 instructions: 110000002 cycles: 121264750 heartbeat IPC: 0.765629 cumulative IPC: 0.723873 (Simulation time: 0 hr 45 min 59 sec) 
Heartbeat CPU 7 instructions: 100000000 cycles: 127159007 heartbeat IPC: 0.677306 cumulative IPC: 0.676064 (Simulation time: 0 hr 47 min 55 sec) 
Heartbeat CPU 2 instructions: 50000000 cycles: 127909531 heartbeat IPC: 0.197236 cumulative IPC: 0.201646 (Simulation time: 0 hr 48 min 10 sec) 
Heartbeat CPU 4 instructions: 120000000 cycles: 128310806 heartbeat IPC: 0.759052 cumulative IPC: 0.751669 (Simulation time: 0 hr 48 min 17 sec) 
Heartbeat CPU 1 instructions: 130000003 cycles: 131611098 heartbeat IPC: 0.755739 cumulative IPC: 0.824916 (Simulation time: 0 hr 49 min 23 sec) 
Heartbeat CPU 3 instructions: 120000000 cycles: 132224110 heartbeat IPC: 0.912462 cumulative IPC: 0.741096 (Simulation time: 0 hr 49 min 35 sec) 
Finished CPU 1 instructions: 100000002 cycles: 120719083 cumulative IPC: 0.828369 (Simulation time: 0 hr 49 min 49 sec) 
Heartbeat CPU 5 instructions: 80000000 cycles: 135766152 heartbeat IPC: 0.52628 cumulative IPC: 0.476989 (Simulation time: 0 hr 50 min 49 sec) 
Heartbeat CPU 3 instructions: 130000001 cycles: 141585652 heartbeat IPC: 1.0682 cumulative IPC: 0.764768 (Simulation time: 0 hr 52 min 51 sec) 
Heartbeat CPU 7 instructions: 110000002 cycles: 141917693 heartbeat IPC: 0.677567 cumulative IPC: 0.676235 (Simulation time: 0 hr 52 min 58 sec) 
Heartbeat CPU 4 instructions: 130000002 cycles: 142001884 heartbeat IPC: 0.730403 cumulative IPC: 0.749425 (Simulation time: 0 hr 53 min 0 sec) 
Finished CPU 3 instructions: 100000000 cycles: 130749421 cumulative IPC: 0.764822 (Simulation time: 0 hr 53 min 21 sec) 
Heartbeat CPU 1 instructions: 140000000 cycles: 144504318 heartbeat IPC: 0.775601 cumulative IPC: 0.820109 (Simulation time: 0 hr 53 min 54 sec) 
Finished CPU 4 instructions: 100000001 cycles: 133052589 cumulative IPC: 0.751583 (Simulation time: 0 hr 54 min 9 sec) 
Heartbeat CPU 0 instructions: 50000003 cycles: 147354885 heartbeat IPC: 0.21335 cumulative IPC: 0.222007 (Simulation time: 0 hr 54 min 55 sec) 
Heartbeat CPU 6 instructions: 70000000 cycles: 151334760 heartbeat IPC: 0.329647 cumulative IPC: 0.344004 (Simulation time: 0 hr 56 min 17 sec) 
Heartbeat CPU 3 instructions: 140000000 cycles: 151374658 heartbeat IPC: 1.02155 cumulative IPC: 0.782832 (Simulation time: 0 hr 56 min 18 sec) 
Heartbeat CPU 4 instructions: 140000000 cycles: 153745579 heartbeat IPC: 0.851521 cumulative IPC: 0.757897 (Simulation time: 0 hr 57 min 5 sec) 
Heartbeat CPU 5 instructions: 90000000 cycles: 154544571 heartbeat IPC: 0.532526 cumulative IPC: 0.484317 (Simulation time: 0 hr 57 min 23 sec) 
Heartbeat CPU 7 instructions: 120000000 cycles: 156776602 heartbeat IPC: 0.672997 cumulative IPC: 0.675902 (Simulation time: 0 hr 58 min 5 sec) 
Heartbeat CPU 1 instructions: 150000001 cycles: 158376792 heartbeat IPC: 0.720852 cumulative IPC: 0.810688 (Simulation time: 0 hr 58 min 39 sec) 
Finished CPU 7 instructions: 100000002 cycles: 147976693 cumulative IPC: 0.675782 (Simulation time: 0 hr 59 min 12 sec) 
Heartbeat CPU 3 instructions: 150000001 cycles: 161591309 heartbeat IPC: 0.978794 cumulative IPC: 0.796236 (Simulation time: 0 hr 59 min 41 sec) 
Heartbeat CPU 4 instructions: 150000002 cycles: 166002100 heartbeat IPC: 0.815892 cumulative IPC: 0.76252 (Simulation time: 1 hr 1 min 12 sec) 
Heartbeat CPU 7 instructions: 130000003 cycles: 171653260 heartbeat IPC: 0.672194 cumulative IPC: 0.675556 (Simulation time: 1 hr 3 min 1 sec) 
Heartbeat CPU 1 instructions: 160000000 cycles: 171809058 heartbeat IPC: 0.744476 cumulative IPC: 0.805115 (Simulation time: 1 hr 3 min 4 sec) 
Heartbeat CPU 3 instructions: 160000000 cycles: 173014149 heartbeat IPC: 0.875439 cumulative IPC: 0.801863 (Simulation time: 1 hr 3 min 28 sec) 
Heartbeat CPU 5 instructions: 100000000 cycles: 173701770 heartbeat IPC: 0.521997 cumulative IPC: 0.488787 (Simulation time: 1 hr 3 min 43 sec) 
Heartbeat CPU 4 instructions: 160000000 cycles: 177873363 heartbeat IPC: 0.84237 cumulative IPC: 0.768242 (Simulation time: 1 hr 5 min 9 sec) 
Heartbeat CPU 2 instructions: 60000000 cycles: 178796142 heartbeat IPC: 0.196515 cumulative IPC: 0.200079 (Simulation time: 1 hr 5 min 26 sec) 
Heartbeat CPU 6 instructions: 80000000 cycles: 181830513 heartbeat IPC: 0.327915 cumulative IPC: 0.341111 (Simulation time: 1 hr 6 min 24 sec) 
Heartbeat CPU 3 instructions: 170000000 cycles: 184636788 heartbeat IPC: 0.86039 cumulative IPC: 0.805808 (Simulation time: 1 hr 7 min 18 sec) 
Heartbeat CPU 1 instructions: 170000001 cycles: 185100566 heartbeat IPC: 0.75236 cumulative IPC: 0.801059 (Simulation time: 1 hr 7 min 27 sec) 
Heartbeat CPU 7 instructions: 140000000 cycles: 186488042 heartbeat IPC: 0.674091 cumulative IPC: 0.675431 (Simulation time: 1 hr 7 min 56 sec) 
Heartbeat CPU 4 instructions: 170000001 cycles: 189946352 heartbeat IPC: 0.828295 cumulative IPC: 0.772322 (Simulation time: 1 hr 9 min 5 sec) 
Heartbeat CPU 0 instructions: 60000000 cycles: 192441668 heartbeat IPC: 0.221794 cumulative IPC: 0.221954 (Simulation time: 1 hr 9 min 56 sec) 
Heartbeat CPU 5 instructions: 110000000 cycles: 192544989 heartbeat IPC: 0.530695 cumulative IPC: 0.493166 (Simulation time: 1 hr 9 min 58 sec) 
Heartbeat CPU 3 instructions: 180000000 cycles: 197292791 heartbeat IPC: 0.790139 cumulative IPC: 0.804737 (Simulation time: 1 hr 11 min 26 sec) 
Heartbeat CPU 1 instructions: 180000000 cycles: 198935477 heartbeat IPC: 0.722809 cumulative IPC: 0.795261 (Simulation time: 1 hr 11 min 57 sec) 
Heartbeat CPU 7 instructions: 150000001 cycles: 201324263 heartbeat IPC: 0.674026 cumulative IPC: 0.675321 (Simulation time: 1 hr 12 min 44 sec) 
Heartbeat CPU 4 instructions: 180000000 cycles: 202053768 heartbeat IPC: 0.82594 cumulative IPC: 0.775741 (Simulation time: 1 hr 12 min 58 sec) 
Heartbeat CPU 1 instructions: 190000000 cycles: 211389073 heartbeat IPC: 0.802981 cumulative IPC: 0.795743 (Simulation time: 1 hr 15 min 58 sec) 
Heartbeat CPU 5 instructions: 120000000 cycles: 211762705 heartbeat IPC: 0.520353 cumulative IPC: 0.495785 (Simulation time: 1 hr 16 min 6 sec) 
Heartbeat CPU 3 instructions: 190000002 cycles: 212153430 heartbeat IPC: 0.672919 cumulative IPC: 0.794939 (Simulation time: 1 hr 16 min 14 sec) 
Heartbeat CPU 6 instructions: 90000001 cycles: 212790672 heartbeat IPC: 0.322996 cumulative IPC: 0.338315 (Simulation time: 1 hr 16 min 25 sec) 
Heartbeat CPU 4 instructions: 190000003 cycles: 213788029 heartbeat IPC: 0.852206 cumulative IPC: 0.780193 (Simulation time: 1 hr 16 min 44 sec) 
Finished CPU 5 instructions: 100000002 cycles: 201583693 cumulative IPC: 0.496072 (Simulation time: 1 hr 16 min 44 sec) 
Heartbeat CPU 7 instructions: 160000000 cycles: 216129492 heartbeat IPC: 0.675437 cumulative IPC: 0.67533 (Simulation time: 1 hr 17 min 30 sec) 
Heartbeat CPU 1 instructions: 200000000 cycles: 224627552 heartbeat IPC: 0.755374 cumulative IPC: 0.793227 (Simulation time: 1 hr 20 min 11 sec) 
Heartbeat CPU 3 instructions: 200000000 cycles: 227526426 heartbeat IPC: 0.650491 cumulative IPC: 0.784625 (Simulation time: 1 hr 21 min 3 sec) 
Heartbeat CPU 4 instructions: 200000000 cycles: 228977365 heartbeat IPC: 0.658356 cumulative IPC: 0.771655 (Simulation time: 1 hr 21 min 31 sec) 
Heartbeat CPU 7 instructions: 170000002 cycles: 230920892 heartbeat IPC: 0.676069 cumulative IPC: 0.675379 (Simulation time: 1 hr 22 min 9 sec) 
Heartbeat CPU 5 instructions: 130000002 cycles: 231717064 heartbeat IPC: 0.501144 cumulative IPC: 0.496272 (Simulation time: 1 hr 22 min 23 sec) 
Heartbeat CPU 2 instructions: 70000002 cycles: 232351598 heartbeat IPC: 0.186722 cumulative IPC: 0.196829 (Simulation time: 1 hr 22 min 33 sec) 
Heartbeat CPU 0 instructions: 70000000 cycles: 236079170 heartbeat IPC: 0.229161 cumulative IPC: 0.223358 (Simulation time: 1 hr 23 min 42 sec) 
Heartbeat CPU 1 instructions: 210000003 cycles: 237619520 heartbeat IPC: 0.769707 cumulative IPC: 0.791871 (Simulation time: 1 hr 24 min 10 sec) 
Heartbeat CPU 3 instructions: 210000002 cycles: 240366832 heartbeat IPC: 0.778792 cumulative IPC: 0.784297 (Simulation time: 1 hr 25 min 0 sec) 
Heartbeat CPU 6 instructions: 100000000 cycles: 241574076 heartbeat IPC: 0.347422 cumulative IPC: 0.339458 (Simulation time: 1 hr 25 min 24 sec) 
Heartbeat CPU 7 instructions: 180000000 cycles: 245725635 heartbeat IPC: 0.675459 cumulative IPC: 0.675385 (Simulation time: 1 hr 26 min 42 sec) 
Heartbeat CPU 1 instructions: 220000000 cycles: 250094202 heartbeat IPC: 0.801623 cumulative IPC: 0.792383 (Simulation time: 1 hr 28 min 1 sec) 
Heartbeat CPU 5 instructions: 140000000 cycles: 250844779 heartbeat IPC: 0.522802 cumulative IPC: 0.498399 (Simulation time: 1 hr 28 min 14 sec) 
Heartbeat CPU 3 instructions: 220000000 cycles: 251851674 heartbeat IPC: 0.870713 cumulative IPC: 0.788438 (Simulation time: 1 hr 28 min 34 sec) 
Heartbeat CPU 4 instructions: 210000000 cycles: 252901326 heartbeat IPC: 0.417991 cumulative IPC: 0.7365 (Simulation time: 1 hr 28 min 57 sec) 
Heartbeat CPU 7 instructions: 190000002 cycles: 260478437 heartbeat IPC: 0.677837 cumulative IPC: 0.67553 (Simulation time: 1 hr 31 min 19 sec) 
Heartbeat CPU 1 instructions: 230000001 cycles: 261418616 heartbeat IPC: 0.883048 cumulative IPC: 0.796503 (Simulation time: 1 hr 31 min 38 sec) 
Heartbeat CPU 3 instructions: 230000003 cycles: 263593335 heartbeat IPC: 0.851669 cumulative IPC: 0.791392 (Simulation time: 1 hr 32 min 18 sec) 
Heartbeat CPU 5 instructions: 150000001 cycles: 270104445 heartbeat IPC: 0.51922 cumulative IPC: 0.499954 (Simulation time: 1 hr 34 min 29 sec) 
Heartbeat CPU 1 instructions: 240000000 cycles: 272161667 heartbeat IPC: 0.930834 cumulative IPC: 0.802055 (Simulation time: 1 hr 35 min 8 sec) 
Heartbeat CPU 3 instructions: 240000000 cycles: 273776559 heartbeat IPC: 0.982007 cumulative IPC: 0.798813 (Simulation time: 1 hr 35 min 40 sec) 
Heartbeat CPU 7 instructions: 200000000 cycles: 275257190 heartbeat IPC: 0.676647 cumulative IPC: 0.675593 (Simulation time: 1 hr 36 min 11 sec) 
Heartbeat CPU 4 instructions: 220000000 cycles: 276618976 heartbeat IPC: 0.421627 cumulative IPC: 0.708254 (Simulation time: 1 hr 36 min 40 sec) 
Heartbeat CPU 2 instructions: 80000000 cycles: 281232310 heartbeat IPC: 0.20458 cumulative IPC: 0.198238 (Simulation time: 1 hr 38 min 17 sec) 
Heartbeat CPU 0 instructions: 80000000 cycles: 281665446 heartbeat IPC: 0.219364 cumulative IPC: 0.222683 (Simulation time: 1 hr 38 min 26 sec) 
Heartbeat CPU 1 instructions: 250000000 cycles: 282258347 heartbeat IPC: 0.990425 cumulative IPC: 0.809098 (Simulation time: 1 hr 38 min 39 sec) 
Heartbeat CPU 3 instructions: 250000003 cycles: 282566701 heartbeat IPC: 1.13764 cumulative IPC: 0.80983 (Simulation time: 1 hr 38 min 45 sec) 
Heartbeat CPU 6 instructions: 110000001 cycles: 285200262 heartbeat IPC: 0.22922 cumulative IPC: 0.32184 (Simulation time: 1 hr 39 min 42 sec) 
Heartbeat CPU 5 instructions: 160000000 cycles: 288922374 heartbeat IPC: 0.531408 cumulative IPC: 0.502093 (Simulation time: 1 hr 40 min 55 sec) 
Heartbeat CPU 7 instructions: 210000001 cycles: 290087310 heartbeat IPC: 0.674303 cumulative IPC: 0.675524 (Simulation time: 1 hr 41 min 18 sec) 
Heartbeat CPU 3 instructions: 260000000 cycles: 291697197 heartbeat IPC: 1.09523 cumulative IPC: 0.819154 (Simulation time: 1 hr 41 min 53 sec) 
Heartbeat CPU 1 instructions: 260000000 cycles: 293065581 heartbeat IPC: 0.925306 cumulative IPC: 0.81357 (Simulation time: 1 hr 42 min 21 sec) 
Heartbeat CPU 4 instructions: 230000000 cycles: 300052330 heartbeat IPC: 0.426742 cumulative IPC: 0.685335 (Simulation time: 1 hr 44 min 35 sec) 
Heartbeat CPU 3 instructions: 270000001 cycles: 302217424 heartbeat IPC: 0.95055 cumulative IPC: 0.823921 (Simulation time: 1 hr 45 min 21 sec) 
Heartbeat CPU 7 instructions: 220000000 cycles: 304935305 heartbeat IPC: 0.673492 cumulative IPC: 0.675421 (Simulation time: 1 hr 46 min 13 sec) 
Heartbeat CPU 1 instructions: 270000001 cycles: 305795276 heartbeat IPC: 0.785565 cumulative IPC: 0.812356 (Simulation time: 1 hr 46 min 30 sec) 
Heartbeat CPU 6 instructions: 120000000 cycles: 306925334 heartbeat IPC: 0.460298 cumulative IPC: 0.332047 (Simulation time: 1 hr 46 min 52 sec) 
Heartbeat CPU 5 instructions: 170000000 cycles: 309068953 heartbeat IPC: 0.496362 cumulative IPC: 0.501704 (Simulation time: 1 hr 47 min 33 sec) 
Heartbeat CPU 3 instructions: 280000000 cycles: 311860414 heartbeat IPC: 1.03702 cumulative IPC: 0.830779 (Simulation time: 1 hr 48 min 29 sec) 
Finished CPU 6 instructions: 100000002 cycles: 302989030 cumulative IPC: 0.330045 (Simulation time: 1 hr 49 min 31 sec) 
Heartbeat CPU 1 instructions: 280000000 cycles: 318165680 heartbeat IPC: 0.808381 cumulative IPC: 0.812195 (Simulation time: 1 hr 50 min 27 sec) 
Heartbeat CPU 7 instructions: 230000002 cycles: 319806568 heartbeat IPC: 0.672438 cumulative IPC: 0.675277 (Simulation time: 1 hr 50 min 56 sec) 
Heartbeat CPU 3 instructions: 290000000 cycles: 322354014 heartbeat IPC: 0.952962 cumulative IPC: 0.834913 (Simulation time: 1 hr 51 min 41 sec) 
Heartbeat CPU 0 instructions: 90000002 cycles: 328739520 heartbeat IPC: 0.212431 cumulative IPC: 0.221158 (Simulation time: 1 hr 53 min 43 sec) 
Heartbeat CPU 5 instructions: 180000000 cycles: 329545823 heartbeat IPC: 0.488356 cumulative IPC: 0.500843 (Simulation time: 1 hr 53 min 59 sec) 
Heartbeat CPU 1 instructions: 290000000 cycles: 331169714 heartbeat IPC: 0.768992 cumulative IPC: 0.810433 (Simulation time: 1 hr 54 min 31 sec) 
Heartbeat CPU 3 instructions: 300000000 cycles: 334072980 heartbeat IPC: 0.853318 cumulative IPC: 0.835583 (Simulation time: 1 hr 55 min 25 sec) 
Heartbeat CPU 4 instructions: 240000000 cycles: 334110847 heartbeat IPC: 0.293612 cumulative IPC: 0.643887 (Simulation time: 1 hr 55 min 26 sec) 
Heartbeat CPU 7 instructions: 240000000 cycles: 334678243 heartbeat IPC: 0.672419 cumulative IPC: 0.675145 (Simulation time: 1 hr 55 min 36 sec) 
Heartbeat CPU 2 instructions: 90000001 cycles: 336115937 heartbeat IPC: 0.182204 cumulative IPC: 0.195521 (Simulation time: 1 hr 56 min 5 sec) 
Heartbeat CPU 6 instructions: 130000002 cycles: 341177265 heartbeat IPC: 0.291954 cumulative IPC: 0.327872 (Simulation time: 1 hr 57 min 41 sec) 
Heartbeat CPU 1 instructions: 300000000 cycles: 344421035 heartbeat IPC: 0.754642 cumulative IPC: 0.808208 (Simulation time: 1 hr 58 min 39 sec) 
Heartbeat CPU 3 instructions: 310000002 cycles: 345583318 heartbeat IPC: 0.868784 cumulative IPC: 0.83673 (Simulation time: 1 hr 59 min 3 sec) 
Heartbeat CPU 5 instructions: 190000003 cycles: 348377712 heartbeat IPC: 0.531014 cumulative IPC: 0.502533 (Simulation time: 1 hr 59 min 52 sec) 
Heartbeat CPU 7 instructions: 250000002 cycles: 349542741 heartbeat IPC: 0.672744 cumulative IPC: 0.675039 (Simulation time: 2 hr 0 min 16 sec) 
Heartbeat CPU 1 instructions: 310000000 cycles: 358317291 heartbeat IPC: 0.719618 cumulative IPC: 0.804651 (Simulation time: 2 hr 2 min 53 sec) 
Heartbeat CPU 3 instructions: 320000000 cycles: 358344954 heartbeat IPC: 0.783598 cumulative IPC: 0.834771 (Simulation time: 2 hr 2 min 54 sec) 
Heartbeat CPU 7 instructions: 260000000 cycles: 364451355 heartbeat IPC: 0.670753 cumulative IPC: 0.674858 (Simulation time: 2 hr 4 min 57 sec) 
Heartbeat CPU 4 instructions: 250000001 cycles: 366798843 heartbeat IPC: 0.305923 cumulative IPC: 0.612731 (Simulation time: 2 hr 5 min 39 sec) 
Heartbeat CPU 5 instructions: 200000000 cycles: 367650781 heartbeat IPC: 0.518859 cumulative IPC: 0.503418 (Simulation time: 2 hr 5 min 56 sec) 
Heartbeat CPU 3 instructions: 330000002 cycles: 369364275 heartbeat IPC: 0.907497 cumulative IPC: 0.837015 (Simulation time: 2 hr 6 min 30 sec) 
Heartbeat CPU 6 instructions: 140000000 cycles: 370108656 heartbeat IPC: 0.345645 cumulative IPC: 0.329309 (Simulation time: 2 hr 6 min 46 sec) 
Heartbeat CPU 1 instructions: 320000000 cycles: 370164446 heartbeat IPC: 0.844085 cumulative IPC: 0.805956 (Simulation time: 2 hr 6 min 47 sec) 
Heartbeat CPU 0 instructions: 100000000 cycles: 377190884 heartbeat IPC: 0.206392 cumulative IPC: 0.219198 (Simulation time: 2 hr 9 min 1 sec) 
Heartbeat CPU 7 instructions: 270000000 cycles: 379248310 heartbeat IPC: 0.675815 cumulative IPC: 0.674896 (Simulation time: 2 hr 9 min 40 sec) 
Heartbeat CPU 4 instructions: 260000000 cycles: 379881558 heartbeat IPC: 0.764367 cumulative IPC: 0.618126 (Simulation time: 2 hr 9 min 53 sec) 
Heartbeat CPU 3 instructions: 340000000 cycles: 381700895 heartbeat IPC: 0.810595 cumulative IPC: 0.836132 (Simulation time: 2 hr 10 min 31 sec) 
Heartbeat CPU 1 instructions: 330000000 cycles: 381883417 heartbeat IPC: 0.853317 cumulative IPC: 0.807458 (Simulation time: 2 hr 10 min 35 sec) 
Heartbeat CPU 2 instructions: 100000000 cycles: 385963171 heartbeat IPC: 0.200613 cumulative IPC: 0.1962 (Simulation time: 2 hr 11 min 55 sec) 
Heartbeat CPU 5 instructions: 210000000 cycles: 387676938 heartbeat IPC: 0.499347 cumulative IPC: 0.503201 (Simulation time: 2 hr 12 min 30 sec) 
Heartbeat CPU 4 instructions: 270000002 cycles: 393224949 heartbeat IPC: 0.749435 cumulative IPC: 0.622725 (Simulation time: 2 hr 14 min 18 sec) 
Heartbeat CPU 3 instructions: 350000001 cycles: 393276473 heartbeat IPC: 0.863888 cumulative IPC: 0.836976 (Simulation time: 2 hr 14 min 19 sec) 
Heartbeat CPU 7 instructions: 280000000 cycles: 394053657 heartbeat IPC: 0.675432 cumulative IPC: 0.674917 (Simulation time: 2 hr 14 min 33 sec) 
Heartbeat CPU 1 instructions: 340000000 cycles: 394122367 heartbeat IPC: 0.817064 cumulative IPC: 0.807765 (Simulation time: 2 hr 14 min 34 sec) 
Heartbeat CPU 6 instructions: 150000002 cycles: 396398242 heartbeat IPC: 0.380379 cumulative IPC: 0.332804 (Simulation time: 2 hr 15 min 18 sec) 
Heartbeat CPU 3 instructions: 360000000 cycles: 405134530 heartbeat IPC: 0.843308 cumulative IPC: 0.837167 (Simulation time: 2 hr 18 min 8 sec) 
Heartbeat CPU 1 instructions: 350000002 cycles: 406123272 heartbeat IPC: 0.833271 cumulative IPC: 0.808542 (Simulation time: 2 hr 18 min 29 sec) 
Heartbeat CPU 4 instructions: 280000000 cycles: 406296970 heartbeat IPC: 0.764992 cumulative IPC: 0.627444 (Simulation time: 2 hr 18 min 33 sec) 
Heartbeat CPU 5 instructions: 220000000 cycles: 407253671 heartbeat IPC: 0.51081 cumulative IPC: 0.503578 (Simulation time: 2 hr 18 min 51 sec) 
Heartbeat CPU 7 instructions: 290000002 cycles: 408804069 heartbeat IPC: 0.677947 cumulative IPC: 0.67503 (Simulation time: 2 hr 19 min 21 sec) 
Heartbeat CPU 3 instructions: 370000001 cycles: 416009417 heartbeat IPC: 0.91955 cumulative IPC: 0.839386 (Simulation time: 2 hr 21 min 42 sec) 
Heartbeat CPU 1 instructions: 360000000 cycles: 418568108 heartbeat IPC: 0.803546 cumulative IPC: 0.808389 (Simulation time: 2 hr 22 min 33 sec) 
Heartbeat CPU 4 instructions: 290000003 cycles: 419604933 heartbeat IPC: 0.75143 cumulative IPC: 0.631495 (Simulation time: 2 hr 22 min 53 sec) 
Heartbeat CPU 0 instructions: 110000000 cycles: 421707117 heartbeat IPC: 0.224637 cumulative IPC: 0.219789 (Simulation time: 2 hr 23 min 36 sec) 
Heartbeat CPU 7 instructions: 300000000 cycles: 423599538 heartbeat IPC: 0.675882 cumulative IPC: 0.675061 (Simulation time: 2 hr 24 min 8 sec) 
Heartbeat CPU 6 instructions: 160000000 cycles: 425987951 heartbeat IPC: 0.337955 cumulative IPC: 0.333172 (Simulation time: 2 hr 24 min 52 sec) 
Heartbeat CPU 3 instructions: 380000000 cycles: 426345971 heartbeat IPC: 0.96744 cumulative IPC: 0.842582 (Simulation time: 2 hr 24 min 58 sec) 
Heartbeat CPU 5 instructions: 230000000 cycles: 428292619 heartbeat IPC: 0.475309 cumulative IPC: 0.502149 (Simulation time: 2 hr 25 min 34 sec) 
Heartbeat CPU 1 instructions: 370000000 cycles: 430760854 heartbeat IPC: 0.82016 cumulative IPC: 0.808732 (Simulation time: 2 hr 26 min 23 sec) 
Heartbeat CPU 4 instructions: 300000000 cycles: 432701733 heartbeat IPC: 0.763545 cumulative IPC: 0.635608 (Simulation time: 2 hr 26 min 59 sec) 
Heartbeat CPU 3 instructions: 390000002 cycles: 437878626 heartbeat IPC: 0.867103 cumulative IPC: 0.843246 (Simulation time: 2 hr 28 min 37 sec) 
Heartbeat CPU 2 instructions: 110000003 cycles: 438176382 heartbeat IPC: 0.191522 cumulative IPC: 0.195626 (Simulation time: 2 hr 28 min 43 sec) 
Heartbeat CPU 7 instructions: 310000000 cycles: 438437130 heartbeat IPC: 0.673964 cumulative IPC: 0.675022 (Simulation time: 2 hr 28 min 49 sec) 
Heartbeat CPU 1 instructions: 380000000 cycles: 443218655 heartbeat IPC: 0.80271 cumulative IPC: 0.808558 (Simulation time: 2 hr 30 min 14 sec) 
Heartbeat CPU 4 instructions: 310000003 cycles: 446180731 heartbeat IPC: 0.741895 cumulative IPC: 0.638909 (Simulation time: 2 hr 31 min 10 sec) 
Heartbeat CPU 5 instructions: 240000000 cycles: 447895751 heartbeat IPC: 0.510123 cumulative IPC: 0.502507 (Simulation time: 2 hr 31 min 40 sec) 
Heartbeat CPU 3 instructions: 400000000 cycles: 451359981 heartbeat IPC: 0.741765 cumulative IPC: 0.840131 (Simulation time: 2 hr 32 min 44 sec) 
Heartbeat CPU 7 instructions: 320000000 cycles: 453242537 heartbeat IPC: 0.675429 cumulative IPC: 0.675036 (Simulation time: 2 hr 33 min 17 sec) 
Heartbeat CPU 6 instructions: 170000002 cycles: 454874982 heartbeat IPC: 0.346176 cumulative IPC: 0.334021 (Simulation time: 2 hr 33 min 44 sec) 
Heartbeat CPU 1 instructions: 390000003 cycles: 456248330 heartbeat IPC: 0.767479 cumulative IPC: 0.807353 (Simulation time: 2 hr 34 min 12 sec) 
Heartbeat CPU 4 instructions: 320000000 cycles: 459376209 heartbeat IPC: 0.757835 cumulative IPC: 0.642419 (Simulation time: 2 hr 35 min 8 sec) 
Heartbeat CPU 3 instructions: 410000002 cycles: 466593004 heartbeat IPC: 0.656469 cumulative IPC: 0.833973 (Simulation time: 2 hr 37 min 23 sec) 
Heartbeat CPU 0 instructions: 120000000 cycles: 467030936 heartbeat IPC: 0.220635 cumulative IPC: 0.219873 (Simulation time: 2 hr 37 min 31 sec) 
Finished CPU 0 instructions: 100000000 cycles: 454807182 cumulative IPC: 0.219873 (Simulation time: 2 hr 37 min 31 sec) 
Heartbeat CPU 7 instructions: 330000000 cycles: 468105984 heartbeat IPC: 0.672791 cumulative IPC: 0.674963 (Simulation time: 2 hr 37 min 53 sec) 
Heartbeat CPU 1 instructions: 400000000 cycles: 468209658 heartbeat IPC: 0.836027 cumulative IPC: 0.808105 (Simulation time: 2 hr 37 min 55 sec) 
Heartbeat CPU 5 instructions: 250000002 cycles: 468402374 heartbeat IPC: 0.487647 cumulative IPC: 0.501839 (Simulation time: 2 hr 37 min 58 sec) 
Heartbeat CPU 4 instructions: 330000001 cycles: 472560798 heartbeat IPC: 0.758461 cumulative IPC: 0.645742 (Simulation time: 2 hr 39 min 16 sec) 
Heartbeat CPU 3 instructions: 420000000 cycles: 476705296 heartbeat IPC: 0.988895 cumulative IPC: 0.837346 (Simulation time: 2 hr 40 min 34 sec) 
Heartbeat CPU 1 instructions: 410000000 cycles: 480965343 heartbeat IPC: 0.783964 cumulative IPC: 0.807448 (Simulation time: 2 hr 41 min 53 sec) 
Heartbeat CPU 7 instructions: 340000000 cycles: 482947764 heartbeat IPC: 0.673774 cumulative IPC: 0.674925 (Simulation time: 2 hr 42 min 27 sec) 
Heartbeat CPU 6 instructions: 180000000 cycles: 483135924 heartbeat IPC: 0.353845 cumulative IPC: 0.335211 (Simulation time: 2 hr 42 min 30 sec) 
Heartbeat CPU 4 instructions: 340000000 cycles: 484674417 heartbeat IPC: 0.825517 cumulative IPC: 0.650352 (Simulation time: 2 hr 43 min 0 sec) 
Heartbeat CPU 5 instructions: 260000000 cycles: 487305995 heartbeat IPC: 0.528999 cumulative IPC: 0.50292 (Simulation time: 2 hr 43 min 48 sec) 
Heartbeat CPU 3 instructions: 430000000 cycles: 489763838 heartbeat IPC: 0.765782 cumulative IPC: 0.835389 (Simulation time: 2 hr 44 min 34 sec) 
Heartbeat CPU 2 instructions: 120000000 cycles: 492296367 heartbeat IPC: 0.184775 cumulative IPC: 0.194403 (Simulation time: 2 hr 45 min 19 sec) 
Heartbeat CPU 1 instructions: 420000000 cycles: 493987254 heartbeat IPC: 0.767936 cumulative IPC: 0.80638 (Simulation time: 2 hr 45 min 50 sec) 
Heartbeat CPU 4 instructions: 350000002 cycles: 497120929 heartbeat IPC: 0.803438 cumulative IPC: 0.654281 (Simulation time: 2 hr 46 min 51 sec) 
Heartbeat CPU 7 instructions: 350000000 cycles: 497816888 heartbeat IPC: 0.672535 cumulative IPC: 0.674852 (Simulation time: 2 hr 47 min 3 sec) 
Heartbeat CPU 3 instructions: 440000000 cycles: 502483623 heartbeat IPC: 0.786177 cumulative IPC: 0.834112 (Simulation time: 2 hr 48 min 29 sec) 
Heartbeat CPU 5 instructions: 270000003 cycles: 505831632 heartbeat IPC: 0.539793 cumulative IPC: 0.504304 (Simulation time: 2 hr 49 min 32 sec) 
Heartbeat CPU 1 instructions: 430000001 cycles: 506773886 heartbeat IPC: 0.782067 cumulative IPC: 0.805751 (Simulation time: 2 hr 49 min 50 sec) 
Heartbeat CPU 4 instructions: 360000000 cycles: 509279201 heartbeat IPC: 0.822485 cumulative IPC: 0.658395 (Simulation time: 2 hr 50 min 39 sec) 
Heartbeat CPU 6 instructions: 190000001 cycles: 511032525 heartbeat IPC: 0.358467 cumulative IPC: 0.336511 (Simulation time: 2 hr 51 min 13 sec) 
Heartbeat CPU 0 instructions: 130000003 cycles: 511763292 heartbeat IPC: 0.223552 cumulative IPC: 0.220203 (Simulation time: 2 hr 51 min 27 sec) 
Heartbeat CPU 7 instructions: 360000000 cycles: 512652662 heartbeat IPC: 0.674046 cumulative IPC: 0.674828 (Simulation time: 2 hr 51 min 43 sec) 
Heartbeat CPU 3 instructions: 450000002 cycles: 513181394 heartbeat IPC: 0.934774 cumulative IPC: 0.836262 (Simulation time: 2 hr 51 min 54 sec) 
Heartbeat CPU 1 instructions: 440000000 cycles: 518628338 heartbeat IPC: 0.843565 cumulative IPC: 0.806637 (Simulation time: 2 hr 53 min 37 sec) 
Heartbeat CPU 4 instructions: 370000003 cycles: 521303337 heartbeat IPC: 0.831661 cumulative IPC: 0.662488 (Simulation time: 2 hr 54 min 28 sec) 
Heartbeat CPU 3 instructions: 460000000 cycles: 523579888 heartbeat IPC: 0.961678 cumulative IPC: 0.838812 (Simulation time: 2 hr 55 min 12 sec) 
Heartbeat CPU 5 instructions: 280000000 cycles: 524765234 heartbeat IPC: 0.528161 cumulative IPC: 0.505185 (Simulation time: 2 hr 55 min 34 sec) 
Heartbeat CPU 7 instructions: 370000003 cycles: 527459885 heartbeat IPC: 0.675346 cumulative IPC: 0.674843 (Simulation time: 2 hr 56 min 26 sec) 
Finished CPU 2 instructions: 100000000 cycles: 516316367 cumulative IPC: 0.19368 (Simulation time: 2 hr 56 min 48 sec) 

CPU 0 Branch Prediction Accuracy: 97.2017% MPKI: 5.08329

CPU 1 Branch Prediction Accuracy: 96.8547% MPKI: 2.73683

CPU 2 Branch Prediction Accuracy: 99.1016% MPKI: 2.17881

CPU 3 Branch Prediction Accuracy: 97.9701% MPKI: 1.76126

CPU 4 Branch Prediction Accuracy: 99.9987% MPKI: 0.00042717

CPU 5 Branch Prediction Accuracy: 95.9571% MPKI: 4.16308

CPU 6 Branch Prediction Accuracy: 95.2238% MPKI: 8.46814

CPU 7 Branch Prediction Accuracy: 99.818% MPKI: 0.347426

ChampSim completed all CPUs

Total Simulation Statistics (not including warmup)

CPU 0 cumulative IPC: 0.220328 instructions: 113758955 cycles: 516316366
L1D TOTAL     ACCESS:   39619750  HIT:   36822623  MISS:    2797127
L1D LOAD      ACCESS:   21814998  HIT:   19399673  MISS:    2415325
L1D RFO       ACCESS:   17804752  HIT:   17422950  MISS:     381802
L1D PREFETCH  ACCESS:          0  HIT:          0  MISS:          0
L1D WRITEBACK ACCESS:          0  HIT:          0  MISS:          0
L1I TOTAL     ACCESS:   34067517  HIT:   34064329  MISS:       3188
L1I LOAD      ACCESS:   34067517  HIT:   34064329  MISS:       3188
L1I RFO       ACCESS:          0  HIT:          0  MISS:          0
L1I PREFETCH  ACCESS:          0  HIT:          0  MISS:          0
L1I WRITEBACK ACCESS:          0  HIT:          0  MISS:          0
L2C TOTAL     ACCESS:    4219094  HIT:    1710661  MISS:    2508433
L2C LOAD      ACCESS:    2418362  HIT:     335053  MISS:    2083309
L2C RFO       ACCESS:     381797  HIT:      18096  MISS:     363701
L2C PREFETCH  ACCESS:     230204  HIT:     173145  MISS:      57059
L2C WRITEBACK ACCESS:    1188731  HIT:    1184367  MISS:       4364
LLC TOTAL     ACCESS:    4860169  HIT:    2097131  MISS:    2763038
LLC LOAD      ACCESS:    2078652  HIT:     613262  MISS:    1465390
LLC RFO       ACCESS:     363583  HIT:      71856  MISS:     291727
LLC PREFETCH  ACCESS:    1361220  HIT:     361446  MISS:     999774
LLC WRITEBACK ACCESS:    1056714  HIT:    1050567  MISS:       6147

CPU 1 cumulative IPC: 0.806014 instructions: 416158446 cycles: 516316367
L1D TOTAL     ACCESS:   70308675  HIT:   64017829  MISS:    6290846
L1D LOAD      ACCESS:   63382461  HIT:   57348902  MISS:    6033559
L1D RFO       ACCESS:    6926214  HIT:    6668927  MISS:     257287
L1D PREFETCH  ACCESS:          0  HIT:          0  MISS:          0
L1D WRITEBACK ACCESS:          0  HIT:          0  MISS:          0
L1I TOTAL     ACCESS:  108733349  HIT:  108733040  MISS:        309
L1I LOAD      ACCESS:  108733349  HIT:  108733040  MISS:        309
L1I RFO       ACCESS:          0  HIT:          0  MISS:          0
L1I PREFETCH  ACCESS:          0  HIT:          0  MISS:          0
L1I WRITEBACK ACCESS:          0  HIT:          0  MISS:          0
L2C TOTAL     ACCESS:    9453467  HIT:    4128119  MISS:    5325348
L2C LOAD      ACCESS:    6033867  HIT:    2824018  MISS:    3209849
L2C RFO       ACCESS:     257274  HIT:      42391  MISS:     214883
L2C PREFETCH  ACCESS:    2769107  HIT:     869399  MISS:    1899708
L2C WRITEBACK ACCESS:     393219  HIT:     392311  MISS:        908
LLC TOTAL     ACCESS:   18309715  HIT:   13187068  MISS:    5122647
LLC LOAD      ACCESS:    3021212  HIT:    2235203  MISS:     786009
LLC RFO       ACCESS:     214878  HIT:      64828  MISS:     150050
LLC PREFETCH  ACCESS:   14745336  HIT:   10559640  MISS:    4185696
LLC WRITEBACK ACCESS:     328289  HIT:     327397  MISS:        892

CPU 2 cumulative IPC: 0.19368 instructions: 100000000 cycles: 516316367
L1D TOTAL     ACCESS:   20425441  HIT:   17624026  MISS:    2801415
L1D LOAD      ACCESS:   17075866  HIT:   14293028  MISS:    2782838
L1D RFO       ACCESS:    3349575  HIT:    3330998  MISS:      18577
L1D PREFETCH  ACCESS:          0  HIT:          0  MISS:          0
L1D WRITEBACK ACCESS:          0  HIT:          0  MISS:          0
L1I TOTAL     ACCESS:   32761925  HIT:   32636885  MISS:     125040
L1I LOAD      ACCESS:   32761925  HIT:   32636885  MISS:     125040
L1I RFO       ACCESS:          0  HIT:          0  MISS:          0
L1I PREFETCH  ACCESS:          0  HIT:          0  MISS:          0
L1I WRITEBACK ACCESS:          0  HIT:          0  MISS:          0
L2C TOTAL     ACCESS:    3277495  HIT:     455094  MISS:    2822401
L2C LOAD      ACCESS:    2907876  HIT:     164903  MISS:    2742973
L2C RFO       ACCESS:      18576  HIT:       7793  MISS:      10783
L2C PREFETCH  ACCESS:     307270  HIT:     239308  MISS:      67962
L2C WRITEBACK ACCESS:      43773  HIT:      43090  MISS:        683
LLC TOTAL     ACCESS:    4206586  HIT:     787368  MISS:    3419218
LLC LOAD      ACCESS:    2737294  HIT:     423890  MISS:    2313404
LLC RFO       ACCESS:      10780  HIT:       1211  MISS:       9569
LLC PREFETCH  ACCESS:    1437986  HIT:     342168  MISS:    1095818
LLC WRITEBACK ACCESS:      20526  HIT:      20099  MISS:        427

CPU 3 cumulative IPC: 0.84069 instructions: 434062083 cycles: 516316367
L1D TOTAL     ACCESS:   75760798  HIT:   68695797  MISS:    7065001
L1D LOAD      ACCESS:   67565986  HIT:   61030570  MISS:    6535416
L1D RFO       ACCESS:    8194812  HIT:    7665227  MISS:     529585
L1D PREFETCH  ACCESS:          0  HIT:          0  MISS:          0
L1D WRITEBACK ACCESS:          0  HIT:          0  MISS:          0
L1I TOTAL     ACCESS:  117482338  HIT:  117481032  MISS:       1306
L1I LOAD      ACCESS:  117482338  HIT:  117481032  MISS:       1306
L1I RFO       ACCESS:          0  HIT:          0  MISS:          0
L1I PREFETCH  ACCESS:          0  HIT:          0  MISS:          0
L1I WRITEBACK ACCESS:          0  HIT:          0  MISS:          0
L2C TOTAL     ACCESS:   11153932  HIT:    5283136  MISS:    5870796
L2C LOAD      ACCESS:    6536716  HIT:    2991314  MISS:    3545402
L2C RFO       ACCESS:     529558  HIT:      64862  MISS:     464696
L2C PREFETCH  ACCESS:    3364397  HIT:    1505133  MISS:    1859264
L2C WRITEBACK ACCESS:     723261  HIT:     721827  MISS:       1434
LLC TOTAL     ACCESS:   20992111  HIT:   17580395  MISS:    3411716
LLC LOAD      ACCESS:    3317982  HIT:    2586725  MISS:     731257
LLC RFO       ACCESS:     464693  HIT:     269613  MISS:     195080
LLC PREFETCH  ACCESS:   16586532  HIT:   14101635  MISS:    2484897
LLC WRITEBACK ACCESS:     622904  HIT:     622422  MISS:        482

CPU 4 cumulative IPC: 0.664494 instructions: 343089313 cycles: 516316367
L1D TOTAL     ACCESS:   40051382  HIT:   32658097  MISS:    7393285
L1D LOAD      ACCESS:   30225691  HIT:   25072341  MISS:    5153350
L1D RFO       ACCESS:    9825691  HIT:    7585756  MISS:    2239935
L1D PREFETCH  ACCESS:          0  HIT:          0  MISS:          0
L1D WRITEBACK ACCESS:          0  HIT:          0  MISS:          0
L1I TOTAL     ACCESS:   80661464  HIT:   80661359  MISS:        105
L1I LOAD      ACCESS:   80661464  HIT:   80661359  MISS:        105
L1I RFO       ACCESS:          0  HIT:          0  MISS:          0
L1I PREFETCH  ACCESS:          0  HIT:          0  MISS:          0
L1I WRITEBACK ACCESS:          0  HIT:          0  MISS:          0
L2C TOTAL     ACCESS:   11091726  HIT:    3686915  MISS:    7404811
L2C LOAD      ACCESS:    5153455  HIT:     927513  MISS:    4225942
L2C RFO       ACCESS:    2239935  HIT:          7  MISS:    2239928
L2C PREFETCH  ACCESS:     978376  HIT:      39445  MISS:     938931
L2C WRITEBACK ACCESS:    2719960  HIT:    2719950  MISS:         10
LLC TOTAL     ACCESS:   16002722  HIT:    8397413  MISS:    7605309
LLC LOAD      ACCESS:    4034260  HIT:    1906079  MISS:    2128181
LLC RFO       ACCESS:    2239928  HIT:       3440  MISS:    2236488
LLC PREFETCH  ACCESS:    7008585  HIT:    3770967  MISS:    3237618
LLC WRITEBACK ACCESS:    2719949  HIT:    2716927  MISS:       3022

CPU 5 cumulative IPC: 0.505332 instructions: 260911158 cycles: 516316367
L1D TOTAL     ACCESS:   90103229  HIT:   89090201  MISS:    1013028
L1D LOAD      ACCESS:   56227283  HIT:   55371900  MISS:     855383
L1D RFO       ACCESS:   33875946  HIT:   33718301  MISS:     157645
L1D PREFETCH  ACCESS:          0  HIT:          0  MISS:          0
L1D WRITEBACK ACCESS:          0  HIT:          0  MISS:          0
L1I TOTAL     ACCESS:   75991677  HIT:   75991677  MISS:          0
L1I LOAD      ACCESS:   75991677  HIT:   75991677  MISS:          0
L1I RFO       ACCESS:          0  HIT:          0  MISS:          0
L1I PREFETCH  ACCESS:          0  HIT:          0  MISS:          0
L1I WRITEBACK ACCESS:          0  HIT:          0  MISS:          0
L2C TOTAL     ACCESS:    1712190  HIT:    1195327  MISS:     516863
L2C LOAD      ACCESS:     855207  HIT:     493091  MISS:     362116
L2C RFO       ACCESS:     157644  HIT:      21070  MISS:     136574
L2C PREFETCH  ACCESS:     216509  HIT:     198632  MISS:      17877
L2C WRITEBACK ACCESS:     482830  HIT:     482534  MISS:        296
LLC TOTAL     ACCESS:    1381724  HIT:     598683  MISS:     783041
LLC LOAD      ACCESS:     361837  HIT:     129148  MISS:     232689
LLC RFO       ACCESS:     136574  HIT:       2724  MISS:     133850
LLC PREFETCH  ACCESS:     537140  HIT:     266170  MISS:     270970
LLC WRITEBACK ACCESS:     346173  HIT:     200641  MISS:     145532

CPU 6 cumulative IPC: 0.336066 instructions: 173516515 cycles: 516316367
L1D TOTAL     ACCESS:   36339208  HIT:   27336968  MISS:    9002240
L1D LOAD      ACCESS:   27697902  HIT:   19949329  MISS:    7748573
L1D RFO       ACCESS:    8641306  HIT:    7387639  MISS:    1253667
L1D PREFETCH  ACCESS:          0  HIT:          0  MISS:          0
L1D WRITEBACK ACCESS:          0  HIT:          0  MISS:          0
L1I TOTAL     ACCESS:   40215222  HIT:   40214394  MISS:        828
L1I LOAD      ACCESS:   40215222  HIT:   40214394  MISS:        828
L1I RFO       ACCESS:          0  HIT:          0  MISS:          0
L1I PREFETCH  ACCESS:          0  HIT:          0  MISS:          0
L1I WRITEBACK ACCESS:          0  HIT:          0  MISS:          0
L2C TOTAL     ACCESS:   14705257  HIT:    7262605  MISS:    7442652
L2C LOAD      ACCESS:    7748807  HIT:    2273204  MISS:    5475603
L2C RFO       ACCESS:    1253607  HIT:     131637  MISS:    1121970
L2C PREFETCH  ACCESS:    1754608  HIT:     909799  MISS:     844809
L2C WRITEBACK ACCESS:    3948235  HIT:    3947965  MISS:        270
LLC TOTAL     ACCESS:   18794791  HIT:   13625945  MISS:    5168846
LLC LOAD      ACCESS:    5320375  HIT:    3356800  MISS:    1963575
LLC RFO       ACCESS:    1121958  HIT:     482386  MISS:     639572
LLC PREFETCH  ACCESS:    9382762  HIT:    6817191  MISS:    2565571
LLC WRITEBACK ACCESS:    2969696  HIT:    2969568  MISS:        128

CPU 7 cumulative IPC: 0.674836 instructions: 348429027 cycles: 516316367
L1D TOTAL     ACCESS:  128405066  HIT:  125344156  MISS:    3060910
L1D LOAD      ACCESS:   65105761  HIT:   62059425  MISS:    3046336
L1D RFO       ACCESS:   63299305  HIT:   63284731  MISS:      14574
L1D PREFETCH  ACCESS:          0  HIT:          0  MISS:          0
L1D WRITEBACK ACCESS:          0  HIT:          0  MISS:          0
L1I TOTAL     ACCESS:  130650133  HIT:  130650131  MISS:          2
L1I LOAD      ACCESS:  130650133  HIT:  130650131  MISS:          2
L1I RFO       ACCESS:          0  HIT:          0  MISS:          0
L1I PREFETCH  ACCESS:          0  HIT:          0  MISS:          0
L1I WRITEBACK ACCESS:          0  HIT:          0  MISS:          0
L2C TOTAL     ACCESS:    4603054  HIT:    4515678  MISS:      87376
L2C LOAD      ACCESS:    3046335  HIT:    2972360  MISS:      73975
L2C RFO       ACCESS:      14574  HIT:       3640  MISS:      10934
L2C PREFETCH  ACCESS:    1451084  HIT:    1448630  MISS:       2454
L2C WRITEBACK ACCESS:      91061  HIT:      91048  MISS:         13
LLC TOTAL     ACCESS:     595226  HIT:     437156  MISS:     158070
LLC LOAD      ACCESS:      73968  HIT:       6735  MISS:      67233
LLC RFO       ACCESS:      10934  HIT:         94  MISS:      10840
LLC PREFETCH  ACCESS:     483682  HIT:     430061  MISS:      53621
LLC WRITEBACK ACCESS:      26642  HIT:        266  MISS:      26376

Region of Interest Statistics

CPU 0 cumulative IPC: 0.219873 instructions: 100000000 cycles: 454807182
L1D TOTAL     ACCESS:   34826989  HIT:   32358965  MISS:    2468024
L1D LOAD      ACCESS:   19189200  HIT:   17058026  MISS:    2131174
L1D RFO       ACCESS:   15637789  HIT:   15300939  MISS:     336850
L1D PREFETCH  ACCESS:          0  HIT:          0  MISS:          0
L1D WRITEBACK ACCESS:          0  HIT:          0  MISS:          0
L1D PREFETCH  REQUESTED:          0  ISSUED:          0  USEFUL:          0  USELESS:          0
L1I TOTAL     ACCESS:   29973519  HIT:   29970566  MISS:       2953
L1I LOAD      ACCESS:   29973519  HIT:   29970566  MISS:       2953
L1I RFO       ACCESS:          0  HIT:          0  MISS:          0
L1I PREFETCH  ACCESS:          0  HIT:          0  MISS:          0
L1I WRITEBACK ACCESS:          0  HIT:          0  MISS:          0
L1I PREFETCH  REQUESTED:          0  ISSUED:          0  USEFUL:          0  USELESS:          0
L2C TOTAL     ACCESS:    3721589  HIT:    1506079  MISS:    2215510
L2C LOAD      ACCESS:    2133992  HIT:     293481  MISS:    1840511
L2C RFO       ACCESS:     336845  HIT:      15735  MISS:     321110
L2C PREFETCH  ACCESS:     201457  HIT:     151407  MISS:      50050
L2C WRITEBACK ACCESS:    1049295  HIT:    1045456  MISS:       3839
L2C PREFETCH  REQUESTED:    2375442  ISSUED:    2375442  USEFUL:      21760  USELESS:      44075
LLC TOTAL     ACCESS:    4288666  HIT:    1853881  MISS:    2434785
LLC LOAD      ACCESS:    1836505  HIT:     544801  MISS:    1291704
LLC RFO       ACCESS:     321019  HIT:      61804  MISS:     259215
LLC PREFETCH  ACCESS:    1197513  HIT:     318993  MISS:     878520
LLC WRITEBACK ACCESS:     933629  HIT:     928283  MISS:       5346
LLC PREFETCH  REQUESTED:          0  ISSUED:          0  USEFUL:    7681696  USELESS:    8849459
Major fault: 0 Minor fault: 33814

CPU 1 cumulative IPC: 0.828369 instructions: 100000002 cycles: 120719083
L1D TOTAL     ACCESS:   16753771  HIT:   15275817  MISS:    1477954
L1D LOAD      ACCESS:   15192991  HIT:   13783913  MISS:    1409078
L1D RFO       ACCESS:    1560780  HIT:    1491904  MISS:      68876
L1D PREFETCH  ACCESS:          0  HIT:          0  MISS:          0
L1D WRITEBACK ACCESS:          0  HIT:          0  MISS:          0
L1D PREFETCH  REQUESTED:          0  ISSUED:          0  USEFUL:          0  USELESS:          0
L1I TOTAL     ACCESS:   26340785  HIT:   26340692  MISS:         93
L1I LOAD      ACCESS:   26340785  HIT:   26340692  MISS:         93
L1I RFO       ACCESS:          0  HIT:          0  MISS:          0
L1I PREFETCH  ACCESS:          0  HIT:          0  MISS:          0
L1I WRITEBACK ACCESS:          0  HIT:          0  MISS:          0
L1I PREFETCH  REQUESTED:          0  ISSUED:          0  USEFUL:          0  USELESS:          0
L2C TOTAL     ACCESS:    2245452  HIT:     980728  MISS:    1264724
L2C LOAD      ACCESS:    1409171  HIT:     642773  MISS:     766398
L2C RFO       ACCESS:      68873  HIT:       8667  MISS:      60206
L2C PREFETCH  ACCESS:     676102  HIT:     238242  MISS:     437860
L2C WRITEBACK ACCESS:      91306  HIT:      91046  MISS:        260
L2C PREFETCH  REQUESTED:   20645093  ISSUED:   20645090  USEFUL:    1970566  USELESS:      79159
LLC TOTAL     ACCESS:    4308488  HIT:    3067102  MISS:    1241386
LLC LOAD      ACCESS:     719258  HIT:     532138  MISS:     187120
LLC RFO       ACCESS:      60204  HIT:      17912  MISS:      42292
LLC PREFETCH  ACCESS:    3450305  HIT:    2438503  MISS:    1011802
LLC WRITEBACK ACCESS:      78721  HIT:      78549  MISS:        172
LLC PREFETCH  REQUESTED:          0  ISSUED:          0  USEFUL:    7681696  USELESS:    8849459
Major fault: 0 Minor fault: 4378

CPU 2 cumulative IPC: 0.19368 instructions: 100000000 cycles: 516316367
L1D TOTAL     ACCESS:   20425441  HIT:   17624026  MISS:    2801415
L1D LOAD      ACCESS:   17075866  HIT:   14293028  MISS:    2782838
L1D RFO       ACCESS:    3349575  HIT:    3330998  MISS:      18577
L1D PREFETCH  ACCESS:          0  HIT:          0  MISS:          0
L1D WRITEBACK ACCESS:          0  HIT:          0  MISS:          0
L1D PREFETCH  REQUESTED:          0  ISSUED:          0  USEFUL:          0  USELESS:          0
L1I TOTAL     ACCESS:   32761925  HIT:   32636885  MISS:     125040
L1I LOAD      ACCESS:   32761925  HIT:   32636885  MISS:     125040
L1I RFO       ACCESS:          0  HIT:          0  MISS:          0
L1I PREFETCH  ACCESS:          0  HIT:          0  MISS:          0
L1I WRITEBACK ACCESS:          0  HIT:          0  MISS:          0
L1I PREFETCH  REQUESTED:          0  ISSUED:          0  USEFUL:          0  USELESS:          0
L2C TOTAL     ACCESS:    3277495  HIT:     455094  MISS:    2822401
L2C LOAD      ACCESS:    2907876  HIT:     164903  MISS:    2742973
L2C RFO       ACCESS:      18576  HIT:       7793  MISS:      10783
L2C PREFETCH  ACCESS:     307270  HIT:     239308  MISS:      67962
L2C WRITEBACK ACCESS:      43773  HIT:      43090  MISS:        683
L2C PREFETCH  REQUESTED:    2515697  ISSUED:    2515554  USEFUL:      51141  USELESS:      33450
LLC TOTAL     ACCESS:    4206586  HIT:     787368  MISS:    3419218
LLC LOAD      ACCESS:    2737294  HIT:     423890  MISS:    2313404
LLC RFO       ACCESS:      10780  HIT:       1211  MISS:       9569
LLC PREFETCH  ACCESS:    1437986  HIT:     342168  MISS:    1095818
LLC WRITEBACK ACCESS:      20526  HIT:      20099  MISS:        427
LLC PREFETCH  REQUESTED:          0  ISSUED:          0  USEFUL:    7681696  USELESS:    8849459
Major fault: 0 Minor fault: 21439

CPU 3 cumulative IPC: 0.764822 instructions: 100000000 cycles: 130749421
L1D TOTAL     ACCESS:   17720538  HIT:   16009866  MISS:    1710672
L1D LOAD      ACCESS:   15616539  HIT:   14027460  MISS:    1589079
L1D RFO       ACCESS:    2103999  HIT:    1982406  MISS:     121593
L1D PREFETCH  ACCESS:          0  HIT:          0  MISS:          0
L1D WRITEBACK ACCESS:          0  HIT:          0  MISS:          0
L1D PREFETCH  REQUESTED:          0  ISSUED:          0  USEFUL:          0  USELESS:          0
L1I TOTAL     ACCESS:   26920649  HIT:   26920487  MISS:        162
L1I LOAD      ACCESS:   26920649  HIT:   26920487  MISS:        162
L1I RFO       ACCESS:          0  HIT:          0  MISS:          0
L1I PREFETCH  ACCESS:          0  HIT:          0  MISS:          0
L1I WRITEBACK ACCESS:          0  HIT:          0  MISS:          0
L1I PREFETCH  REQUESTED:          0  ISSUED:          0  USEFUL:          0  USELESS:          0
L2C TOTAL     ACCESS:    2649952  HIT:    1270530  MISS:    1379422
L2C LOAD      ACCESS:    1589239  HIT:     723592  MISS:     865647
L2C RFO       ACCESS:     121588  HIT:      18019  MISS:     103569
L2C PREFETCH  ACCESS:     759256  HIT:     349384  MISS:     409872
L2C WRITEBACK ACCESS:     179869  HIT:     179535  MISS:        334
L2C PREFETCH  REQUESTED:   22649604  ISSUED:   22649604  USEFUL:    1955582  USELESS:      40943
LLC TOTAL     ACCESS:    4703334  HIT:    3658859  MISS:    1044475
LLC LOAD      ACCESS:     812400  HIT:     578580  MISS:     233820
LLC RFO       ACCESS:     103568  HIT:      47381  MISS:      56187
LLC PREFETCH  ACCESS:    3639203  HIT:    2884877  MISS:     754326
LLC WRITEBACK ACCESS:     148163  HIT:     148021  MISS:        142
LLC PREFETCH  REQUESTED:          0  ISSUED:          0  USEFUL:    7681696  USELESS:    8849459
Major fault: 0 Minor fault: 3667

CPU 4 cumulative IPC: 0.751583 instructions: 100000001 cycles: 133052589
L1D TOTAL     ACCESS:   10189156  HIT:    8332279  MISS:    1856877
L1D LOAD      ACCESS:    9131041  HIT:    7837731  MISS:    1293310
L1D RFO       ACCESS:    1058115  HIT:     494548  MISS:     563567
L1D PREFETCH  ACCESS:          0  HIT:          0  MISS:          0
L1D WRITEBACK ACCESS:          0  HIT:          0  MISS:          0
L1D PREFETCH  REQUESTED:          0  ISSUED:          0  USEFUL:          0  USELESS:          0
L1I TOTAL     ACCESS:   22998504  HIT:   22998484  MISS:         20
L1I LOAD      ACCESS:   22998504  HIT:   22998484  MISS:         20
L1I RFO       ACCESS:          0  HIT:          0  MISS:          0
L1I PREFETCH  ACCESS:          0  HIT:          0  MISS:          0
L1I WRITEBACK ACCESS:          0  HIT:          0  MISS:          0
L1I PREFETCH  REQUESTED:          0  ISSUED:          0  USEFUL:          0  USELESS:          0
L2C TOTAL     ACCESS:    2705639  HIT:     847341  MISS:    1858298
L2C LOAD      ACCESS:    1293330  HIT:     270055  MISS:    1023275
L2C RFO       ACCESS:     563567  HIT:          0  MISS:     563567
L2C PREFETCH  ACCESS:     285174  HIT:      13720  MISS:     271454
L2C WRITEBACK ACCESS:     563568  HIT:     563566  MISS:          2
L2C PREFETCH  REQUESTED:   15091053  ISSUED:   15091053  USEFUL:    1063731  USELESS:      13200
LLC TOTAL     ACCESS:    3904754  HIT:    2024128  MISS:    1880626
LLC LOAD      ACCESS:     981864  HIT:     520652  MISS:     461212
LLC RFO       ACCESS:     563567  HIT:        880  MISS:     562687
LLC PREFETCH  ACCESS:    1795752  HIT:     939036  MISS:     856716
LLC WRITEBACK ACCESS:     563571  HIT:     563560  MISS:         11
LLC PREFETCH  REQUESTED:          0  ISSUED:          0  USEFUL:    7681696  USELESS:    8849459
Major fault: 0 Minor fault: 90362

CPU 5 cumulative IPC: 0.496072 instructions: 100000002 cycles: 201583693
L1D TOTAL     ACCESS:   34603872  HIT:   34266460  MISS:     337412
L1D LOAD      ACCESS:   21588264  HIT:   21302599  MISS:     285665
L1D RFO       ACCESS:   13015608  HIT:   12963861  MISS:      51747
L1D PREFETCH  ACCESS:          0  HIT:          0  MISS:          0
L1D WRITEBACK ACCESS:          0  HIT:          0  MISS:          0
L1D PREFETCH  REQUESTED:          0  ISSUED:          0  USEFUL:          0  USELESS:          0
L1I TOTAL     ACCESS:   28575932  HIT:   28575932  MISS:          0
L1I LOAD      ACCESS:   28575932  HIT:   28575932  MISS:          0
L1I RFO       ACCESS:          0  HIT:          0  MISS:          0
L1I PREFETCH  ACCESS:          0  HIT:          0  MISS:          0
L1I WRITEBACK ACCESS:          0  HIT:          0  MISS:          0
L1I PREFETCH  REQUESTED:          0  ISSUED:          0  USEFUL:          0  USELESS:          0
L2C TOTAL     ACCESS:     585897  HIT:     373407  MISS:     212490
L2C LOAD      ACCESS:     285624  HIT:     127397  MISS:     158227
L2C RFO       ACCESS:      51747  HIT:       3864  MISS:      47883
L2C PREFETCH  ACCESS:      74436  HIT:      68172  MISS:       6264
L2C WRITEBACK ACCESS:     174090  HIT:     173974  MISS:        116
L2C PREFETCH  REQUESTED:     807029  ISSUED:     807029  USEFUL:       5825  USELESS:      13955
LLC TOTAL     ACCESS:     529273  HIT:     211497  MISS:     317776
LLC LOAD      ACCESS:     158125  HIT:      51069  MISS:     107056
LLC RFO       ACCESS:      47883  HIT:       1804  MISS:      46079
LLC PREFETCH  ACCESS:     186832  HIT:      78183  MISS:     108649
LLC WRITEBACK ACCESS:     136433  HIT:      80441  MISS:      55992
LLC PREFETCH  REQUESTED:          0  ISSUED:          0  USEFUL:    7681696  USELESS:    8849459
Major fault: 0 Minor fault: 3887

CPU 6 cumulative IPC: 0.330045 instructions: 100000002 cycles: 302989030
L1D TOTAL     ACCESS:   22541506  HIT:   17205071  MISS:    5336435
L1D LOAD      ACCESS:   16964922  HIT:   12410574  MISS:    4554348
L1D RFO       ACCESS:    5576584  HIT:    4794497  MISS:     782087
L1D PREFETCH  ACCESS:          0  HIT:          0  MISS:          0
L1D WRITEBACK ACCESS:          0  HIT:          0  MISS:          0
L1D PREFETCH  REQUESTED:          0  ISSUED:          0  USEFUL:          0  USELESS:          0
L1I TOTAL     ACCESS:   23371264  HIT:   23370704  MISS:        560
L1I LOAD      ACCESS:   23371264  HIT:   23370704  MISS:        560
L1I RFO       ACCESS:          0  HIT:          0  MISS:          0
L1I PREFETCH  ACCESS:          0  HIT:          0  MISS:          0
L1I WRITEBACK ACCESS:          0  HIT:          0  MISS:          0
L1I PREFETCH  REQUESTED:          0  ISSUED:          0  USEFUL:          0  USELESS:          0
L2C TOTAL     ACCESS:    8734221  HIT:    4318014  MISS:    4416207
L2C LOAD      ACCESS:    4554432  HIT:    1303283  MISS:    3251149
L2C RFO       ACCESS:     782048  HIT:      89058  MISS:     692990
L2C PREFETCH  ACCESS:     996205  HIT:     524313  MISS:     471892
L2C WRITEBACK ACCESS:    2401536  HIT:    2401360  MISS:        176
L2C PREFETCH  REQUESTED:   15242952  ISSUED:   15242948  USEFUL:     887823  USELESS:      92721
LLC TOTAL     ACCESS:   11028210  HIT:    8010846  MISS:    3017364
LLC LOAD      ACCESS:    3159008  HIT:    1980344  MISS:    1178664
LLC RFO       ACCESS:     692980  HIT:     354349  MISS:     338631
LLC PREFETCH  ACCESS:    5349593  HIT:    3849602  MISS:    1499991
LLC WRITEBACK ACCESS:    1826629  HIT:    1826551  MISS:         78
LLC PREFETCH  REQUESTED:          0  ISSUED:          0  USEFUL:    7681696  USELESS:    8849459
Major fault: 0 Minor fault: 12935

CPU 7 cumulative IPC: 0.675782 instructions: 100000002 cycles: 147976693
L1D TOTAL     ACCESS:   36876156  HIT:   36003963  MISS:     872193
L1D LOAD      ACCESS:   18700878  HIT:   17832901  MISS:     867977
L1D RFO       ACCESS:   18175278  HIT:   18171062  MISS:       4216
L1D PREFETCH  ACCESS:          0  HIT:          0  MISS:          0
L1D WRITEBACK ACCESS:          0  HIT:          0  MISS:          0
L1D PREFETCH  REQUESTED:          0  ISSUED:          0  USEFUL:          0  USELESS:          0
L1I TOTAL     ACCESS:   37392894  HIT:   37392892  MISS:          2
L1I LOAD      ACCESS:   37392894  HIT:   37392892  MISS:          2
L1I RFO       ACCESS:          0  HIT:          0  MISS:          0
L1I PREFETCH  ACCESS:          0  HIT:          0  MISS:          0
L1I WRITEBACK ACCESS:          0  HIT:          0  MISS:          0
L1I PREFETCH  REQUESTED:          0  ISSUED:          0  USEFUL:          0  USELESS:          0
L2C TOTAL     ACCESS:    1290673  HIT:    1265807  MISS:      24866
L2C LOAD      ACCESS:     867980  HIT:     847012  MISS:      20968
L2C RFO       ACCESS:       4216  HIT:       1077  MISS:       3139
L2C PREFETCH  ACCESS:     394339  HIT:     393585  MISS:        754
L2C WRITEBACK ACCESS:      24138  HIT:      24133  MISS:          5
L2C PREFETCH  REQUESTED:    2054000  ISSUED:    2054000  USEFUL:        669  USELESS:       1717
LLC TOTAL     ACCESS:     183996  HIT:     138848  MISS:      45148
LLC LOAD      ACCESS:      20965  HIT:       1836  MISS:      19129
LLC RFO       ACCESS:       3139  HIT:         36  MISS:       3103
LLC PREFETCH  ACCESS:     152311  HIT:     136917  MISS:      15394
LLC WRITEBACK ACCESS:       7581  HIT:         59  MISS:       7522
LLC PREFETCH  REQUESTED:          0  ISSUED:          0  USEFUL:    7681696  USELESS:    8849459
Major fault: 0 Minor fault: 3732

DRAM Statistics
 CHANNEL 0
 RQ ROW_BUFFER_HIT:    5402067  ROW_BUFFER_MISS:    8706054
 DBUS_CONGESTED:   22075643
 WQ ROW_BUFFER_HIT:     216775  ROW_BUFFER_MISS:    2647972  FULL:          0

 CHANNEL 1
 RQ ROW_BUFFER_HIT:    5353843  ROW_BUFFER_MISS:    8785061
 DBUS_CONGESTED:   22075643
 WQ ROW_BUFFER_HIT:     263815  ROW_BUFFER_MISS:    2918296  FULL:          0

 AVG_CONGESTED_CYCLE: 13
