Initialize SIGNATURE TABLE
ST_SET: 1
ST_WAY: 256
ST_TAG_BIT: 16
ST_TAG_MASK: ffff

Initialize PATTERN TABLE
PT_SET: 512
PT_WAY: 4
SIG_DELTA_BIT: 7
C_SIG_BIT: 4
C_DELTA_BIT: 4

Initialize PREFETCH FILTER
FILTER_SET: 1024

*** ChampSim Multicore Out-of-Order Simulator ***

Warmup Instructions: 20000000
Simulation Instructions: 100000000
Number of CPUs: 8
LLC sets: 16384
LLC ways: 16
Off-chip DRAM Size: 8192 MB Channels: 2 Width: 64-bit Data Rate: 1600 MT/s

CPU 0 runs /scratch/user/djimenez/champsim-traces/speccpu2006/xz/473.astar-359B.champsimtrace.xz
CPU 1 runs /scratch/user/djimenez/champsim-traces/speccpu2006/xz/437.leslie3d-149B.champsimtrace.xz
CPU 2 runs /scratch/user/djimenez/champsim-traces/speccpu2006/xz/459.GemsFDTD-1491B.champsimtrace.xz
CPU 3 runs /scratch/user/djimenez/champsim-traces/speccpu2006/xz/481.wrf-1281B.champsimtrace.xz
CPU 4 runs /scratch/user/djimenez/champsim-traces/speccpu2006/xz/433.milc-127B.champsimtrace.xz
CPU 5 runs /scratch/user/djimenez/champsim-traces/speccpu2006/xz/482.sphinx3-234B.champsimtrace.xz
CPU 6 runs /scratch/user/djimenez/champsim-traces/speccpu2006/xz/450.soplex-92B.champsimtrace.xz
CPU 7 runs /scratch/user/djimenez/champsim-traces/speccpu2006/xz/482.sphinx3-1522B.champsimtrace.xz
Heartbeat CPU 7 instructions: 10000001 cycles: 3714279 heartbeat IPC: 2.69231 cumulative IPC: 2.69231 (Simulation time: 0 hr 3 min 15 sec) 
Heartbeat CPU 4 instructions: 10000000 cycles: 3732663 heartbeat IPC: 2.67905 cumulative IPC: 2.67905 (Simulation time: 0 hr 3 min 16 sec) 
Heartbeat CPU 5 instructions: 10000003 cycles: 3826769 heartbeat IPC: 2.61317 cumulative IPC: 2.61317 (Simulation time: 0 hr 3 min 20 sec) 
Heartbeat CPU 2 instructions: 10000003 cycles: 4433350 heartbeat IPC: 2.25563 cumulative IPC: 2.25563 (Simulation time: 0 hr 3 min 52 sec) 
Heartbeat CPU 1 instructions: 10000000 cycles: 5005782 heartbeat IPC: 1.99769 cumulative IPC: 1.99769 (Simulation time: 0 hr 4 min 22 sec) 
Heartbeat CPU 6 instructions: 10000000 cycles: 5056970 heartbeat IPC: 1.97747 cumulative IPC: 1.97747 (Simulation time: 0 hr 4 min 25 sec) 
Heartbeat CPU 3 instructions: 10000000 cycles: 5705138 heartbeat IPC: 1.75281 cumulative IPC: 1.75281 (Simulation time: 0 hr 4 min 58 sec) 
Heartbeat CPU 0 instructions: 10000000 cycles: 7499120 heartbeat IPC: 1.33349 cumulative IPC: 1.33349 (Simulation time: 0 hr 6 min 33 sec) 
Heartbeat CPU 7 instructions: 20000000 cycles: 7611799 heartbeat IPC: 2.56573 cumulative IPC: 2.6275 (Simulation time: 0 hr 6 min 39 sec) 
Heartbeat CPU 5 instructions: 20000000 cycles: 7660642 heartbeat IPC: 2.60833 cumulative IPC: 2.61075 (Simulation time: 0 hr 6 min 42 sec) 
Heartbeat CPU 4 instructions: 20000000 cycles: 7829816 heartbeat IPC: 2.44072 cumulative IPC: 2.55434 (Simulation time: 0 hr 6 min 51 sec) 
Heartbeat CPU 2 instructions: 20000000 cycles: 8867789 heartbeat IPC: 2.25508 cumulative IPC: 2.25535 (Simulation time: 0 hr 7 min 44 sec) 
Heartbeat CPU 3 instructions: 20000000 cycles: 9637496 heartbeat IPC: 2.543 cumulative IPC: 2.07523 (Simulation time: 0 hr 8 min 24 sec) 
Heartbeat CPU 1 instructions: 20000000 cycles: 9999520 heartbeat IPC: 2.00251 cumulative IPC: 2.0001 (Simulation time: 0 hr 8 min 43 sec) 
Heartbeat CPU 6 instructions: 20000000 cycles: 10313213 heartbeat IPC: 1.9025 cumulative IPC: 1.93926 (Simulation time: 0 hr 9 min 0 sec) 
Heartbeat CPU 7 instructions: 30000001 cycles: 11355335 heartbeat IPC: 2.67127 cumulative IPC: 0.880643 (Simulation time: 0 hr 9 min 56 sec) 
Heartbeat CPU 5 instructions: 30000000 cycles: 11545711 heartbeat IPC: 2.57396 cumulative IPC: 0.866122 (Simulation time: 0 hr 10 min 6 sec) 
Heartbeat CPU 2 instructions: 30000002 cycles: 13300641 heartbeat IPC: 2.25588 cumulative IPC: 0.751844 (Simulation time: 0 hr 11 min 38 sec) 
Heartbeat CPU 4 instructions: 30000003 cycles: 13362058 heartbeat IPC: 1.80759 cumulative IPC: 0.748388 (Simulation time: 0 hr 11 min 42 sec) 
Heartbeat CPU 3 instructions: 30000001 cycles: 13976972 heartbeat IPC: 2.30443 cumulative IPC: 0.715463 (Simulation time: 0 hr 12 min 15 sec) 
Heartbeat CPU 0 instructions: 20000000 cycles: 14802063 heartbeat IPC: 1.36931 cumulative IPC: 1.35116 (Simulation time: 0 hr 13 min 1 sec) 

Warmup complete CPU 0 instructions: 20000001 cycles: 14802065 (Simulation time: 0 hr 13 min 1 sec) 
Warmup complete CPU 1 instructions: 29596339 cycles: 14802064 (Simulation time: 0 hr 13 min 1 sec) 
Warmup complete CPU 2 instructions: 33388547 cycles: 14802064 (Simulation time: 0 hr 13 min 1 sec) 
Warmup complete CPU 3 instructions: 31926465 cycles: 14802064 (Simulation time: 0 hr 13 min 1 sec) 
Warmup complete CPU 4 instructions: 32957921 cycles: 14802064 (Simulation time: 0 hr 13 min 1 sec) 
Warmup complete CPU 5 instructions: 38676314 cycles: 14802064 (Simulation time: 0 hr 13 min 1 sec) 
Warmup complete CPU 6 instructions: 28797405 cycles: 14802064 (Simulation time: 0 hr 13 min 1 sec) 
Warmup complete CPU 7 instructions: 39210034 cycles: 14802064 (Simulation time: 0 hr 13 min 1 sec) 

Heartbeat CPU 1 instructions: 30000001 cycles: 15320484 heartbeat IPC: 1.87936 cumulative IPC: 0.778639 (Simulation time: 0 hr 13 min 10 sec) 
Heartbeat CPU 7 instructions: 40000000 cycles: 16458118 heartbeat IPC: 1.95971 cumulative IPC: 0.477017 (Simulation time: 0 hr 13 min 34 sec) 
Heartbeat CPU 5 instructions: 40000000 cycles: 16744509 heartbeat IPC: 1.92352 cumulative IPC: 0.681454 (Simulation time: 0 hr 13 min 40 sec) 
Heartbeat CPU 6 instructions: 30000002 cycles: 19583572 heartbeat IPC: 1.07871 cumulative IPC: 0.25151 (Simulation time: 0 hr 14 min 44 sec) 
Heartbeat CPU 2 instructions: 40000000 cycles: 22573297 heartbeat IPC: 1.07844 cumulative IPC: 0.85076 (Simulation time: 0 hr 15 min 56 sec) 
Heartbeat CPU 3 instructions: 40000000 cycles: 23284434 heartbeat IPC: 1.07441 cumulative IPC: 0.951802 (Simulation time: 0 hr 16 min 12 sec) 
Heartbeat CPU 1 instructions: 40000000 cycles: 26188927 heartbeat IPC: 0.920095 cumulative IPC: 0.913655 (Simulation time: 0 hr 17 min 17 sec) 
Heartbeat CPU 4 instructions: 40000000 cycles: 27900675 heartbeat IPC: 0.687823 cumulative IPC: 0.53762 (Simulation time: 0 hr 17 min 54 sec) 
Heartbeat CPU 7 instructions: 50000000 cycles: 31610963 heartbeat IPC: 0.659942 cumulative IPC: 0.64192 (Simulation time: 0 hr 19 min 23 sec) 
Heartbeat CPU 5 instructions: 50000001 cycles: 32238095 heartbeat IPC: 0.645428 cumulative IPC: 0.649442 (Simulation time: 0 hr 19 min 38 sec) 
Heartbeat CPU 3 instructions: 50000003 cycles: 33613080 heartbeat IPC: 0.968181 cumulative IPC: 0.960795 (Simulation time: 0 hr 20 min 10 sec) 
Heartbeat CPU 2 instructions: 50000001 cycles: 34230491 heartbeat IPC: 0.857839 cumulative IPC: 0.855008 (Simulation time: 0 hr 20 min 23 sec) 
Heartbeat CPU 1 instructions: 50000000 cycles: 36781406 heartbeat IPC: 0.944066 cumulative IPC: 0.928311 (Simulation time: 0 hr 21 min 18 sec) 
Heartbeat CPU 3 instructions: 60000000 cycles: 43619803 heartbeat IPC: 0.999328 cumulative IPC: 0.974176 (Simulation time: 0 hr 23 min 55 sec) 
Heartbeat CPU 2 instructions: 60000000 cycles: 45653638 heartbeat IPC: 0.875415 cumulative IPC: 0.862564 (Simulation time: 0 hr 24 min 41 sec) 
Heartbeat CPU 4 instructions: 50000002 cycles: 45696000 heartbeat IPC: 0.561945 cumulative IPC: 0.551632 (Simulation time: 0 hr 24 min 42 sec) 
Heartbeat CPU 7 instructions: 60000000 cycles: 46724698 heartbeat IPC: 0.66165 cumulative IPC: 0.651261 (Simulation time: 0 hr 25 min 4 sec) 
Heartbeat CPU 5 instructions: 60000000 cycles: 48185297 heartbeat IPC: 0.627069 cumulative IPC: 0.638754 (Simulation time: 0 hr 25 min 35 sec) 
Heartbeat CPU 1 instructions: 60000000 cycles: 49915568 heartbeat IPC: 0.761373 cumulative IPC: 0.865868 (Simulation time: 0 hr 26 min 13 sec) 
Heartbeat CPU 3 instructions: 70000001 cycles: 52738705 heartbeat IPC: 1.09662 cumulative IPC: 1.00361 (Simulation time: 0 hr 27 min 14 sec) 
Heartbeat CPU 6 instructions: 40000000 cycles: 55050624 heartbeat IPC: 0.281952 cumulative IPC: 0.278335 (Simulation time: 0 hr 28 min 5 sec) 
Heartbeat CPU 2 instructions: 70000003 cycles: 57567266 heartbeat IPC: 0.839375 cumulative IPC: 0.856104 (Simulation time: 0 hr 28 min 57 sec) 
Heartbeat CPU 7 instructions: 70000003 cycles: 62616438 heartbeat IPC: 0.629258 cumulative IPC: 0.643948 (Simulation time: 0 hr 30 min 45 sec) 
Heartbeat CPU 3 instructions: 80000000 cycles: 62869926 heartbeat IPC: 0.987048 cumulative IPC: 1.00012 (Simulation time: 0 hr 30 min 50 sec) 
Heartbeat CPU 5 instructions: 70000000 cycles: 63701413 heartbeat IPC: 0.644491 cumulative IPC: 0.640575 (Simulation time: 0 hr 31 min 8 sec) 
Heartbeat CPU 4 instructions: 60000000 cycles: 64424650 heartbeat IPC: 0.533941 cumulative IPC: 0.544955 (Simulation time: 0 hr 31 min 23 sec) 
Heartbeat CPU 1 instructions: 70000003 cycles: 64929551 heartbeat IPC: 0.666046 cumulative IPC: 0.806018 (Simulation time: 0 hr 31 min 34 sec) 
Heartbeat CPU 2 instructions: 80000000 cycles: 69964563 heartbeat IPC: 0.806627 cumulative IPC: 0.844984 (Simulation time: 0 hr 33 min 23 sec) 
Heartbeat CPU 3 instructions: 90000001 cycles: 70779024 heartbeat IPC: 1.26437 cumulative IPC: 1.03745 (Simulation time: 0 hr 33 min 41 sec) 
Heartbeat CPU 7 instructions: 80000000 cycles: 78345308 heartbeat IPC: 0.635773 cumulative IPC: 0.641925 (Simulation time: 0 hr 36 min 16 sec) 
Heartbeat CPU 5 instructions: 80000000 cycles: 78707922 heartbeat IPC: 0.666377 cumulative IPC: 0.646634 (Simulation time: 0 hr 36 min 25 sec) 
Heartbeat CPU 1 instructions: 80000000 cycles: 79408213 heartbeat IPC: 0.690671 cumulative IPC: 0.780168 (Simulation time: 0 hr 36 min 39 sec) 
Heartbeat CPU 2 instructions: 90000002 cycles: 81474476 heartbeat IPC: 0.868816 cumulative IPC: 0.849099 (Simulation time: 0 hr 37 min 22 sec) 
Heartbeat CPU 3 instructions: 100000000 cycles: 81498937 heartbeat IPC: 0.932843 cumulative IPC: 1.02064 (Simulation time: 0 hr 37 min 22 sec) 
Heartbeat CPU 4 instructions: 70000001 cycles: 82340125 heartbeat IPC: 0.558177 cumulative IPC: 0.548462 (Simulation time: 0 hr 37 min 41 sec) 
Heartbeat CPU 3 instructions: 110000002 cycles: 91250529 heartbeat IPC: 1.02547 cumulative IPC: 1.02126 (Simulation time: 0 hr 41 min 6 sec) 
Heartbeat CPU 2 instructions: 100000000 cycles: 92343306 heartbeat IPC: 0.920062 cumulative IPC: 0.859045 (Simulation time: 0 hr 41 min 30 sec) 
Heartbeat CPU 7 instructions: 90000000 cycles: 92795112 heartbeat IPC: 0.692051 cumulative IPC: 0.651211 (Simulation time: 0 hr 41 min 39 sec) 
Heartbeat CPU 5 instructions: 90000000 cycles: 92796946 heartbeat IPC: 0.709772 cumulative IPC: 0.658039 (Simulation time: 0 hr 41 min 39 sec) 
Heartbeat CPU 1 instructions: 90000003 cycles: 93252392 heartbeat IPC: 0.722325 cumulative IPC: 0.769961 (Simulation time: 0 hr 41 min 49 sec) 
Heartbeat CPU 6 instructions: 50000000 cycles: 93654119 heartbeat IPC: 0.259044 cumulative IPC: 0.268891 (Simulation time: 0 hr 41 min 58 sec) 
Heartbeat CPU 4 instructions: 80000000 cycles: 99132915 heartbeat IPC: 0.595494 cumulative IPC: 0.557828 (Simulation time: 0 hr 44 min 2 sec) 
Heartbeat CPU 3 instructions: 120000000 cycles: 100949520 heartbeat IPC: 1.03103 cumulative IPC: 1.02236 (Simulation time: 0 hr 44 min 42 sec) 
Heartbeat CPU 2 instructions: 110000001 cycles: 102880416 heartbeat IPC: 0.949027 cumulative IPC: 0.86981 (Simulation time: 0 hr 45 min 27 sec) 
Heartbeat CPU 7 instructions: 100000000 cycles: 106431845 heartbeat IPC: 0.733313 cumulative IPC: 0.66343 (Simulation time: 0 hr 46 min 44 sec) 
Heartbeat CPU 1 instructions: 100000000 cycles: 106780153 heartbeat IPC: 0.73922 cumulative IPC: 0.76544 (Simulation time: 0 hr 46 min 52 sec) 
Heartbeat CPU 5 instructions: 100000000 cycles: 107291819 heartbeat IPC: 0.689899 cumulative IPC: 0.663032 (Simulation time: 0 hr 47 min 3 sec) 
Heartbeat CPU 3 instructions: 130000001 cycles: 110818562 heartbeat IPC: 1.01327 cumulative IPC: 1.02142 (Simulation time: 0 hr 48 min 14 sec) 
Finished CPU 3 instructions: 100000002 cycles: 98025706 cumulative IPC: 1.02014 (Simulation time: 0 hr 48 min 54 sec) 
Heartbeat CPU 2 instructions: 120000000 cycles: 114647750 heartbeat IPC: 0.84981 cumulative IPC: 0.867453 (Simulation time: 0 hr 49 min 32 sec) 
Heartbeat CPU 4 instructions: 90000002 cycles: 116804275 heartbeat IPC: 0.565888 cumulative IPC: 0.559224 (Simulation time: 0 hr 50 min 16 sec) 
Heartbeat CPU 0 instructions: 30000003 cycles: 117941703 heartbeat IPC: 0.096956 cumulative IPC: 0.096956 (Simulation time: 0 hr 50 min 45 sec) 
Heartbeat CPU 3 instructions: 140000000 cycles: 121251302 heartbeat IPC: 0.958521 cumulative IPC: 1.01526 (Simulation time: 0 hr 52 min 8 sec) 
Heartbeat CPU 1 instructions: 110000000 cycles: 121749011 heartbeat IPC: 0.668054 cumulative IPC: 0.751809 (Simulation time: 0 hr 52 min 20 sec) 
Heartbeat CPU 7 instructions: 110000003 cycles: 122305214 heartbeat IPC: 0.629986 cumulative IPC: 0.658492 (Simulation time: 0 hr 52 min 32 sec) 
Heartbeat CPU 5 instructions: 110000003 cycles: 124382368 heartbeat IPC: 0.585119 cumulative IPC: 0.650881 (Simulation time: 0 hr 53 min 17 sec) 
Heartbeat CPU 2 instructions: 130000001 cycles: 126849456 heartbeat IPC: 0.819558 cumulative IPC: 0.862237 (Simulation time: 0 hr 54 min 9 sec) 
Heartbeat CPU 6 instructions: 60000000 cycles: 130375476 heartbeat IPC: 0.272321 cumulative IPC: 0.269981 (Simulation time: 0 hr 55 min 29 sec) 
Finished CPU 2 instructions: 100000001 cycles: 115604170 cumulative IPC: 0.865021 (Simulation time: 0 hr 55 min 29 sec) 
Heartbeat CPU 3 instructions: 150000001 cycles: 131163502 heartbeat IPC: 1.00886 cumulative IPC: 1.01471 (Simulation time: 0 hr 55 min 46 sec) 
Heartbeat CPU 1 instructions: 120000000 cycles: 131363114 heartbeat IPC: 1.04014 cumulative IPC: 0.775591 (Simulation time: 0 hr 55 min 50 sec) 
Heartbeat CPU 7 instructions: 120000000 cycles: 136488992 heartbeat IPC: 0.705031 cumulative IPC: 0.663917 (Simulation time: 0 hr 57 min 58 sec) 
Heartbeat CPU 2 instructions: 140000000 cycles: 137059969 heartbeat IPC: 0.979383 cumulative IPC: 0.872021 (Simulation time: 0 hr 58 min 10 sec) 
Heartbeat CPU 5 instructions: 120000000 cycles: 139563502 heartbeat IPC: 0.658712 cumulative IPC: 0.651834 (Simulation time: 0 hr 59 min 7 sec) 
Heartbeat CPU 4 instructions: 100000000 cycles: 140234078 heartbeat IPC: 0.426807 cumulative IPC: 0.534489 (Simulation time: 0 hr 59 min 22 sec) 
Heartbeat CPU 3 instructions: 160000000 cycles: 140600458 heartbeat IPC: 1.05966 cumulative IPC: 1.01809 (Simulation time: 0 hr 59 min 31 sec) 
Finished CPU 1 instructions: 100000002 cycles: 125895300 cumulative IPC: 0.794311 (Simulation time: 0 hr 59 min 33 sec) 
Heartbeat CPU 1 instructions: 130000003 cycles: 141087053 heartbeat IPC: 1.02839 cumulative IPC: 0.795056 (Simulation time: 0 hr 59 min 42 sec) 
Heartbeat CPU 2 instructions: 150000000 cycles: 147477048 heartbeat IPC: 0.959962 cumulative IPC: 0.878926 (Simulation time: 1 hr 2 min 19 sec) 
Heartbeat CPU 3 instructions: 170000000 cycles: 149861649 heartbeat IPC: 1.07977 cumulative IPC: 1.02232 (Simulation time: 1 hr 3 min 9 sec) 
Heartbeat CPU 1 instructions: 140000000 cycles: 150871318 heartbeat IPC: 1.02205 cumulative IPC: 0.811378 (Simulation time: 1 hr 3 min 32 sec) 
Heartbeat CPU 7 instructions: 130000003 cycles: 151117695 heartbeat IPC: 0.683588 cumulative IPC: 0.666028 (Simulation time: 1 hr 3 min 37 sec) 
Heartbeat CPU 5 instructions: 130000003 cycles: 155964942 heartbeat IPC: 0.609703 cumulative IPC: 0.646938 (Simulation time: 1 hr 5 min 22 sec) 
Heartbeat CPU 2 instructions: 160000000 cycles: 158243841 heartbeat IPC: 0.928782 cumulative IPC: 0.882668 (Simulation time: 1 hr 6 min 14 sec) 
Heartbeat CPU 3 instructions: 180000000 cycles: 159294973 heartbeat IPC: 1.06007 cumulative IPC: 1.02478 (Simulation time: 1 hr 6 min 38 sec) 
Heartbeat CPU 1 instructions: 150000003 cycles: 160683887 heartbeat IPC: 1.0191 cumulative IPC: 0.825351 (Simulation time: 1 hr 7 min 9 sec) 
Finished CPU 7 instructions: 100000001 cycles: 149194897 cumulative IPC: 0.670264 (Simulation time: 1 hr 8 min 23 sec) 
Heartbeat CPU 7 instructions: 140000000 cycles: 165355250 heartbeat IPC: 0.702368 cumulative IPC: 0.669464 (Simulation time: 1 hr 8 min 53 sec) 
Heartbeat CPU 4 instructions: 110000001 cycles: 167915319 heartbeat IPC: 0.361256 cumulative IPC: 0.503171 (Simulation time: 1 hr 9 min 54 sec) 
Finished CPU 5 instructions: 100000003 cycles: 153428405 cumulative IPC: 0.65177 (Simulation time: 1 hr 10 min 2 sec) 
Heartbeat CPU 3 instructions: 190000001 cycles: 168349959 heartbeat IPC: 1.10436 cumulative IPC: 1.02947 (Simulation time: 1 hr 10 min 4 sec) 
Heartbeat CPU 2 instructions: 170000003 cycles: 168472188 heartbeat IPC: 0.977675 cumulative IPC: 0.888992 (Simulation time: 1 hr 10 min 7 sec) 
Heartbeat CPU 1 instructions: 160000000 cycles: 170417217 heartbeat IPC: 1.0274 cumulative IPC: 0.837988 (Simulation time: 1 hr 10 min 48 sec) 
Heartbeat CPU 5 instructions: 140000000 cycles: 170427615 heartbeat IPC: 0.691435 cumulative IPC: 0.651074 (Simulation time: 1 hr 10 min 48 sec) 
Heartbeat CPU 6 instructions: 70000000 cycles: 175717112 heartbeat IPC: 0.220548 cumulative IPC: 0.256052 (Simulation time: 1 hr 12 min 39 sec) 
Heartbeat CPU 2 instructions: 180000000 cycles: 179285970 heartbeat IPC: 0.924746 cumulative IPC: 0.891342 (Simulation time: 1 hr 13 min 49 sec) 
Heartbeat CPU 3 instructions: 200000000 cycles: 179393989 heartbeat IPC: 0.905466 cumulative IPC: 1.02115 (Simulation time: 1 hr 13 min 51 sec) 
Heartbeat CPU 7 instructions: 150000000 cycles: 179593741 heartbeat IPC: 0.702322 cumulative IPC: 0.672303 (Simulation time: 1 hr 13 min 56 sec) 
Heartbeat CPU 1 instructions: 170000001 cycles: 180233729 heartbeat IPC: 1.01869 cumulative IPC: 0.848711 (Simulation time: 1 hr 14 min 11 sec) 
Heartbeat CPU 5 instructions: 150000001 cycles: 186614048 heartbeat IPC: 0.617801 cumulative IPC: 0.647939 (Simulation time: 1 hr 17 min 42 sec) 
Heartbeat CPU 2 instructions: 190000000 cycles: 189325160 heartbeat IPC: 0.996096 cumulative IPC: 0.897368 (Simulation time: 1 hr 19 min 49 sec) 
Heartbeat CPU 1 instructions: 180000000 cycles: 189827986 heartbeat IPC: 1.04229 cumulative IPC: 0.859322 (Simulation time: 1 hr 20 min 10 sec) 
Heartbeat CPU 3 instructions: 210000000 cycles: 191415184 heartbeat IPC: 0.831864 cumulative IPC: 1.00827 (Simulation time: 1 hr 21 min 24 sec) 
Heartbeat CPU 7 instructions: 160000000 cycles: 193341560 heartbeat IPC: 0.727388 cumulative IPC: 0.676545 (Simulation time: 1 hr 22 min 48 sec) 
Heartbeat CPU 4 instructions: 120000000 cycles: 198235863 heartbeat IPC: 0.329809 cumulative IPC: 0.474515 (Simulation time: 1 hr 26 min 15 sec) 
Heartbeat CPU 1 instructions: 190000000 cycles: 200321674 heartbeat IPC: 0.952954 cumulative IPC: 0.864618 (Simulation time: 1 hr 27 min 25 sec) 
Heartbeat CPU 2 instructions: 200000000 cycles: 200588301 heartbeat IPC: 0.887852 cumulative IPC: 0.896791 (Simulation time: 1 hr 27 min 30 sec) 
Heartbeat CPU 5 instructions: 160000000 cycles: 203628558 heartbeat IPC: 0.587734 cumulative IPC: 0.642514 (Simulation time: 1 hr 28 min 34 sec) 
Heartbeat CPU 3 instructions: 220000000 cycles: 203853906 heartbeat IPC: 0.803941 cumulative IPC: 0.994825 (Simulation time: 1 hr 28 min 39 sec) 
Heartbeat CPU 6 instructions: 80000000 cycles: 206543164 heartbeat IPC: 0.324401 cumulative IPC: 0.26704 (Simulation time: 1 hr 29 min 32 sec) 
Heartbeat CPU 7 instructions: 170000003 cycles: 207813437 heartbeat IPC: 0.690996 cumulative IPC: 0.677628 (Simulation time: 1 hr 30 min 0 sec) 
Heartbeat CPU 1 instructions: 200000000 cycles: 211381459 heartbeat IPC: 0.904177 cumulative IPC: 0.866844 (Simulation time: 1 hr 31 min 12 sec) 
Heartbeat CPU 2 instructions: 210000001 cycles: 211393776 heartbeat IPC: 0.925457 cumulative IPC: 0.898367 (Simulation time: 1 hr 31 min 12 sec) 
Heartbeat CPU 3 instructions: 230000003 cycles: 216100331 heartbeat IPC: 0.816565 cumulative IPC: 0.98398 (Simulation time: 1 hr 32 min 48 sec) 
Heartbeat CPU 0 instructions: 40000000 cycles: 219402042 heartbeat IPC: 0.0985607 cumulative IPC: 0.0977517 (Simulation time: 1 hr 33 min 58 sec) 
Heartbeat CPU 5 instructions: 170000001 cycles: 220060096 heartbeat IPC: 0.608586 cumulative IPC: 0.639798 (Simulation time: 1 hr 34 min 12 sec) 
Heartbeat CPU 7 instructions: 180000000 cycles: 222190096 heartbeat IPC: 0.695572 cumulative IPC: 0.678872 (Simulation time: 1 hr 34 min 53 sec) 
Heartbeat CPU 2 instructions: 220000000 cycles: 222262812 heartbeat IPC: 0.920045 cumulative IPC: 0.899502 (Simulation time: 1 hr 34 min 55 sec) 
Heartbeat CPU 1 instructions: 210000003 cycles: 222564877 heartbeat IPC: 0.894181 cumulative IPC: 0.868315 (Simulation time: 1 hr 34 min 59 sec) 
Heartbeat CPU 4 instructions: 130000002 cycles: 228737376 heartbeat IPC: 0.327853 cumulative IPC: 0.453605 (Simulation time: 1 hr 36 min 45 sec) 
Heartbeat CPU 3 instructions: 240000000 cycles: 228995937 heartbeat IPC: 0.775458 cumulative IPC: 0.971426 (Simulation time: 1 hr 36 min 49 sec) 
Heartbeat CPU 2 instructions: 230000000 cycles: 234340866 heartbeat IPC: 0.827948 cumulative IPC: 0.895566 (Simulation time: 1 hr 38 min 38 sec) 
Heartbeat CPU 1 instructions: 220000000 cycles: 236092477 heartbeat IPC: 0.739229 cumulative IPC: 0.860424 (Simulation time: 1 hr 39 min 13 sec) 
Heartbeat CPU 3 instructions: 250000001 cycles: 237332649 heartbeat IPC: 1.19951 cumulative IPC: 0.979971 (Simulation time: 1 hr 39 min 39 sec) 
Heartbeat CPU 7 instructions: 190000002 cycles: 237774254 heartbeat IPC: 0.641677 cumulative IPC: 0.676273 (Simulation time: 1 hr 39 min 49 sec) 
Heartbeat CPU 5 instructions: 180000000 cycles: 237982503 heartbeat IPC: 0.557961 cumulative IPC: 0.633226 (Simulation time: 1 hr 39 min 53 sec) 
Finished CPU 4 instructions: 100000001 cycles: 223534160 cumulative IPC: 0.447359 (Simulation time: 1 hr 40 min 1 sec) 
Heartbeat CPU 6 instructions: 90000000 cycles: 242294930 heartbeat IPC: 0.279706 cumulative IPC: 0.269031 (Simulation time: 1 hr 41 min 24 sec) 
Heartbeat CPU 2 instructions: 240000000 cycles: 245065623 heartbeat IPC: 0.932422 cumulative IPC: 0.897282 (Simulation time: 1 hr 42 min 24 sec) 
Heartbeat CPU 3 instructions: 260000000 cycles: 245493509 heartbeat IPC: 1.22536 cumulative IPC: 0.988652 (Simulation time: 1 hr 42 min 32 sec) 
Heartbeat CPU 1 instructions: 230000000 cycles: 248891254 heartbeat IPC: 0.781325 cumulative IPC: 0.8561 (Simulation time: 1 hr 43 min 44 sec) 
Heartbeat CPU 7 instructions: 200000000 cycles: 251558659 heartbeat IPC: 0.725457 cumulative IPC: 0.679136 (Simulation time: 1 hr 44 min 39 sec) 
Heartbeat CPU 5 instructions: 190000003 cycles: 253517136 heartbeat IPC: 0.643723 cumulative IPC: 0.633909 (Simulation time: 1 hr 45 min 16 sec) 
Heartbeat CPU 3 instructions: 270000002 cycles: 254957055 heartbeat IPC: 1.05669 cumulative IPC: 0.991333 (Simulation time: 1 hr 45 min 40 sec) 
Heartbeat CPU 2 instructions: 250000002 cycles: 257416580 heartbeat IPC: 0.809654 cumulative IPC: 0.892821 (Simulation time: 1 hr 46 min 18 sec) 
Heartbeat CPU 4 instructions: 140000000 cycles: 262331961 heartbeat IPC: 0.297667 cumulative IPC: 0.432441 (Simulation time: 1 hr 47 min 43 sec) 
Heartbeat CPU 1 instructions: 240000000 cycles: 262364980 heartbeat IPC: 0.742185 cumulative IPC: 0.8499 (Simulation time: 1 hr 47 min 43 sec) 
Heartbeat CPU 7 instructions: 210000000 cycles: 267591346 heartbeat IPC: 0.623726 cumulative IPC: 0.675622 (Simulation time: 1 hr 49 min 20 sec) 
Heartbeat CPU 2 instructions: 260000000 cycles: 268905735 heartbeat IPC: 0.870386 cumulative IPC: 0.891807 (Simulation time: 1 hr 49 min 45 sec) 
Heartbeat CPU 5 instructions: 200000000 cycles: 271149505 heartbeat IPC: 0.567139 cumulative IPC: 0.629317 (Simulation time: 1 hr 50 min 27 sec) 
Heartbeat CPU 3 instructions: 280000000 cycles: 271674151 heartbeat IPC: 0.59819 cumulative IPC: 0.965747 (Simulation time: 1 hr 50 min 36 sec) 
Heartbeat CPU 1 instructions: 250000000 cycles: 275262954 heartbeat IPC: 0.775316 cumulative IPC: 0.846206 (Simulation time: 1 hr 51 min 46 sec) 
Heartbeat CPU 2 instructions: 270000001 cycles: 280089728 heartbeat IPC: 0.894135 cumulative IPC: 0.891905 (Simulation time: 1 hr 53 min 30 sec) 
Heartbeat CPU 6 instructions: 100000000 cycles: 281631266 heartbeat IPC: 0.254218 cumulative IPC: 0.266847 (Simulation time: 1 hr 54 min 5 sec) 
Heartbeat CPU 7 instructions: 220000000 cycles: 281895455 heartbeat IPC: 0.6991 cumulative IPC: 0.676879 (Simulation time: 1 hr 54 min 11 sec) 
Heartbeat CPU 3 instructions: 290000003 cycles: 283065398 heartbeat IPC: 0.877867 cumulative IPC: 0.962016 (Simulation time: 1 hr 54 min 40 sec) 
Heartbeat CPU 1 instructions: 260000000 cycles: 285226121 heartbeat IPC: 1.0037 cumulative IPC: 0.852009 (Simulation time: 1 hr 55 min 31 sec) 
Heartbeat CPU 5 instructions: 210000003 cycles: 286482365 heartbeat IPC: 0.652194 cumulative IPC: 0.630608 (Simulation time: 1 hr 56 min 0 sec) 
Heartbeat CPU 2 instructions: 280000000 cycles: 290560812 heartbeat IPC: 0.955011 cumulative IPC: 0.894301 (Simulation time: 1 hr 57 min 25 sec) 
Heartbeat CPU 4 instructions: 150000001 cycles: 291331132 heartbeat IPC: 0.344837 cumulative IPC: 0.423254 (Simulation time: 1 hr 57 min 43 sec) 
Heartbeat CPU 3 instructions: 300000000 cycles: 293251946 heartbeat IPC: 0.981687 cumulative IPC: 0.962735 (Simulation time: 1 hr 58 min 29 sec) 
Heartbeat CPU 1 instructions: 270000002 cycles: 294922816 heartbeat IPC: 1.03128 cumulative IPC: 0.858214 (Simulation time: 1 hr 59 min 5 sec) 
Heartbeat CPU 7 instructions: 230000001 cycles: 295079664 heartbeat IPC: 0.758483 cumulative IPC: 0.680718 (Simulation time: 1 hr 59 min 8 sec) 
Heartbeat CPU 5 instructions: 220000000 cycles: 300335219 heartbeat IPC: 0.721873 cumulative IPC: 0.635036 (Simulation time: 2 hr 1 min 6 sec) 
Heartbeat CPU 2 instructions: 290000002 cycles: 300661228 heartbeat IPC: 0.990058 cumulative IPC: 0.897685 (Simulation time: 2 hr 1 min 13 sec) 
Heartbeat CPU 3 instructions: 310000002 cycles: 303476071 heartbeat IPC: 0.978079 cumulative IPC: 0.963279 (Simulation time: 2 hr 2 min 18 sec) 
Heartbeat CPU 1 instructions: 280000000 cycles: 304637292 heartbeat IPC: 1.02939 cumulative IPC: 0.863952 (Simulation time: 2 hr 2 min 46 sec) 
Heartbeat CPU 7 instructions: 240000000 cycles: 308588331 heartbeat IPC: 0.740265 cumulative IPC: 0.683456 (Simulation time: 2 hr 4 min 12 sec) 
Heartbeat CPU 4 instructions: 160000000 cycles: 309491132 heartbeat IPC: 0.550661 cumulative IPC: 0.431105 (Simulation time: 2 hr 4 min 33 sec) 
Heartbeat CPU 2 instructions: 300000000 cycles: 312780089 heartbeat IPC: 0.82516 cumulative IPC: 0.894735 (Simulation time: 2 hr 5 min 48 sec) 
Heartbeat CPU 6 instructions: 110000001 cycles: 312788924 heartbeat IPC: 0.320948 cumulative IPC: 0.272504 (Simulation time: 2 hr 5 min 48 sec) 
Heartbeat CPU 5 instructions: 230000002 cycles: 313517359 heartbeat IPC: 0.758602 cumulative IPC: 0.640488 (Simulation time: 2 hr 6 min 5 sec) 
Heartbeat CPU 3 instructions: 320000000 cycles: 313620028 heartbeat IPC: 0.985808 cumulative IPC: 0.964044 (Simulation time: 2 hr 6 min 7 sec) 
Heartbeat CPU 1 instructions: 290000001 cycles: 314317358 heartbeat IPC: 1.03305 cumulative IPC: 0.869417 (Simulation time: 2 hr 6 min 22 sec) 
Heartbeat CPU 0 instructions: 50000003 cycles: 319836706 heartbeat IPC: 0.0995672 cumulative IPC: 0.0983495 (Simulation time: 2 hr 8 min 22 sec) 
Heartbeat CPU 7 instructions: 250000003 cycles: 320990951 heartbeat IPC: 0.806282 cumulative IPC: 0.688431 (Simulation time: 2 hr 8 min 49 sec) 
Heartbeat CPU 3 instructions: 330000002 cycles: 323602823 heartbeat IPC: 1.00172 cumulative IPC: 0.965262 (Simulation time: 2 hr 9 min 50 sec) 
Heartbeat CPU 1 instructions: 300000000 cycles: 323900871 heartbeat IPC: 1.04346 cumulative IPC: 0.874813 (Simulation time: 2 hr 9 min 57 sec) 
Heartbeat CPU 4 instructions: 170000001 cycles: 324845629 heartbeat IPC: 0.651275 cumulative IPC: 0.442009 (Simulation time: 2 hr 10 min 17 sec) 
Heartbeat CPU 5 instructions: 240000000 cycles: 325751250 heartbeat IPC: 0.817401 cumulative IPC: 0.647449 (Simulation time: 2 hr 10 min 38 sec) 
Heartbeat CPU 2 instructions: 310000002 cycles: 331378378 heartbeat IPC: 0.537684 cumulative IPC: 0.873759 (Simulation time: 2 hr 12 min 47 sec) 
Heartbeat CPU 7 instructions: 260000000 cycles: 332057438 heartbeat IPC: 0.903629 cumulative IPC: 0.695938 (Simulation time: 2 hr 13 min 5 sec) 
Heartbeat CPU 1 instructions: 310000002 cycles: 333404935 heartbeat IPC: 1.05218 cumulative IPC: 0.880104 (Simulation time: 2 hr 13 min 35 sec) 
Heartbeat CPU 3 instructions: 340000000 cycles: 333453818 heartbeat IPC: 1.01513 cumulative IPC: 0.966803 (Simulation time: 2 hr 13 min 36 sec) 
Heartbeat CPU 5 instructions: 250000000 cycles: 337443138 heartbeat IPC: 0.855294 cumulative IPC: 0.654981 (Simulation time: 2 hr 15 min 7 sec) 
Heartbeat CPU 4 instructions: 180000000 cycles: 339552006 heartbeat IPC: 0.679977 cumulative IPC: 0.452786 (Simulation time: 2 hr 15 min 56 sec) 
Heartbeat CPU 6 instructions: 120000000 cycles: 341271412 heartbeat IPC: 0.351093 cumulative IPC: 0.27936 (Simulation time: 2 hr 16 min 38 sec) 
Heartbeat CPU 1 instructions: 320000000 cycles: 342855499 heartbeat IPC: 1.05814 cumulative IPC: 0.885233 (Simulation time: 2 hr 17 min 14 sec) 
Heartbeat CPU 7 instructions: 270000001 cycles: 342948259 heartbeat IPC: 0.918204 cumulative IPC: 0.703314 (Simulation time: 2 hr 17 min 16 sec) 
Heartbeat CPU 3 instructions: 350000000 cycles: 343165238 heartbeat IPC: 1.02972 cumulative IPC: 0.968664 (Simulation time: 2 hr 17 min 21 sec) 
Heartbeat CPU 5 instructions: 260000000 cycles: 349345881 heartbeat IPC: 0.840142 cumulative IPC: 0.661569 (Simulation time: 2 hr 19 min 39 sec) 
Heartbeat CPU 2 instructions: 320000000 cycles: 349918286 heartbeat IPC: 0.539377 cumulative IPC: 0.85526 (Simulation time: 2 hr 19 min 50 sec) 
Heartbeat CPU 1 instructions: 330000003 cycles: 352432349 heartbeat IPC: 1.04419 cumulative IPC: 0.889741 (Simulation time: 2 hr 20 min 45 sec) 
Heartbeat CPU 3 instructions: 360000000 cycles: 353106000 heartbeat IPC: 1.00596 cumulative IPC: 0.96976 (Simulation time: 2 hr 21 min 1 sec) 
Heartbeat CPU 4 instructions: 190000000 cycles: 354679145 heartbeat IPC: 0.661064 cumulative IPC: 0.462056 (Simulation time: 2 hr 21 min 36 sec) 
Heartbeat CPU 7 instructions: 280000000 cycles: 354951238 heartbeat IPC: 0.833126 cumulative IPC: 0.707895 (Simulation time: 2 hr 21 min 42 sec) 
Heartbeat CPU 1 instructions: 340000000 cycles: 362018442 heartbeat IPC: 1.04318 cumulative IPC: 0.893978 (Simulation time: 2 hr 24 min 19 sec) 
Heartbeat CPU 5 instructions: 270000001 cycles: 362639051 heartbeat IPC: 0.752266 cumulative IPC: 0.665035 (Simulation time: 2 hr 24 min 33 sec) 
Heartbeat CPU 3 instructions: 370000003 cycles: 363033030 heartbeat IPC: 1.00735 cumulative IPC: 0.970831 (Simulation time: 2 hr 24 min 42 sec) 
Heartbeat CPU 7 instructions: 290000000 cycles: 366673367 heartbeat IPC: 0.853087 cumulative IPC: 0.712732 (Simulation time: 2 hr 26 min 0 sec) 
Finished CPU 6 instructions: 100000001 cycles: 352687113 cumulative IPC: 0.283537 (Simulation time: 2 hr 26 min 19 sec) 
Heartbeat CPU 2 instructions: 330000003 cycles: 368624756 heartbeat IPC: 0.534575 cumulative IPC: 0.838305 (Simulation time: 2 hr 26 min 44 sec) 
Heartbeat CPU 4 instructions: 200000000 cycles: 369879087 heartbeat IPC: 0.657897 cumulative IPC: 0.470439 (Simulation time: 2 hr 27 min 9 sec) 
Heartbeat CPU 1 instructions: 350000001 cycles: 371581139 heartbeat IPC: 1.04573 cumulative IPC: 0.898045 (Simulation time: 2 hr 27 min 44 sec) 
Heartbeat CPU 3 instructions: 380000000 cycles: 372545052 heartbeat IPC: 1.0513 cumulative IPC: 0.972971 (Simulation time: 2 hr 28 min 4 sec) 
Heartbeat CPU 6 instructions: 130000002 cycles: 373002771 heartbeat IPC: 0.315146 cumulative IPC: 0.28253 (Simulation time: 2 hr 28 min 15 sec) 
Heartbeat CPU 5 instructions: 280000000 cycles: 375711085 heartbeat IPC: 0.764992 cumulative IPC: 0.668655 (Simulation time: 2 hr 29 min 15 sec) 
Heartbeat CPU 7 instructions: 300000000 cycles: 378667547 heartbeat IPC: 0.833738 cumulative IPC: 0.716721 (Simulation time: 2 hr 30 min 20 sec) 
Heartbeat CPU 3 instructions: 390000000 cycles: 381008186 heartbeat IPC: 1.1816 cumulative IPC: 0.977792 (Simulation time: 2 hr 31 min 8 sec) 
Heartbeat CPU 1 instructions: 360000000 cycles: 381100066 heartbeat IPC: 1.05054 cumulative IPC: 0.902008 (Simulation time: 2 hr 31 min 10 sec) 
Heartbeat CPU 4 instructions: 210000002 cycles: 385244693 heartbeat IPC: 0.650804 cumulative IPC: 0.47792 (Simulation time: 2 hr 32 min 36 sec) 
Heartbeat CPU 2 instructions: 340000000 cycles: 387481989 heartbeat IPC: 0.5303 cumulative IPC: 0.822721 (Simulation time: 2 hr 33 min 24 sec) 
Heartbeat CPU 5 instructions: 290000000 cycles: 389217650 heartbeat IPC: 0.740381 cumulative IPC: 0.671243 (Simulation time: 2 hr 34 min 0 sec) 
Heartbeat CPU 7 instructions: 310000000 cycles: 390727170 heartbeat IPC: 0.829213 cumulative IPC: 0.72033 (Simulation time: 2 hr 34 min 32 sec) 
Heartbeat CPU 1 instructions: 370000000 cycles: 390792550 heartbeat IPC: 1.03173 cumulative IPC: 0.905352 (Simulation time: 2 hr 34 min 33 sec) 
Heartbeat CPU 3 instructions: 400000000 cycles: 391406894 heartbeat IPC: 0.961658 cumulative IPC: 0.977347 (Simulation time: 2 hr 34 min 46 sec) 
Heartbeat CPU 1 instructions: 380000000 cycles: 400346621 heartbeat IPC: 1.04667 cumulative IPC: 0.908854 (Simulation time: 2 hr 38 min 1 sec) 
Heartbeat CPU 3 instructions: 410000000 cycles: 400792493 heartbeat IPC: 1.06546 cumulative IPC: 0.979489 (Simulation time: 2 hr 38 min 12 sec) 
Heartbeat CPU 4 instructions: 220000000 cycles: 401000257 heartbeat IPC: 0.634696 cumulative IPC: 0.484316 (Simulation time: 2 hr 38 min 17 sec) 
Heartbeat CPU 5 instructions: 300000000 cycles: 402418558 heartbeat IPC: 0.757524 cumulative IPC: 0.674181 (Simulation time: 2 hr 38 min 48 sec) 
Heartbeat CPU 7 instructions: 320000000 cycles: 402530341 heartbeat IPC: 0.84723 cumulative IPC: 0.724193 (Simulation time: 2 hr 38 min 51 sec) 
Heartbeat CPU 6 instructions: 140000000 cycles: 403985324 heartbeat IPC: 0.322762 cumulative IPC: 0.285733 (Simulation time: 2 hr 39 min 21 sec) 
Heartbeat CPU 2 instructions: 350000003 cycles: 406157377 heartbeat IPC: 0.535464 cumulative IPC: 0.809013 (Simulation time: 2 hr 40 min 7 sec) 
Heartbeat CPU 1 instructions: 390000001 cycles: 409974015 heartbeat IPC: 1.0387 cumulative IPC: 0.912017 (Simulation time: 2 hr 41 min 22 sec) 
Heartbeat CPU 3 instructions: 420000000 cycles: 410216386 heartbeat IPC: 1.06113 cumulative IPC: 0.981435 (Simulation time: 2 hr 41 min 27 sec) 
Heartbeat CPU 0 instructions: 60000000 cycles: 410827660 heartbeat IPC: 0.109901 cumulative IPC: 0.101004 (Simulation time: 2 hr 41 min 39 sec) 
Heartbeat CPU 7 instructions: 330000000 cycles: 415140108 heartbeat IPC: 0.793036 cumulative IPC: 0.726361 (Simulation time: 2 hr 43 min 8 sec) 
Heartbeat CPU 5 instructions: 310000000 cycles: 416370997 heartbeat IPC: 0.716721 cumulative IPC: 0.675659 (Simulation time: 2 hr 43 min 32 sec) 
Heartbeat CPU 3 instructions: 430000001 cycles: 419503186 heartbeat IPC: 1.0768 cumulative IPC: 0.983624 (Simulation time: 2 hr 44 min 36 sec) 
Heartbeat CPU 1 instructions: 400000000 cycles: 419506765 heartbeat IPC: 1.04902 cumulative IPC: 0.915244 (Simulation time: 2 hr 44 min 36 sec) 
Heartbeat CPU 2 instructions: 360000000 cycles: 425155862 heartbeat IPC: 0.526358 cumulative IPC: 0.795926 (Simulation time: 2 hr 46 min 32 sec) 
Heartbeat CPU 4 instructions: 230000001 cycles: 425159433 heartbeat IPC: 0.413921 cumulative IPC: 0.480172 (Simulation time: 2 hr 46 min 32 sec) 
Heartbeat CPU 7 instructions: 340000000 cycles: 427346475 heartbeat IPC: 0.819245 cumulative IPC: 0.729109 (Simulation time: 2 hr 47 min 18 sec) 
Heartbeat CPU 5 instructions: 320000000 cycles: 428153173 heartbeat IPC: 0.84874 cumulative IPC: 0.680593 (Simulation time: 2 hr 47 min 36 sec) 
Heartbeat CPU 3 instructions: 440000000 cycles: 428720398 heartbeat IPC: 1.08493 cumulative IPC: 0.985879 (Simulation time: 2 hr 47 min 48 sec) 
Heartbeat CPU 1 instructions: 410000002 cycles: 429414749 heartbeat IPC: 1.00929 cumulative IPC: 0.917492 (Simulation time: 2 hr 48 min 2 sec) 
Heartbeat CPU 6 instructions: 150000000 cycles: 434048937 heartbeat IPC: 0.332628 cumulative IPC: 0.289096 (Simulation time: 2 hr 49 min 34 sec) 
Heartbeat CPU 3 instructions: 450000001 cycles: 437849805 heartbeat IPC: 1.09536 cumulative IPC: 0.988242 (Simulation time: 2 hr 50 min 52 sec) 
Heartbeat CPU 1 instructions: 420000000 cycles: 439319586 heartbeat IPC: 1.00961 cumulative IPC: 0.919641 (Simulation time: 2 hr 51 min 25 sec) 
Heartbeat CPU 7 instructions: 350000003 cycles: 439681454 heartbeat IPC: 0.810703 cumulative IPC: 0.731478 (Simulation time: 2 hr 51 min 32 sec) 
Heartbeat CPU 5 instructions: 330000000 cycles: 440361941 heartbeat IPC: 0.819083 cumulative IPC: 0.684566 (Simulation time: 2 hr 51 min 45 sec) 
Heartbeat CPU 2 instructions: 370000000 cycles: 443648041 heartbeat IPC: 0.540769 cumulative IPC: 0.784924 (Simulation time: 2 hr 52 min 50 sec) 
Heartbeat CPU 3 instructions: 460000000 cycles: 446835840 heartbeat IPC: 1.11284 cumulative IPC: 0.990834 (Simulation time: 2 hr 53 min 52 sec) 
Heartbeat CPU 1 instructions: 430000003 cycles: 449348124 heartbeat IPC: 0.997155 cumulative IPC: 0.92143 (Simulation time: 2 hr 54 min 41 sec) 
Heartbeat CPU 4 instructions: 240000000 cycles: 450100812 heartbeat IPC: 0.40094 cumulative IPC: 0.475632 (Simulation time: 2 hr 54 min 56 sec) 
Heartbeat CPU 7 instructions: 360000000 cycles: 452393210 heartbeat IPC: 0.786673 cumulative IPC: 0.733081 (Simulation time: 2 hr 55 min 44 sec) 
Heartbeat CPU 5 instructions: 340000000 cycles: 453588884 heartbeat IPC: 0.756033 cumulative IPC: 0.68672 (Simulation time: 2 hr 56 min 8 sec) 
Heartbeat CPU 3 instructions: 470000001 cycles: 455436163 heartbeat IPC: 1.16275 cumulative IPC: 0.994189 (Simulation time: 2 hr 56 min 45 sec) 
Heartbeat CPU 1 instructions: 440000000 cycles: 459300217 heartbeat IPC: 1.00481 cumulative IPC: 0.923297 (Simulation time: 2 hr 58 min 3 sec) 
Heartbeat CPU 2 instructions: 380000000 cycles: 462396547 heartbeat IPC: 0.533376 cumulative IPC: 0.774387 (Simulation time: 2 hr 59 min 6 sec) 
Heartbeat CPU 6 instructions: 160000000 cycles: 463865164 heartbeat IPC: 0.335388 cumulative IPC: 0.29217 (Simulation time: 2 hr 59 min 34 sec) 
Heartbeat CPU 3 instructions: 480000000 cycles: 463927487 heartbeat IPC: 1.17767 cumulative IPC: 0.997658 (Simulation time: 2 hr 59 min 35 sec) 
Heartbeat CPU 7 instructions: 370000001 cycles: 465042353 heartbeat IPC: 0.790567 cumulative IPC: 0.734697 (Simulation time: 2 hr 59 min 59 sec) 
Heartbeat CPU 5 instructions: 350000002 cycles: 466012597 heartbeat IPC: 0.804913 cumulative IPC: 0.689974 (Simulation time: 3 hr 0 min 23 sec) 
Heartbeat CPU 1 instructions: 450000002 cycles: 469271407 heartbeat IPC: 1.00289 cumulative IPC: 0.925043 (Simulation time: 3 hr 1 min 29 sec) 
Heartbeat CPU 3 instructions: 490000002 cycles: 472750829 heartbeat IPC: 1.13336 cumulative IPC: 1.00027 (Simulation time: 3 hr 2 min 36 sec) 
Heartbeat CPU 4 instructions: 250000001 cycles: 475356115 heartbeat IPC: 0.395956 cumulative IPC: 0.471263 (Simulation time: 3 hr 3 min 29 sec) 
Heartbeat CPU 7 instructions: 380000000 cycles: 478388343 heartbeat IPC: 0.749289 cumulative IPC: 0.735117 (Simulation time: 3 hr 4 min 28 sec) 
Heartbeat CPU 1 instructions: 460000000 cycles: 479443220 heartbeat IPC: 0.983109 cumulative IPC: 0.926314 (Simulation time: 3 hr 4 min 50 sec) 
Heartbeat CPU 5 instructions: 360000000 cycles: 480260980 heartbeat IPC: 0.701834 cumulative IPC: 0.690337 (Simulation time: 3 hr 5 min 7 sec) 
Heartbeat CPU 2 instructions: 390000002 cycles: 481447403 heartbeat IPC: 0.524911 cumulative IPC: 0.764202 (Simulation time: 3 hr 5 min 28 sec) 
Heartbeat CPU 3 instructions: 500000000 cycles: 483436488 heartbeat IPC: 0.935834 cumulative IPC: 0.998803 (Simulation time: 3 hr 6 min 6 sec) 
Heartbeat CPU 1 instructions: 470000003 cycles: 489250936 heartbeat IPC: 1.01961 cumulative IPC: 0.928243 (Simulation time: 3 hr 7 min 57 sec) 
Heartbeat CPU 7 instructions: 390000001 cycles: 490131556 heartbeat IPC: 0.851556 cumulative IPC: 0.737993 (Simulation time: 3 hr 8 min 14 sec) 
Heartbeat CPU 5 instructions: 370000000 cycles: 493609917 heartbeat IPC: 0.749123 cumulative IPC: 0.691976 (Simulation time: 3 hr 9 min 25 sec) 
Heartbeat CPU 3 instructions: 510000000 cycles: 495231293 heartbeat IPC: 0.847831 cumulative IPC: 0.995097 (Simulation time: 3 hr 9 min 55 sec) 
Heartbeat CPU 1 instructions: 480000000 cycles: 498907000 heartbeat IPC: 1.03562 cumulative IPC: 0.930384 (Simulation time: 3 hr 11 min 7 sec) 
Heartbeat CPU 4 instructions: 260000000 cycles: 499293538 heartbeat IPC: 0.417756 cumulative IPC: 0.468619 (Simulation time: 3 hr 11 min 15 sec) 
Heartbeat CPU 6 instructions: 170000003 cycles: 499890623 heartbeat IPC: 0.277582 cumulative IPC: 0.291086 (Simulation time: 3 hr 11 min 27 sec) 
Heartbeat CPU 7 instructions: 400000000 cycles: 499972554 heartbeat IPC: 1.01616 cumulative IPC: 0.743635 (Simulation time: 3 hr 11 min 29 sec) 
Heartbeat CPU 2 instructions: 400000000 cycles: 499978154 heartbeat IPC: 0.539643 cumulative IPC: 0.755626 (Simulation time: 3 hr 11 min 29 sec) 
Heartbeat CPU 0 instructions: 70000002 cycles: 503325236 heartbeat IPC: 0.108111 cumulative IPC: 0.102349 (Simulation time: 3 hr 12 min 32 sec) 
Heartbeat CPU 3 instructions: 520000000 cycles: 507246613 heartbeat IPC: 0.832271 cumulative IPC: 0.991124 (Simulation time: 3 hr 13 min 46 sec) 
Heartbeat CPU 5 instructions: 380000000 cycles: 507554650 heartbeat IPC: 0.717117 cumulative IPC: 0.692688 (Simulation time: 3 hr 13 min 52 sec) 
Heartbeat CPU 1 instructions: 490000003 cycles: 510303560 heartbeat IPC: 0.877458 cumulative IPC: 0.929167 (Simulation time: 3 hr 14 min 46 sec) 
Heartbeat CPU 7 instructions: 410000002 cycles: 510403340 heartbeat IPC: 0.958701 cumulative IPC: 0.748162 (Simulation time: 3 hr 14 min 48 sec) 
Heartbeat CPU 2 instructions: 410000001 cycles: 518697848 heartbeat IPC: 0.534197 cumulative IPC: 0.7474 (Simulation time: 3 hr 17 min 33 sec) 
Heartbeat CPU 3 instructions: 530000002 cycles: 519032643 heartbeat IPC: 0.848462 cumulative IPC: 0.987789 (Simulation time: 3 hr 17 min 38 sec) 
Heartbeat CPU 5 instructions: 390000003 cycles: 520938129 heartbeat IPC: 0.74719 cumulative IPC: 0.694129 (Simulation time: 3 hr 18 min 14 sec) 
Heartbeat CPU 7 instructions: 420000000 cycles: 521204093 heartbeat IPC: 0.925861 cumulative IPC: 0.751952 (Simulation time: 3 hr 18 min 20 sec) 
Heartbeat CPU 1 instructions: 500000000 cycles: 522503591 heartbeat IPC: 0.81967 cumulative IPC: 0.926536 (Simulation time: 3 hr 18 min 46 sec) 
Heartbeat CPU 4 instructions: 270000000 cycles: 523875147 heartbeat IPC: 0.406808 cumulative IPC: 0.465635 (Simulation time: 3 hr 19 min 12 sec) 
Heartbeat CPU 3 instructions: 540000000 cycles: 529709255 heartbeat IPC: 0.936627 cumulative IPC: 0.986728 (Simulation time: 3 hr 20 min 58 sec) 
Heartbeat CPU 7 instructions: 430000001 cycles: 533647479 heartbeat IPC: 0.80364 cumulative IPC: 0.753192 (Simulation time: 3 hr 22 min 13 sec) 
Heartbeat CPU 5 instructions: 400000000 cycles: 533907034 heartbeat IPC: 0.771075 cumulative IPC: 0.696051 (Simulation time: 3 hr 22 min 18 sec) 
Heartbeat CPU 1 instructions: 510000003 cycles: 535271240 heartbeat IPC: 0.78323 cumulative IPC: 0.92302 (Simulation time: 3 hr 22 min 46 sec) 
Heartbeat CPU 6 instructions: 180000000 cycles: 536485131 heartbeat IPC: 0.273265 cumulative IPC: 0.289836 (Simulation time: 3 hr 23 min 10 sec) 
Heartbeat CPU 2 instructions: 420000000 cycles: 537484180 heartbeat IPC: 0.532302 cumulative IPC: 0.739668 (Simulation time: 3 hr 23 min 31 sec) 
Heartbeat CPU 3 instructions: 550000000 cycles: 537504520 heartbeat IPC: 1.28283 cumulative IPC: 0.991144 (Simulation time: 3 hr 23 min 32 sec) 
Heartbeat CPU 3 instructions: 560000000 cycles: 545239929 heartbeat IPC: 1.29276 cumulative IPC: 0.995543 (Simulation time: 3 hr 26 min 12 sec) 
Heartbeat CPU 7 instructions: 440000000 cycles: 545397334 heartbeat IPC: 0.851074 cumulative IPC: 0.755359 (Simulation time: 3 hr 26 min 15 sec) 
Heartbeat CPU 4 instructions: 280000000 cycles: 545714142 heartbeat IPC: 0.457897 cumulative IPC: 0.465316 (Simulation time: 3 hr 26 min 21 sec) 
Heartbeat CPU 5 instructions: 410000000 cycles: 547612021 heartbeat IPC: 0.729661 cumulative IPC: 0.696916 (Simulation time: 3 hr 27 min 1 sec) 
Heartbeat CPU 1 instructions: 520000000 cycles: 547756706 heartbeat IPC: 0.800931 cumulative IPC: 0.92016 (Simulation time: 3 hr 27 min 4 sec) 
Heartbeat CPU 3 instructions: 570000003 cycles: 555945033 heartbeat IPC: 0.934134 cumulative IPC: 0.994328 (Simulation time: 3 hr 29 min 37 sec) 
Heartbeat CPU 7 instructions: 450000001 cycles: 558077456 heartbeat IPC: 0.788636 cumulative IPC: 0.756136 (Simulation time: 3 hr 30 min 13 sec) 
Heartbeat CPU 1 instructions: 530000000 cycles: 558808095 heartbeat IPC: 0.904864 cumulative IPC: 0.919849 (Simulation time: 3 hr 30 min 25 sec) 
Heartbeat CPU 2 instructions: 430000002 cycles: 560345509 heartbeat IPC: 0.43742 cumulative IPC: 0.727003 (Simulation time: 3 hr 30 min 53 sec) 
Heartbeat CPU 6 instructions: 190000001 cycles: 561103674 heartbeat IPC: 0.406198 cumulative IPC: 0.29508 (Simulation time: 3 hr 31 min 8 sec) 
Heartbeat CPU 4 instructions: 290000002 cycles: 561718137 heartbeat IPC: 0.624844 cumulative IPC: 0.469985 (Simulation time: 3 hr 31 min 18 sec) 
Heartbeat CPU 5 instructions: 420000000 cycles: 561895566 heartbeat IPC: 0.700106 cumulative IPC: 0.696999 (Simulation time: 3 hr 31 min 21 sec) 
Heartbeat CPU 3 instructions: 580000000 cycles: 568780284 heartbeat IPC: 0.779104 cumulative IPC: 0.989341 (Simulation time: 3 hr 33 min 19 sec) 
Heartbeat CPU 1 instructions: 540000000 cycles: 569076116 heartbeat IPC: 0.973898 cumulative IPC: 0.920851 (Simulation time: 3 hr 33 min 24 sec) 
Heartbeat CPU 7 instructions: 460000000 cycles: 571266338 heartbeat IPC: 0.758214 cumulative IPC: 0.756185 (Simulation time: 3 hr 34 min 2 sec) 
Heartbeat CPU 5 instructions: 430000001 cycles: 576361838 heartbeat IPC: 0.691263 cumulative IPC: 0.696851 (Simulation time: 3 hr 35 min 33 sec) 
Heartbeat CPU 4 instructions: 300000000 cycles: 578200741 heartbeat IPC: 0.6067 cumulative IPC: 0.473984 (Simulation time: 3 hr 36 min 4 sec) 
Heartbeat CPU 3 instructions: 590000001 cycles: 578442123 heartbeat IPC: 1.035 cumulative IPC: 0.990124 (Simulation time: 3 hr 36 min 8 sec) 
Heartbeat CPU 1 instructions: 550000000 cycles: 579309701 heartbeat IPC: 0.977175 cumulative IPC: 0.921872 (Simulation time: 3 hr 36 min 23 sec) 
Heartbeat CPU 7 instructions: 470000001 cycles: 584975102 heartbeat IPC: 0.72946 cumulative IPC: 0.755543 (Simulation time: 3 hr 37 min 54 sec) 
Heartbeat CPU 1 instructions: 560000000 cycles: 590046193 heartbeat IPC: 0.931403 cumulative IPC: 0.92205 (Simulation time: 3 hr 39 min 26 sec) 
Heartbeat CPU 3 instructions: 600000000 cycles: 590250383 heartbeat IPC: 0.846865 cumulative IPC: 0.987184 (Simulation time: 3 hr 39 min 30 sec) 
Heartbeat CPU 5 instructions: 440000000 cycles: 590454584 heartbeat IPC: 0.709585 cumulative IPC: 0.697163 (Simulation time: 3 hr 39 min 34 sec) 
Heartbeat CPU 0 instructions: 80000000 cycles: 595194970 heartbeat IPC: 0.10885 cumulative IPC: 0.103378 (Simulation time: 3 hr 40 min 59 sec) 
Heartbeat CPU 4 instructions: 310000003 cycles: 595241589 heartbeat IPC: 0.586825 cumulative IPC: 0.477297 (Simulation time: 3 hr 41 min 0 sec) 
Heartbeat CPU 6 instructions: 200000000 cycles: 596593961 heartbeat IPC: 0.281767 cumulative IPC: 0.294268 (Simulation time: 3 hr 41 min 25 sec) 
Heartbeat CPU 7 instructions: 480000000 cycles: 597247002 heartbeat IPC: 0.81487 cumulative IPC: 0.756792 (Simulation time: 3 hr 41 min 39 sec) 
Heartbeat CPU 1 instructions: 570000001 cycles: 600069168 heartbeat IPC: 0.997708 cumulative IPC: 0.923345 (Simulation time: 3 hr 42 min 30 sec) 
Heartbeat CPU 3 instructions: 610000000 cycles: 600200103 heartbeat IPC: 1.00505 cumulative IPC: 0.987488 (Simulation time: 3 hr 42 min 32 sec) 
Heartbeat CPU 5 instructions: 450000003 cycles: 604063643 heartbeat IPC: 0.734805 cumulative IPC: 0.698032 (Simulation time: 3 hr 43 min 45 sec) 
Heartbeat CPU 7 instructions: 490000001 cycles: 608808654 heartbeat IPC: 0.864928 cumulative IPC: 0.758897 (Simulation time: 3 hr 45 min 12 sec) 
Heartbeat CPU 1 instructions: 580000000 cycles: 610144526 heartbeat IPC: 0.99252 cumulative IPC: 0.924516 (Simulation time: 3 hr 45 min 34 sec) 
Heartbeat CPU 3 instructions: 620000000 cycles: 610299922 heartbeat IPC: 0.990117 cumulative IPC: 0.987533 (Simulation time: 3 hr 45 min 37 sec) 
Heartbeat CPU 4 instructions: 320000000 cycles: 611045533 heartbeat IPC: 0.632753 cumulative IPC: 0.481418 (Simulation time: 3 hr 45 min 48 sec) 
Heartbeat CPU 5 instructions: 460000000 cycles: 618859753 heartbeat IPC: 0.675853 cumulative IPC: 0.697489 (Simulation time: 3 hr 48 min 11 sec) 
Heartbeat CPU 1 instructions: 590000001 cycles: 620328488 heartbeat IPC: 0.981936 cumulative IPC: 0.925482 (Simulation time: 3 hr 48 min 39 sec) 
Heartbeat CPU 3 instructions: 630000000 cycles: 620405279 heartbeat IPC: 0.989574 cumulative IPC: 0.987567 (Simulation time: 3 hr 48 min 40 sec) 
Heartbeat CPU 7 instructions: 500000000 cycles: 621736139 heartbeat IPC: 0.773546 cumulative IPC: 0.759209 (Simulation time: 3 hr 49 min 6 sec) 
Heartbeat CPU 2 instructions: 440000000 cycles: 623714765 heartbeat IPC: 0.157805 cumulative IPC: 0.667766 (Simulation time: 3 hr 49 min 43 sec) 
Heartbeat CPU 4 instructions: 330000003 cycles: 626804770 heartbeat IPC: 0.634549 cumulative IPC: 0.485361 (Simulation time: 3 hr 50 min 50 sec) 
Heartbeat CPU 6 instructions: 210000001 cycles: 627621402 heartbeat IPC: 0.322295 cumulative IPC: 0.295687 (Simulation time: 3 hr 51 min 6 sec) 
Heartbeat CPU 1 instructions: 600000000 cycles: 630162490 heartbeat IPC: 1.01688 cumulative IPC: 0.926942 (Simulation time: 3 hr 51 min 56 sec) 
Heartbeat CPU 3 instructions: 640000000 cycles: 630229557 heartbeat IPC: 1.01789 cumulative IPC: 0.988051 (Simulation time: 3 hr 51 min 57 sec) 
Heartbeat CPU 5 instructions: 470000003 cycles: 632533960 heartbeat IPC: 0.731304 cumulative IPC: 0.698238 (Simulation time: 3 hr 52 min 45 sec) 
Heartbeat CPU 7 instructions: 510000002 cycles: 633015676 heartbeat IPC: 0.886561 cumulative IPC: 0.761533 (Simulation time: 3 hr 52 min 55 sec) 
Heartbeat CPU 1 instructions: 610000000 cycles: 640085459 heartbeat IPC: 1.00776 cumulative IPC: 0.928225 (Simulation time: 3 hr 55 min 22 sec) 
Heartbeat CPU 3 instructions: 650000000 cycles: 640133772 heartbeat IPC: 1.00967 cumulative IPC: 0.988393 (Simulation time: 3 hr 55 min 23 sec) 
Heartbeat CPU 4 instructions: 340000000 cycles: 641511217 heartbeat IPC: 0.679974 cumulative IPC: 0.489928 (Simulation time: 3 hr 55 min 50 sec) 
Heartbeat CPU 2 instructions: 450000000 cycles: 641846524 heartbeat IPC: 0.551518 cumulative IPC: 0.664405 (Simulation time: 3 hr 55 min 56 sec) 
Heartbeat CPU 5 instructions: 480000000 cycles: 644145129 heartbeat IPC: 0.861239 cumulative IPC: 0.701245 (Simulation time: 3 hr 56 min 48 sec) 
Heartbeat CPU 7 instructions: 520000000 cycles: 644846255 heartbeat IPC: 0.845267 cumulative IPC: 0.763105 (Simulation time: 3 hr 57 min 3 sec) 
Heartbeat CPU 3 instructions: 660000000 cycles: 649881715 heartbeat IPC: 1.02586 cumulative IPC: 0.988968 (Simulation time: 3 hr 58 min 42 sec) 
Heartbeat CPU 1 instructions: 620000000 cycles: 649963103 heartbeat IPC: 1.01239 cumulative IPC: 0.929534 (Simulation time: 3 hr 58 min 44 sec) 
Heartbeat CPU 7 instructions: 530000003 cycles: 656817959 heartbeat IPC: 0.835303 cumulative IPC: 0.764451 (Simulation time: 4 hr 1 min 4 sec) 
Heartbeat CPU 6 instructions: 220000000 cycles: 657065572 heartbeat IPC: 0.339626 cumulative IPC: 0.297701 (Simulation time: 4 hr 1 min 10 sec) 
Heartbeat CPU 5 instructions: 490000000 cycles: 657450470 heartbeat IPC: 0.751578 cumulative IPC: 0.702287 (Simulation time: 4 hr 1 min 17 sec) 
Heartbeat CPU 4 instructions: 350000000 cycles: 658661071 heartbeat IPC: 0.583095 cumulative IPC: 0.492409 (Simulation time: 4 hr 1 min 41 sec) 
Heartbeat CPU 1 instructions: 630000001 cycles: 659656049 heartbeat IPC: 1.03168 cumulative IPC: 0.931069 (Simulation time: 4 hr 1 min 59 sec) 
Heartbeat CPU 3 instructions: 670000003 cycles: 659656078 heartbeat IPC: 1.02308 cumulative IPC: 0.989485 (Simulation time: 4 hr 1 min 59 sec) 
Heartbeat CPU 2 instructions: 460000000 cycles: 659913064 heartbeat IPC: 0.553509 cumulative IPC: 0.661299 (Simulation time: 4 hr 2 min 4 sec) 
Heartbeat CPU 1 instructions: 640000000 cycles: 669668206 heartbeat IPC: 0.998786 cumulative IPC: 0.932104 (Simulation time: 4 hr 5 min 5 sec) 
Heartbeat CPU 3 instructions: 680000000 cycles: 669752153 heartbeat IPC: 0.990484 cumulative IPC: 0.989501 (Simulation time: 4 hr 5 min 7 sec) 
Heartbeat CPU 7 instructions: 540000000 cycles: 670006428 heartbeat IPC: 0.758238 cumulative IPC: 0.764326 (Simulation time: 4 hr 5 min 12 sec) 
Heartbeat CPU 5 instructions: 500000000 cycles: 671996335 heartbeat IPC: 0.687481 cumulative IPC: 0.701959 (Simulation time: 4 hr 5 min 54 sec) 
Heartbeat CPU 2 instructions: 470000002 cycles: 678753513 heartbeat IPC: 0.530773 cumulative IPC: 0.657595 (Simulation time: 4 hr 8 min 0 sec) 
Heartbeat CPU 1 instructions: 650000000 cycles: 679629035 heartbeat IPC: 1.00393 cumulative IPC: 0.933181 (Simulation time: 4 hr 8 min 16 sec) 
Heartbeat CPU 3 instructions: 690000000 cycles: 679700543 heartbeat IPC: 1.00519 cumulative IPC: 0.989735 (Simulation time: 4 hr 8 min 18 sec) 
Heartbeat CPU 7 instructions: 550000001 cycles: 682491222 heartbeat IPC: 0.800974 cumulative IPC: 0.765012 (Simulation time: 4 hr 9 min 11 sec) 
Heartbeat CPU 0 instructions: 90000002 cycles: 683732954 heartbeat IPC: 0.112946 cumulative IPC: 0.104645 (Simulation time: 4 hr 9 min 37 sec) 
Heartbeat CPU 5 instructions: 510000000 cycles: 684059308 heartbeat IPC: 0.828983 cumulative IPC: 0.704249 (Simulation time: 4 hr 9 min 43 sec) 
Heartbeat CPU 4 instructions: 360000000 cycles: 684293348 heartbeat IPC: 0.390133 cumulative IPC: 0.488493 (Simulation time: 4 hr 9 min 48 sec) 
Heartbeat CPU 3 instructions: 700000000 cycles: 687611889 heartbeat IPC: 1.26401 cumulative IPC: 0.99296 (Simulation time: 4 hr 10 min 50 sec) 
Heartbeat CPU 6 instructions: 230000002 cycles: 688164841 heartbeat IPC: 0.321551 cumulative IPC: 0.298803 (Simulation time: 4 hr 11 min 0 sec) 
Heartbeat CPU 1 instructions: 660000000 cycles: 689424145 heartbeat IPC: 1.02092 cumulative IPC: 0.934455 (Simulation time: 4 hr 11 min 24 sec) 
Heartbeat CPU 7 instructions: 560000000 cycles: 695161574 heartbeat IPC: 0.789244 cumulative IPC: 0.765463 (Simulation time: 4 hr 13 min 8 sec) 
Heartbeat CPU 2 instructions: 480000000 cycles: 697699673 heartbeat IPC: 0.527811 cumulative IPC: 0.653995 (Simulation time: 4 hr 13 min 57 sec) 
Heartbeat CPU 3 instructions: 710000000 cycles: 697922639 heartbeat IPC: 0.969862 cumulative IPC: 0.992612 (Simulation time: 4 hr 14 min 1 sec) 
Heartbeat CPU 5 instructions: 520000000 cycles: 698803416 heartbeat IPC: 0.678237 cumulative IPC: 0.703688 (Simulation time: 4 hr 14 min 18 sec) 
Heartbeat CPU 1 instructions: 670000003 cycles: 699339753 heartbeat IPC: 1.00851 cumulative IPC: 0.935527 (Simulation time: 4 hr 14 min 29 sec) 
Heartbeat CPU 3 instructions: 720000000 cycles: 707033335 heartbeat IPC: 1.09761 cumulative IPC: 0.993994 (Simulation time: 4 hr 16 min 56 sec) 
Heartbeat CPU 7 instructions: 570000002 cycles: 707376626 heartbeat IPC: 0.818662 cumulative IPC: 0.766401 (Simulation time: 4 hr 17 min 3 sec) 
Heartbeat CPU 1 instructions: 680000000 cycles: 709830602 heartbeat IPC: 0.953211 cumulative IPC: 0.935794 (Simulation time: 4 hr 17 min 48 sec) 
Heartbeat CPU 4 instructions: 370000001 cycles: 710054184 heartbeat IPC: 0.388186 cumulative IPC: 0.484777 (Simulation time: 4 hr 17 min 52 sec) 
Heartbeat CPU 5 instructions: 530000002 cycles: 713283024 heartbeat IPC: 0.690627 cumulative IPC: 0.703417 (Simulation time: 4 hr 18 min 51 sec) 
Heartbeat CPU 2 instructions: 490000000 cycles: 716256184 heartbeat IPC: 0.538894 cumulative IPC: 0.65095 (Simulation time: 4 hr 19 min 49 sec) 
Heartbeat CPU 3 instructions: 730000000 cycles: 717110451 heartbeat IPC: 0.992347 cumulative IPC: 0.99397 (Simulation time: 4 hr 20 min 5 sec) 
Heartbeat CPU 6 instructions: 240000000 cycles: 719517813 heartbeat IPC: 0.318949 cumulative IPC: 0.299699 (Simulation time: 4 hr 20 min 51 sec) 
Heartbeat CPU 7 instructions: 580000000 cycles: 720366066 heartbeat IPC: 0.769856 cumulative IPC: 0.766465 (Simulation time: 4 hr 21 min 6 sec) 
Heartbeat CPU 1 instructions: 690000002 cycles: 720764443 heartbeat IPC: 0.914592 cumulative IPC: 0.935466 (Simulation time: 4 hr 21 min 14 sec) 
Heartbeat CPU 5 instructions: 540000000 cycles: 726658898 heartbeat IPC: 0.747615 cumulative IPC: 0.704248 (Simulation time: 4 hr 23 min 4 sec) 
Heartbeat CPU 3 instructions: 740000000 cycles: 727067453 heartbeat IPC: 1.00432 cumulative IPC: 0.994115 (Simulation time: 4 hr 23 min 13 sec) 
Heartbeat CPU 4 instructions: 380000000 cycles: 728260626 heartbeat IPC: 0.549256 cumulative IPC: 0.486422 (Simulation time: 4 hr 23 min 39 sec) 
Heartbeat CPU 1 instructions: 700000000 cycles: 731443051 heartbeat IPC: 0.936451 cumulative IPC: 0.93548 (Simulation time: 4 hr 24 min 44 sec) 
Heartbeat CPU 7 instructions: 590000002 cycles: 733172689 heartbeat IPC: 0.780846 cumulative IPC: 0.766721 (Simulation time: 4 hr 25 min 18 sec) 
Heartbeat CPU 3 instructions: 750000003 cycles: 733266575 heartbeat IPC: 1.61313 cumulative IPC: 0.999456 (Simulation time: 4 hr 25 min 20 sec) 
Heartbeat CPU 2 instructions: 500000000 cycles: 734784105 heartbeat IPC: 0.539726 cumulative IPC: 0.648088 (Simulation time: 4 hr 25 min 51 sec) 
Heartbeat CPU 3 instructions: 760000000 cycles: 739587247 heartbeat IPC: 1.58211 cumulative IPC: 1.00454 (Simulation time: 4 hr 27 min 32 sec) 
Heartbeat CPU 5 instructions: 550000000 cycles: 740952766 heartbeat IPC: 0.699601 cumulative IPC: 0.704156 (Simulation time: 4 hr 28 min 0 sec) 
Heartbeat CPU 1 instructions: 710000001 cycles: 742004109 heartbeat IPC: 0.946875 cumulative IPC: 0.935646 (Simulation time: 4 hr 28 min 23 sec) 
Heartbeat CPU 4 instructions: 390000000 cycles: 743586151 heartbeat IPC: 0.652506 cumulative IPC: 0.489915 (Simulation time: 4 hr 28 min 56 sec) 
Heartbeat CPU 7 instructions: 600000000 cycles: 745831205 heartbeat IPC: 0.789982 cumulative IPC: 0.767124 (Simulation time: 4 hr 29 min 41 sec) 
Heartbeat CPU 3 instructions: 770000003 cycles: 745929786 heartbeat IPC: 1.57666 cumulative IPC: 1.0095 (Simulation time: 4 hr 29 min 43 sec) 
Heartbeat CPU 3 instructions: 780000000 cycles: 752380111 heartbeat IPC: 1.55031 cumulative IPC: 1.01423 (Simulation time: 4 hr 31 min 54 sec) 
Heartbeat CPU 1 instructions: 720000000 cycles: 752749787 heartbeat IPC: 0.930607 cumulative IPC: 0.935573 (Simulation time: 4 hr 32 min 2 sec) 
Heartbeat CPU 2 instructions: 510000001 cycles: 753175174 heartbeat IPC: 0.543742 cumulative IPC: 0.645489 (Simulation time: 4 hr 32 min 10 sec) 
Heartbeat CPU 6 instructions: 250000003 cycles: 754322279 heartbeat IPC: 0.28732 cumulative IPC: 0.299116 (Simulation time: 4 hr 32 min 32 sec) 
Heartbeat CPU 5 instructions: 560000000 cycles: 756282116 heartbeat IPC: 0.652343 cumulative IPC: 0.703085 (Simulation time: 4 hr 33 min 12 sec) 
Heartbeat CPU 7 instructions: 610000000 cycles: 757910220 heartbeat IPC: 0.827882 cumulative IPC: 0.768112 (Simulation time: 4 hr 33 min 50 sec) 
Heartbeat CPU 3 instructions: 790000002 cycles: 758710309 heartbeat IPC: 1.57973 cumulative IPC: 1.01904 (Simulation time: 4 hr 34 min 6 sec) 
Heartbeat CPU 4 instructions: 400000000 cycles: 759722475 heartbeat IPC: 0.61972 cumulative IPC: 0.492727 (Simulation time: 4 hr 34 min 26 sec) 
Heartbeat CPU 1 instructions: 730000003 cycles: 763066021 heartbeat IPC: 0.969346 cumulative IPC: 0.936038 (Simulation time: 4 hr 35 min 33 sec) 
Heartbeat CPU 3 instructions: 800000000 cycles: 765481246 heartbeat IPC: 1.4769 cumulative IPC: 1.02317 (Simulation time: 4 hr 36 min 23 sec) 
Heartbeat CPU 5 instructions: 570000002 cycles: 767948589 heartbeat IPC: 0.857157 cumulative IPC: 0.705472 (Simulation time: 4 hr 37 min 12 sec) 
Heartbeat CPU 7 instructions: 620000000 cycles: 770700335 heartbeat IPC: 0.781854 cumulative IPC: 0.768344 (Simulation time: 4 hr 38 min 8 sec) 
Heartbeat CPU 2 instructions: 520000000 cycles: 771371846 heartbeat IPC: 0.549551 cumulative IPC: 0.643181 (Simulation time: 4 hr 38 min 22 sec) 
Heartbeat CPU 3 instructions: 810000002 cycles: 772199357 heartbeat IPC: 1.48851 cumulative IPC: 1.0273 (Simulation time: 4 hr 38 min 39 sec) 
Heartbeat CPU 1 instructions: 740000000 cycles: 772736900 heartbeat IPC: 1.03403 cumulative IPC: 0.937289 (Simulation time: 4 hr 38 min 49 sec) 
Heartbeat CPU 4 instructions: 410000000 cycles: 774879181 heartbeat IPC: 0.659774 cumulative IPC: 0.496058 (Simulation time: 4 hr 39 min 26 sec) 
Heartbeat CPU 0 instructions: 100000000 cycles: 780211100 heartbeat IPC: 0.10365 cumulative IPC: 0.104519 (Simulation time: 4 hr 41 min 5 sec) 
Heartbeat CPU 3 instructions: 820000000 cycles: 782178889 heartbeat IPC: 1.00205 cumulative IPC: 1.02697 (Simulation time: 4 hr 41 min 41 sec) 
Heartbeat CPU 5 instructions: 580000000 cycles: 783196536 heartbeat IPC: 0.655826 cumulative IPC: 0.704487 (Simulation time: 4 hr 42 min 1 sec) 
Heartbeat CPU 7 instructions: 630000002 cycles: 783761613 heartbeat IPC: 0.765622 cumulative IPC: 0.768298 (Simulation time: 4 hr 42 min 12 sec) 
Heartbeat CPU 6 instructions: 260000000 cycles: 783774081 heartbeat IPC: 0.339538 cumulative IPC: 0.300665 (Simulation time: 4 hr 42 min 12 sec) 
Heartbeat CPU 1 instructions: 750000000 cycles: 784322932 heartbeat IPC: 0.863108 cumulative IPC: 0.936172 (Simulation time: 4 hr 42 min 23 sec) 
Heartbeat CPU 2 instructions: 530000003 cycles: 789985182 heartbeat IPC: 0.537249 cumulative IPC: 0.640638 (Simulation time: 4 hr 44 min 12 sec) 
Heartbeat CPU 3 instructions: 830000001 cycles: 790369314 heartbeat IPC: 1.22094 cumulative IPC: 1.02902 (Simulation time: 4 hr 44 min 20 sec) 
Heartbeat CPU 4 instructions: 420000000 cycles: 790793885 heartbeat IPC: 0.62835 cumulative IPC: 0.498771 (Simulation time: 4 hr 44 min 29 sec) 
Heartbeat CPU 7 instructions: 640000000 cycles: 796168467 heartbeat IPC: 0.806006 cumulative IPC: 0.768897 (Simulation time: 4 hr 46 min 17 sec) 
Heartbeat CPU 3 instructions: 840000000 cycles: 796491854 heartbeat IPC: 1.63331 cumulative IPC: 1.03375 (Simulation time: 4 hr 46 min 23 sec) 
Heartbeat CPU 1 instructions: 760000000 cycles: 796913238 heartbeat IPC: 0.794262 cumulative IPC: 0.933887 (Simulation time: 4 hr 46 min 32 sec) 
Heartbeat CPU 5 instructions: 590000003 cycles: 798034705 heartbeat IPC: 0.673938 cumulative IPC: 0.703908 (Simulation time: 4 hr 46 min 54 sec) 
Heartbeat CPU 3 instructions: 850000002 cycles: 802788028 heartbeat IPC: 1.58827 cumulative IPC: 1.03818 (Simulation time: 4 hr 48 min 36 sec) 
Heartbeat CPU 4 instructions: 430000002 cycles: 805791851 heartbeat IPC: 0.666757 cumulative IPC: 0.501956 (Simulation time: 4 hr 49 min 35 sec) 
Heartbeat CPU 2 instructions: 540000000 cycles: 808172881 heartbeat IPC: 0.549822 cumulative IPC: 0.638556 (Simulation time: 4 hr 50 min 24 sec) 
Heartbeat CPU 7 instructions: 650000003 cycles: 808583064 heartbeat IPC: 0.805504 cumulative IPC: 0.769469 (Simulation time: 4 hr 50 min 32 sec) 
Heartbeat CPU 3 instructions: 860000000 cycles: 809353474 heartbeat IPC: 1.52313 cumulative IPC: 1.04219 (Simulation time: 4 hr 50 min 47 sec) 
Heartbeat CPU 1 instructions: 770000003 cycles: 809731973 heartbeat IPC: 0.780108 cumulative IPC: 0.931407 (Simulation time: 4 hr 50 min 54 sec) 
Heartbeat CPU 5 instructions: 600000000 cycles: 810075427 heartbeat IPC: 0.830515 cumulative IPC: 0.705825 (Simulation time: 4 hr 51 min 1 sec) 
Heartbeat CPU 6 instructions: 270000001 cycles: 813213122 heartbeat IPC: 0.339685 cumulative IPC: 0.302103 (Simulation time: 4 hr 52 min 5 sec) 
Heartbeat CPU 3 instructions: 870000000 cycles: 815868229 heartbeat IPC: 1.53498 cumulative IPC: 1.0462 (Simulation time: 4 hr 52 min 57 sec) 
Heartbeat CPU 7 instructions: 660000000 cycles: 821223393 heartbeat IPC: 0.791118 cumulative IPC: 0.769808 (Simulation time: 4 hr 54 min 46 sec) 
Heartbeat CPU 1 instructions: 780000000 cycles: 821458090 heartbeat IPC: 0.852797 cumulative IPC: 0.930265 (Simulation time: 4 hr 54 min 51 sec) 
Heartbeat CPU 4 instructions: 440000000 cycles: 821607012 heartbeat IPC: 0.632305 cumulative IPC: 0.504511 (Simulation time: 4 hr 54 min 55 sec) 
Heartbeat CPU 3 instructions: 880000000 cycles: 822210404 heartbeat IPC: 1.57675 cumulative IPC: 1.05037 (Simulation time: 4 hr 55 min 7 sec) 
Heartbeat CPU 5 instructions: 610000003 cycles: 824488204 heartbeat IPC: 0.693829 cumulative IPC: 0.705611 (Simulation time: 4 hr 55 min 53 sec) 
Heartbeat CPU 2 instructions: 550000001 cycles: 826640254 heartbeat IPC: 0.541496 cumulative IPC: 0.636348 (Simulation time: 4 hr 56 min 36 sec) 
Heartbeat CPU 3 instructions: 890000003 cycles: 829183078 heartbeat IPC: 1.43417 cumulative IPC: 1.05365 (Simulation time: 4 hr 57 min 29 sec) 
Heartbeat CPU 1 instructions: 790000000 cycles: 831312278 heartbeat IPC: 1.0148 cumulative IPC: 0.931285 (Simulation time: 4 hr 58 min 10 sec) 
Heartbeat CPU 7 instructions: 670000001 cycles: 833693589 heartbeat IPC: 0.801912 cumulative IPC: 0.770297 (Simulation time: 4 hr 58 min 59 sec) 
Heartbeat CPU 3 instructions: 900000000 cycles: 835994946 heartbeat IPC: 1.46803 cumulative IPC: 1.05709 (Simulation time: 4 hr 59 min 45 sec) 
Heartbeat CPU 5 instructions: 620000000 cycles: 836646207 heartbeat IPC: 0.822503 cumulative IPC: 0.707341 (Simulation time: 4 hr 59 min 58 sec) 
Heartbeat CPU 1 instructions: 800000000 cycles: 841110944 heartbeat IPC: 1.02055 cumulative IPC: 0.932343 (Simulation time: 5 hr 1 min 24 sec) 
Heartbeat CPU 4 instructions: 450000000 cycles: 841188512 heartbeat IPC: 0.510686 cumulative IPC: 0.504657 (Simulation time: 5 hr 1 min 25 sec) 
Heartbeat CPU 2 instructions: 560000000 cycles: 845404457 heartbeat IPC: 0.53293 cumulative IPC: 0.634012 (Simulation time: 5 hr 2 min 40 sec) 
Heartbeat CPU 3 instructions: 910000003 cycles: 845776763 heartbeat IPC: 1.02231 cumulative IPC: 1.05668 (Simulation time: 5 hr 2 min 47 sec) 
Heartbeat CPU 7 instructions: 680000000 cycles: 846590273 heartbeat IPC: 0.775393 cumulative IPC: 0.770376 (Simulation time: 5 hr 3 min 3 sec) 
Heartbeat CPU 1 instructions: 810000001 cycles: 850907226 heartbeat IPC: 1.0208 cumulative IPC: 0.93338 (Simulation time: 5 hr 4 min 26 sec) 
Heartbeat CPU 5 instructions: 630000001 cycles: 851020661 heartbeat IPC: 0.695679 cumulative IPC: 0.70714 (Simulation time: 5 hr 4 min 29 sec) 
Heartbeat CPU 6 instructions: 280000000 cycles: 853200300 heartbeat IPC: 0.25008 cumulative IPC: 0.299622 (Simulation time: 5 hr 5 min 12 sec) 
Heartbeat CPU 3 instructions: 920000000 cycles: 853989933 heartbeat IPC: 1.21756 cumulative IPC: 1.05825 (Simulation time: 5 hr 5 min 28 sec) 
Heartbeat CPU 7 instructions: 690000000 cycles: 858576559 heartbeat IPC: 0.834287 cumulative IPC: 0.771284 (Simulation time: 5 hr 7 min 0 sec) 
Heartbeat CPU 3 instructions: 930000002 cycles: 860083324 heartbeat IPC: 1.64112 cumulative IPC: 1.06246 (Simulation time: 5 hr 7 min 31 sec) 
Heartbeat CPU 1 instructions: 820000000 cycles: 860568518 heartbeat IPC: 1.03506 cumulative IPC: 0.934541 (Simulation time: 5 hr 7 min 41 sec) 
Heartbeat CPU 2 instructions: 570000003 cycles: 863489206 heartbeat IPC: 0.552952 cumulative IPC: 0.632284 (Simulation time: 5 hr 8 min 43 sec) 
Heartbeat CPU 5 instructions: 640000000 cycles: 864218521 heartbeat IPC: 0.757699 cumulative IPC: 0.707926 (Simulation time: 5 hr 8 min 59 sec) 
Heartbeat CPU 4 instructions: 460000000 cycles: 865756500 heartbeat IPC: 0.407034 cumulative IPC: 0.501839 (Simulation time: 5 hr 9 min 32 sec) 
Heartbeat CPU 3 instructions: 940000000 cycles: 866197626 heartbeat IPC: 1.63551 cumulative IPC: 1.06657 (Simulation time: 5 hr 9 min 41 sec) 
Heartbeat CPU 7 instructions: 700000000 cycles: 868809030 heartbeat IPC: 0.977281 cumulative IPC: 0.773752 (Simulation time: 5 hr 10 min 36 sec) 
Heartbeat CPU 1 instructions: 830000000 cycles: 870128361 heartbeat IPC: 1.04604 cumulative IPC: 0.935787 (Simulation time: 5 hr 11 min 6 sec) 
Heartbeat CPU 3 instructions: 950000002 cycles: 872349968 heartbeat IPC: 1.6254 cumulative IPC: 1.07058 (Simulation time: 5 hr 11 min 55 sec) 
Heartbeat CPU 5 instructions: 650000003 cycles: 875907640 heartbeat IPC: 0.855497 cumulative IPC: 0.709929 (Simulation time: 5 hr 13 min 8 sec) 
Heartbeat CPU 0 instructions: 110000002 cycles: 876470971 heartbeat IPC: 0.103885 cumulative IPC: 0.104448 (Simulation time: 5 hr 13 min 19 sec) 
Heartbeat CPU 3 instructions: 960000000 cycles: 878715534 heartbeat IPC: 1.57095 cumulative IPC: 1.07427 (Simulation time: 5 hr 14 min 0 sec) 
Heartbeat CPU 1 instructions: 840000000 cycles: 879972648 heartbeat IPC: 1.01582 cumulative IPC: 0.936698 (Simulation time: 5 hr 14 min 25 sec) 
Heartbeat CPU 7 instructions: 710000001 cycles: 880491990 heartbeat IPC: 0.855948 cumulative IPC: 0.774862 (Simulation time: 5 hr 14 min 36 sec) 
Heartbeat CPU 6 instructions: 290000000 cycles: 881742434 heartbeat IPC: 0.350359 cumulative IPC: 0.301292 (Simulation time: 5 hr 15 min 4 sec) 
Heartbeat CPU 2 instructions: 580000000 cycles: 881972536 heartbeat IPC: 0.541028 cumulative IPC: 0.630339 (Simulation time: 5 hr 15 min 9 sec) 
Heartbeat CPU 3 instructions: 970000001 cycles: 885022265 heartbeat IPC: 1.58561 cumulative IPC: 1.07797 (Simulation time: 5 hr 16 min 10 sec) 
Heartbeat CPU 1 instructions: 850000002 cycles: 889895256 heartbeat IPC: 1.0078 cumulative IPC: 0.937504 (Simulation time: 5 hr 17 min 48 sec) 
Heartbeat CPU 5 instructions: 660000000 cycles: 889962642 heartbeat IPC: 0.71149 cumulative IPC: 0.709954 (Simulation time: 5 hr 17 min 50 sec) 
Heartbeat CPU 4 instructions: 470000002 cycles: 890404631 heartbeat IPC: 0.40571 cumulative IPC: 0.499133 (Simulation time: 5 hr 17 min 58 sec) 
Heartbeat CPU 3 instructions: 980000000 cycles: 891904580 heartbeat IPC: 1.453 cumulative IPC: 1.08092 (Simulation time: 5 hr 18 min 28 sec) 
Heartbeat CPU 7 instructions: 720000000 cycles: 892823663 heartbeat IPC: 0.81092 cumulative IPC: 0.775368 (Simulation time: 5 hr 18 min 47 sec) 
Heartbeat CPU 2 instructions: 590000001 cycles: 897429780 heartbeat IPC: 0.646946 cumulative IPC: 0.63063 (Simulation time: 5 hr 20 min 23 sec) 
Heartbeat CPU 3 instructions: 990000001 cycles: 898420953 heartbeat IPC: 1.5346 cumulative IPC: 1.08426 (Simulation time: 5 hr 20 min 43 sec) 
Heartbeat CPU 1 instructions: 860000000 cycles: 899597853 heartbeat IPC: 1.03065 cumulative IPC: 0.938526 (Simulation time: 5 hr 21 min 7 sec) 
Heartbeat CPU 5 instructions: 670000002 cycles: 903579827 heartbeat IPC: 0.734366 cumulative IPC: 0.710328 (Simulation time: 5 hr 22 min 30 sec) 
Heartbeat CPU 7 instructions: 730000003 cycles: 904127613 heartbeat IPC: 0.884647 cumulative IPC: 0.776757 (Simulation time: 5 hr 22 min 41 sec) 
Heartbeat CPU 3 instructions: 1000000000 cycles: 907233260 heartbeat IPC: 1.13478 cumulative IPC: 1.08476 (Simulation time: 5 hr 23 min 41 sec) 
Heartbeat CPU 1 instructions: 870000002 cycles: 909335597 heartbeat IPC: 1.02693 cumulative IPC: 0.939488 (Simulation time: 5 hr 24 min 22 sec) 
Heartbeat CPU 6 instructions: 300000000 cycles: 910710947 heartbeat IPC: 0.345202 cumulative IPC: 0.302712 (Simulation time: 5 hr 24 min 51 sec) 
Heartbeat CPU 2 instructions: 600000000 cycles: 911476630 heartbeat IPC: 0.711903 cumulative IPC: 0.631903 (Simulation time: 5 hr 25 min 6 sec) 
Heartbeat CPU 4 instructions: 480000000 cycles: 913557609 heartbeat IPC: 0.43191 cumulative IPC: 0.497401 (Simulation time: 5 hr 25 min 47 sec) 
Heartbeat CPU 3 instructions: 1010000002 cycles: 915674543 heartbeat IPC: 1.18465 cumulative IPC: 1.0857 (Simulation time: 5 hr 26 min 27 sec) 
Heartbeat CPU 7 instructions: 740000000 cycles: 916263132 heartbeat IPC: 0.824027 cumulative IPC: 0.777394 (Simulation time: 5 hr 26 min 39 sec) 
Heartbeat CPU 5 instructions: 680000000 cycles: 917449019 heartbeat IPC: 0.721022 cumulative IPC: 0.710492 (Simulation time: 5 hr 27 min 3 sec) 
Heartbeat CPU 1 instructions: 880000000 cycles: 919220761 heartbeat IPC: 1.01162 cumulative IPC: 0.940277 (Simulation time: 5 hr 27 min 40 sec) 
Heartbeat CPU 3 instructions: 1020000000 cycles: 921790301 heartbeat IPC: 1.63512 cumulative IPC: 1.0894 (Simulation time: 5 hr 28 min 38 sec) 
Heartbeat CPU 2 instructions: 610000001 cycles: 925573293 heartbeat IPC: 0.709388 cumulative IPC: 0.633102 (Simulation time: 5 hr 30 min 0 sec) 
Heartbeat CPU 7 instructions: 750000002 cycles: 927660030 heartbeat IPC: 0.877432 cumulative IPC: 0.778642 (Simulation time: 5 hr 30 min 45 sec) 
Heartbeat CPU 3 instructions: 1030000001 cycles: 927953681 heartbeat IPC: 1.62249 cumulative IPC: 1.093 (Simulation time: 5 hr 30 min 51 sec) 
Heartbeat CPU 5 instructions: 690000003 cycles: 928722043 heartbeat IPC: 0.887074 cumulative IPC: 0.71267 (Simulation time: 5 hr 31 min 8 sec) 
Heartbeat CPU 1 instructions: 890000000 cycles: 928800196 heartbeat IPC: 1.0439 cumulative IPC: 0.941363 (Simulation time: 5 hr 31 min 10 sec) 
Heartbeat CPU 3 instructions: 1040000000 cycles: 934189938 heartbeat IPC: 1.60353 cumulative IPC: 1.09646 (Simulation time: 5 hr 33 min 1 sec) 
Heartbeat CPU 4 instructions: 490000000 cycles: 938296818 heartbeat IPC: 0.404217 cumulative IPC: 0.494905 (Simulation time: 5 hr 34 min 29 sec) 
Heartbeat CPU 1 instructions: 900000000 cycles: 938485704 heartbeat IPC: 1.03247 cumulative IPC: 0.942318 (Simulation time: 5 hr 34 min 33 sec) 
Heartbeat CPU 7 instructions: 760000000 cycles: 938797417 heartbeat IPC: 0.897877 cumulative IPC: 0.78008 (Simulation time: 5 hr 34 min 40 sec) 
Heartbeat CPU 2 instructions: 620000000 cycles: 939698585 heartbeat IPC: 0.70795 cumulative IPC: 0.634246 (Simulation time: 5 hr 35 min 0 sec) 
Heartbeat CPU 3 instructions: 1050000003 cycles: 940517943 heartbeat IPC: 1.58028 cumulative IPC: 1.09977 (Simulation time: 5 hr 35 min 16 sec) 
Heartbeat CPU 6 instructions: 310000001 cycles: 940703103 heartbeat IPC: 0.333421 cumulative IPC: 0.303707 (Simulation time: 5 hr 35 min 20 sec) 
Heartbeat CPU 5 instructions: 700000000 cycles: 942187668 heartbeat IPC: 0.742631 cumulative IPC: 0.713105 (Simulation time: 5 hr 35 min 52 sec) 
Heartbeat CPU 3 instructions: 1060000000 cycles: 946997312 heartbeat IPC: 1.54336 cumulative IPC: 1.10285 (Simulation time: 5 hr 37 min 30 sec) 
Heartbeat CPU 1 instructions: 910000001 cycles: 948374945 heartbeat IPC: 1.0112 cumulative IPC: 0.943048 (Simulation time: 5 hr 37 min 58 sec) 
Heartbeat CPU 7 instructions: 770000000 cycles: 950607440 heartbeat IPC: 0.846738 cumulative IPC: 0.780921 (Simulation time: 5 hr 38 min 46 sec) 
Heartbeat CPU 3 instructions: 1070000003 cycles: 953523187 heartbeat IPC: 1.53236 cumulative IPC: 1.10584 (Simulation time: 5 hr 39 min 44 sec) 
Heartbeat CPU 2 instructions: 630000001 cycles: 953833261 heartbeat IPC: 0.70748 cumulative IPC: 0.635348 (Simulation time: 5 hr 39 min 50 sec) 
Heartbeat CPU 5 instructions: 710000002 cycles: 955452401 heartbeat IPC: 0.753879 cumulative IPC: 0.71368 (Simulation time: 5 hr 40 min 25 sec) 
Heartbeat CPU 1 instructions: 920000000 cycles: 958011536 heartbeat IPC: 1.03771 cumulative IPC: 0.944015 (Simulation time: 5 hr 41 min 19 sec) 
Heartbeat CPU 3 instructions: 1080000000 cycles: 960117070 heartbeat IPC: 1.51656 cumulative IPC: 1.1087 (Simulation time: 5 hr 42 min 2 sec) 
Heartbeat CPU 7 instructions: 780000000 cycles: 961232084 heartbeat IPC: 0.941208 cumulative IPC: 0.78272 (Simulation time: 5 hr 42 min 27 sec) 
Heartbeat CPU 4 instructions: 500000000 cycles: 961588683 heartbeat IPC: 0.429334 cumulative IPC: 0.493292 (Simulation time: 5 hr 42 min 35 sec) 
Heartbeat CPU 0 instructions: 120000000 cycles: 966201991 heartbeat IPC: 0.111444 cumulative IPC: 0.105108 (Simulation time: 5 hr 44 min 8 sec) 
Finished CPU 0 instructions: 100000001 cycles: 951399939 cumulative IPC: 0.105108 (Simulation time: 5 hr 44 min 8 sec) 

CPU 0 Branch Prediction Accuracy: 88.0545% MPKI: 14.1671

CPU 1 Branch Prediction Accuracy: 99.1449% MPKI: 0.213179

CPU 2 Branch Prediction Accuracy: 99.6054% MPKI: 0.0527957

CPU 3 Branch Prediction Accuracy: 99.207% MPKI: 0.380759

CPU 4 Branch Prediction Accuracy: 99.9993% MPKI: 0.000327066

CPU 5 Branch Prediction Accuracy: 96.634% MPKI: 2.96904

CPU 6 Branch Prediction Accuracy: 93.6582% MPKI: 11.7167

CPU 7 Branch Prediction Accuracy: 97.6742% MPKI: 1.97285

ChampSim completed all CPUs

Total Simulation Statistics (not including warmup)

CPU 0 cumulative IPC: 0.105108 instructions: 100000001 cycles: 951399939
L1D TOTAL     ACCESS:   39737070  HIT:   34492587  MISS:    5244483
L1D LOAD      ACCESS:   27068849  HIT:   23593718  MISS:    3475131
L1D RFO       ACCESS:   12668221  HIT:   10898869  MISS:    1769352
L1D PREFETCH  ACCESS:          0  HIT:          0  MISS:          0
L1D WRITEBACK ACCESS:          0  HIT:          0  MISS:          0
L1I TOTAL     ACCESS:   24645856  HIT:   24645842  MISS:         14
L1I LOAD      ACCESS:   24645856  HIT:   24645842  MISS:         14
L1I RFO       ACCESS:          0  HIT:          0  MISS:          0
L1I PREFETCH  ACCESS:          0  HIT:          0  MISS:          0
L1I WRITEBACK ACCESS:          0  HIT:          0  MISS:          0
L2C TOTAL     ACCESS:    8529904  HIT:    4714630  MISS:    3815274
L2C LOAD      ACCESS:    3475145  HIT:    1511273  MISS:    1963872
L2C RFO       ACCESS:    1769352  HIT:      93013  MISS:    1676339
L2C PREFETCH  ACCESS:     727656  HIT:     552707  MISS:     174949
L2C WRITEBACK ACCESS:    2557751  HIT:    2557637  MISS:        114
LLC TOTAL     ACCESS:    8570687  HIT:    3741343  MISS:    4829344
LLC LOAD      ACCESS:    1937899  HIT:     380035  MISS:    1557864
LLC RFO       ACCESS:    1676338  HIT:      48155  MISS:    1628183
LLC PREFETCH  ACCESS:    2493135  HIT:     911006  MISS:    1582129
LLC WRITEBACK ACCESS:    2463315  HIT:    2402147  MISS:      61168

CPU 1 cumulative IPC: 0.944741 instructions: 898826813 cycles: 951399940
L1D TOTAL     ACCESS:  272820291  HIT:  262848940  MISS:    9971351
L1D LOAD      ACCESS:  249671002  HIT:  242155017  MISS:    7515985
L1D RFO       ACCESS:   23149289  HIT:   20693923  MISS:    2455366
L1D PREFETCH  ACCESS:          0  HIT:          0  MISS:          0
L1D WRITEBACK ACCESS:          0  HIT:          0  MISS:          0
L1I TOTAL     ACCESS:  210674353  HIT:  210673697  MISS:        656
L1I LOAD      ACCESS:  210674353  HIT:  210673697  MISS:        656
L1I RFO       ACCESS:          0  HIT:          0  MISS:          0
L1I PREFETCH  ACCESS:          0  HIT:          0  MISS:          0
L1I WRITEBACK ACCESS:          0  HIT:          0  MISS:          0
L2C TOTAL     ACCESS:   21155584  HIT:   14010041  MISS:    7145543
L2C LOAD      ACCESS:    7516579  HIT:    4810843  MISS:    2705736
L2C RFO       ACCESS:    2454559  HIT:     852770  MISS:    1601789
L2C PREFETCH  ACCESS:    7944787  HIT:    5109269  MISS:    2835518
L2C WRITEBACK ACCESS:    3239659  HIT:    3237159  MISS:       2500
LLC TOTAL     ACCESS:   27439564  HIT:   21229115  MISS:    6210449
LLC LOAD      ACCESS:    2488796  HIT:    2284033  MISS:     204763
LLC RFO       ACCESS:    1601782  HIT:     157755  MISS:    1444027
LLC PREFETCH  ACCESS:   21254306  HIT:   16702933  MISS:    4551373
LLC WRITEBACK ACCESS:    2094680  HIT:    2084394  MISS:      10286

CPU 2 cumulative IPC: 0.636338 instructions: 605411450 cycles: 951399940
L1D TOTAL     ACCESS:  286560567  HIT:  276269913  MISS:   10290654
L1D LOAD      ACCESS:  242801792  HIT:  232511344  MISS:   10290448
L1D RFO       ACCESS:   43758775  HIT:   43758569  MISS:        206
L1D PREFETCH  ACCESS:          0  HIT:          0  MISS:          0
L1D WRITEBACK ACCESS:          0  HIT:          0  MISS:          0
[...]
L2C WRITEBACK ACCESS:    2715757  HIT:    2715165  MISS:        592
LLC TOTAL     ACCESS:   24429328  HIT:   13855319  MISS:   10574009
LLC LOAD      ACCESS:    5196464  HIT:    2437771  MISS:    2758693
LLC RFO       ACCESS:    1220038  HIT:       3005  MISS:    1217033
LLC PREFETCH  ACCESS:   15297072  HIT:    8699528  MISS:    6597544
LLC WRITEBACK ACCESS:    2715754  HIT:    2715015  MISS:        739

CPU 5 cumulative IPC: 0.715085 instructions: 680332198 cycles: 951399940
L1D TOTAL     ACCESS:  116463843  HIT:  105968588  MISS:   10495255
L1D LOAD      ACCESS:  104204194  HIT:   94087050  MISS:   10117144
L1D RFO       ACCESS:   12259649  HIT:   11881538  MISS:     378111
L1D PREFETCH  ACCESS:          0  HIT:          0  MISS:          0
L1D WRITEBACK ACCESS:          0  HIT:          0  MISS:          0
L1I TOTAL     ACCESS:  176426499  HIT:  176426122  MISS:        377
L1I LOAD      ACCESS:  176426499  HIT:  176426122  MISS:        377
L1I RFO       ACCESS:          0  HIT:          0  MISS:          0
L1I PREFETCH  ACCESS:          0  HIT:          0  MISS:          0
L1I WRITEBACK ACCESS:          0  HIT:          0  MISS:          0
L2C TOTAL     ACCESS:   15495265  HIT:    6659583  MISS:    8835682
L2C LOAD      ACCESS:   10117513  HIT:    4837205  MISS:    5280308
L2C RFO       ACCESS:     378088  HIT:      78018  MISS:     300070
L2C PREFETCH  ACCESS:    4306312  HIT:    1052266  MISS:    3254046
L2C WRITEBACK ACCESS:     693352  HIT:     692094  MISS:       1258
LLC TOTAL     ACCESS:   28232631  HIT:   19518913  MISS:    8713718
LLC LOAD      ACCESS:    4624697  HIT:    3388381  MISS:    1236316
LLC RFO       ACCESS:     300045  HIT:      56790  MISS:     243255
LLC PREFETCH  ACCESS:   22738696  HIT:   15507119  MISS:    7231577
LLC WRITEBACK ACCESS:     569193  HIT:     566623  MISS:       2570

CPU 6 cumulative IPC: 0.304673 instructions: 289865651 cycles: 951399940
L1D TOTAL     ACCESS:   60740068  HIT:   49567365  MISS:   11172703
L1D LOAD      ACCESS:   44347819  HIT:   35045950  MISS:    9301869
L1D RFO       ACCESS:   16392249  HIT:   14521415  MISS:    1870834
L1D PREFETCH  ACCESS:          0  HIT:          0  MISS:          0
L1D WRITEBACK ACCESS:          0  HIT:          0  MISS:          0
L1I TOTAL     ACCESS:   66283741  HIT:   66281805  MISS:       1936
L1I LOAD      ACCESS:   66283741  HIT:   66281805  MISS:       1936
L1I RFO       ACCESS:          0  HIT:          0  MISS:          0
L1I PREFETCH  ACCESS:          0  HIT:          0  MISS:          0
L1I WRITEBACK ACCESS:          0  HIT:          0  MISS:          0
L2C TOTAL     ACCESS:   18228668  HIT:    8744333  MISS:    9484335
L2C LOAD      ACCESS:    9302941  HIT:    2658952  MISS:    6643989
L2C RFO       ACCESS:    1870773  HIT:     146883  MISS:    1723890
L2C PREFETCH  ACCESS:    2276219  HIT:    1162296  MISS:    1113923
L2C WRITEBACK ACCESS:    4778735  HIT:    4776202  MISS:       2533
LLC TOTAL     ACCESS:   22645831  HIT:   14895152  MISS:    7750679
LLC LOAD      ACCESS:    6288679  HIT:    3576878  MISS:    2711801
LLC RFO       ACCESS:    1723863  HIT:     381958  MISS:    1341905
LLC PREFETCH  ACCESS:   10922538  HIT:    7235660  MISS:    3686878
LLC WRITEBACK ACCESS:    3710751  HIT:    3700656  MISS:      10095

CPU 7 cumulative IPC: 0.783197 instructions: 745133512 cycles: 951399940
L1D TOTAL     ACCESS:  124017630  HIT:  113355884  MISS:   10661746
L1D LOAD      ACCESS:  113530320  HIT:  103530911  MISS:    9999409
L1D RFO       ACCESS:   10487310  HIT:    9824973  MISS:     662337
L1D PREFETCH  ACCESS:          0  HIT:          0  MISS:          0
L1D WRITEBACK ACCESS:          0  HIT:          0  MISS:          0
L1I TOTAL     ACCESS:  199617530  HIT:  199616723  MISS:        807
L1I LOAD      ACCESS:  199617530  HIT:  199616723  MISS:        807
L1I RFO       ACCESS:          0  HIT:          0  MISS:          0
L1I PREFETCH  ACCESS:          0  HIT:          0  MISS:          0
L1I WRITEBACK ACCESS:          0  HIT:          0  MISS:          0
L2C TOTAL     ACCESS:   16542958  HIT:    7087435  MISS:    9455523
L2C LOAD      ACCESS:   10000206  HIT:    4631650  MISS:    5368556
L2C RFO       ACCESS:     662328  HIT:      61440  MISS:     600888
L2C PREFETCH  ACCESS:    5047681  HIT:    1563998  MISS:    3483683
L2C WRITEBACK ACCESS:     832743  HIT:     830347  MISS:       2396
LLC TOTAL     ACCESS:   31073714  HIT:   22385246  MISS:    8688468
LLC LOAD      ACCESS:    4601281  HIT:    3429297  MISS:    1171984
LLC RFO       ACCESS:     600885  HIT:     184340  MISS:     416545
LLC PREFETCH  ACCESS:   25124034  HIT:   18026170  MISS:    7097864
LLC WRITEBACK ACCESS:     747514  HIT:     745439  MISS:       2075

Region of Interest Statistics

CPU 0 cumulative IPC: 0.105108 instructions: 100000001 cycles: 951399939
L1D TOTAL     ACCESS:   39737070  HIT:   34492587  MISS:    5244483
L1D LOAD      ACCESS:   27068849  HIT:   23593718  MISS:    3475131
L1D RFO       ACCESS:   12668221  HIT:   10898869  MISS:    1769352
L1D PREFETCH  ACCESS:          0  HIT:          0  MISS:          0
L1D WRITEBACK ACCESS:          0  HIT:          0  MISS:          0
L1D PREFETCH  REQUESTED:          0  ISSUED:          0  USEFUL:          0  USELESS:          0
L1I TOTAL     ACCESS:   24645856  HIT:   24645842  MISS:         14
L1I LOAD      ACCESS:   24645856  HIT:   24645842  MISS:         14
L1I RFO       ACCESS:          0  HIT:          0  MISS:          0
L1I PREFETCH  ACCESS:          0  HIT:          0  MISS:          0
L1I WRITEBACK ACCESS:          0  HIT:          0  MISS:          0
L1I PREFETCH  REQUESTED:          0  ISSUED:          0  USEFUL:          0  USELESS:          0
L2C TOTAL     ACCESS:    8529904  HIT:    4714630  MISS:    3815274
L2C LOAD      ACCESS:    3475145  HIT:    1511273  MISS:    1963872
L2C RFO       ACCESS:    1769352  HIT:      93013  MISS:    1676339
L2C PREFETCH  ACCESS:     727656  HIT:     552707  MISS:     174949
L2C WRITEBACK ACCESS:    2557751  HIT:    2557637  MISS:        114
L2C PREFETCH  REQUESTED:    4172104  ISSUED:    4172104  USEFUL:     132319  USELESS:      86115
LLC TOTAL     ACCESS:    8570687  HIT:    3741343  MISS:    4829344
LLC LOAD      ACCESS:    1937899  HIT:     380035  MISS:    1557864
LLC RFO       ACCESS:    1676338  HIT:      48155  MISS:    1628183
LLC PREFETCH  ACCESS:    2493135  HIT:     911006  MISS:    1582129
LLC WRITEBACK ACCESS:    2463315  HIT:    2402147  MISS:      61168
LLC PREFETCH  REQUESTED:          0  ISSUED:          0  USEFUL:   18201835  USELESS:   29842471
Major fault: 0 Minor fault: 29959

CPU 1 cumulative IPC: 0.794311 instructions: 100000002 cycles: 125895300
L1D TOTAL     ACCESS:   28319408  HIT:   27024876  MISS:    1294532
L1D LOAD      ACCESS:   24308847  HIT:   23376656  MISS:     932191
L1D RFO       ACCESS:    4010561  HIT:    3648220  MISS:     362341
L1D PREFETCH  ACCESS:          0  HIT:          0  MISS:          0
L1D WRITEBACK ACCESS:          0  HIT:          0  MISS:          0
L1D PREFETCH  REQUESTED:          0  ISSUED:          0  USEFUL:          0  USELESS:          0
L1I TOTAL     ACCESS:   22109235  HIT:   22108949  MISS:        286
L1I LOAD      ACCESS:   22109235  HIT:   22108949  MISS:        286
L1I RFO       ACCESS:          0  HIT:          0  MISS:          0
L1I PREFETCH  ACCESS:          0  HIT:          0  MISS:          0
L1I WRITEBACK ACCESS:          0  HIT:          0  MISS:          0
L1I PREFETCH  REQUESTED:          0  ISSUED:          0  USEFUL:          0  USELESS:          0
L2C TOTAL     ACCESS:    2535073  HIT:    1432321  MISS:    1102752
L2C LOAD      ACCESS:     932477  HIT:     441348  MISS:     491129
L2C RFO       ACCESS:     362272  HIT:      58025  MISS:     304247
L2C PREFETCH  ACCESS:     695645  HIT:     388923  MISS:     306722
L2C WRITEBACK ACCESS:     544679  HIT:     544025  MISS:        654
L2C PREFETCH  REQUESTED:   30362546  ISSUED:   30355601  USEFUL:    2885923  USELESS:      35033
LLC TOTAL     ACCESS:    3612176  HIT:    2596194  MISS:    1015982
LLC LOAD      ACCESS:     410764  HIT:     351705  MISS:      59059
LLC RFO       ACCESS:     304241  HIT:      26150  MISS:     278091
LLC PREFETCH  ACCESS:    2419241  HIT:    1742052  MISS:     677189
LLC WRITEBACK ACCESS:     477930  HIT:     476287  MISS:       1643
LLC PREFETCH  REQUESTED:          0  ISSUED:          0  USEFUL:   18201835  USELESS:   29842471
Major fault: 0 Minor fault: 19164

CPU 2 cumulative IPC: 0.865021 instructions: 100000001 cycles: 115604170
L1D TOTAL     ACCESS:   32658485  HIT:   30198906  MISS:    2459579
L1D LOAD      ACCESS:   25471818  HIT:   23012239  MISS:    2459579
L1D RFO       ACCESS:    7186667  HIT:    7186667  MISS:          0
L1D PREFETCH  ACCESS:          0  HIT:          0  MISS:          0
L1D WRITEBACK ACCESS:          0  HIT:          0  MISS:          0
L1D PREFETCH  REQUESTED:          0  ISSUED:          0  USEFUL:          0  USELESS:          0
L1I TOTAL     ACCESS:   22277423  HIT:   22277423  MISS:          0
L1I LOAD      ACCESS:   22277423  HIT:   22277423  MISS:          0
L1I RFO       ACCESS:          0  HIT:          0  MISS:          0
L1I PREFETCH  ACCESS:          0  HIT:          0  MISS:          0
L1I WRITEBACK ACCESS:          0  HIT:          0  MISS:          0
L1I PREFETCH  REQUESTED:          0  ISSUED:          0  USEFUL:          0  USELESS:          0
L2C TOTAL     ACCESS:    4704334  HIT:    2192361  MISS:    2511973
L2C LOAD      ACCESS:    2459575  HIT:    1264804  MISS:    1194771
L2C RFO       ACCESS:          0  HIT:          0  MISS:          0
L2C PREFETCH  ACCESS:    1323313  HIT:       6306  MISS:    1317007
L2C WRITEBACK ACCESS:     921446  HIT:     921251  MISS:        195
L2C PREFETCH  REQUESTED:   41723208  ISSUED:   41678723  USEFUL:    4657457  USELESS:     242426
LLC TOTAL     ACCESS:   10643048  HIT:    8601570  MISS:    2041478
LLC LOAD      ACCESS:     992836  HIT:     900712  MISS:      92124
LLC RFO       ACCESS:          0  HIT:          0  MISS:          0
LLC PREFETCH  ACCESS:    8731630  HIT:    6782345  MISS:    1949285
LLC WRITEBACK ACCESS:     918582  HIT:     918513  MISS:         69
LLC PREFETCH  REQUESTED:          0  ISSUED:          0  USEFUL:   18201835  USELESS:   29842471
Major fault: 0 Minor fault: 160775

CPU 3 cumulative IPC: 1.02014 instructions: 100000002 cycles: 98025706
L1D TOTAL     ACCESS:   26253772  HIT:   25108997  MISS:    1144775
L1D LOAD      ACCESS:   22443575  HIT:   21629187  MISS:     814388
L1D RFO       ACCESS:    3810197  HIT:    3479810  MISS:     330387
L1D PREFETCH  ACCESS:          0  HIT:          0  MISS:          0
L1D WRITEBACK ACCESS:          0  HIT:          0  MISS:          0
L1D PREFETCH  REQUESTED:          0  ISSUED:          0  USEFUL:          0  USELESS:          0
L1I TOTAL     ACCESS:   23139532  HIT:   23139105  MISS:        427
L1I LOAD      ACCESS:   23139532  HIT:   23139105  MISS:        427
L1I RFO       ACCESS:          0  HIT:          0  MISS:          0
L1I PREFETCH  ACCESS:          0  HIT:          0  MISS:          0
L1I WRITEBACK ACCESS:          0  HIT:          0  MISS:          0
L1I PREFETCH  REQUESTED:          0  ISSUED:          0  USEFUL:          0  USELESS:          0
L2C TOTAL     ACCESS:    2658696  HIT:    1721667  MISS:     937029
L2C LOAD      ACCESS:     814813  HIT:     463218  MISS:     351595
L2C RFO       ACCESS:     330387  HIT:      33188  MISS:     297199
L2C PREFETCH  ACCESS:    1013368  HIT:     725198  MISS:     288170
L2C WRITEBACK ACCESS:     500128  HIT:     500063  MISS:         65
L2C PREFETCH  REQUESTED:   42871097  ISSUED:   42859128  USEFUL:    3646318  USELESS:      23701
LLC TOTAL     ACCESS:    3070792  HIT:    2129824  MISS:     940968
LLC LOAD      ACCESS:     280089  HIT:     233164  MISS:      46925
LLC RFO       ACCESS:     297197  HIT:       3961  MISS:     293236
LLC PREFETCH  ACCESS:    2063900  HIT:    1463828  MISS:     600072
LLC WRITEBACK ACCESS:     429606  HIT:     428871  MISS:        735
LLC PREFETCH  REQUESTED:          0  ISSUED:          0  USEFUL:   18201835  USELESS:   29842471
Major fault: 0 Minor fault: 26040

CPU 4 cumulative IPC: 0.447359 instructions: 100000001 cycles: 223534160
L1D TOTAL     ACCESS:   22446320  HIT:   20634983  MISS:    1811337
L1D LOAD      ACCESS:   11180413  HIT:    9552585  MISS:    1627828
L1D RFO       ACCESS:   11265907  HIT:   11082398  MISS:     183509
L1D PREFETCH  ACCESS:          0  HIT:          0  MISS:          0
L1D WRITEBACK ACCESS:          0  HIT:          0  MISS:          0
L1D PREFETCH  REQUESTED:          0  ISSUED:          0  USEFUL:          0  USELESS:          0
L1I TOTAL     ACCESS:   25842084  HIT:   25842072  MISS:         12
L1I LOAD      ACCESS:   25842084  HIT:   25842072  MISS:         12
L1I RFO       ACCESS:          0  HIT:          0  MISS:          0
L1I PREFETCH  ACCESS:          0  HIT:          0  MISS:          0
L1I WRITEBACK ACCESS:          0  HIT:          0  MISS:          0
L1I PREFETCH  REQUESTED:          0  ISSUED:          0  USEFUL:          0  USELESS:          0
L2C TOTAL     ACCESS:    2821614  HIT:     972761  MISS:    1848853
L2C LOAD      ACCESS:    1627840  HIT:     390606  MISS:    1237234
L2C RFO       ACCESS:     183509  HIT:          0  MISS:     183509
L2C PREFETCH  ACCESS:     428573  HIT:        825  MISS:     427748
L2C WRITEBACK ACCESS:     581692  HIT:     581330  MISS:        362
L2C PREFETCH  REQUESTED:   27043980  ISSUED:   27043980  USEFUL:    2161740  USELESS:     175351
LLC TOTAL     ACCESS:    5101689  HIT:    2958226  MISS:    2143463
LLC LOAD      ACCESS:    1039308  HIT:     491550  MISS:     547758
LLC RFO       ACCESS:     183509  HIT:         41  MISS:     183468
LLC PREFETCH  ACCESS:    3298404  HIT:    1886554  MISS:    1411850
LLC WRITEBACK ACCESS:     580468  HIT:     580081  MISS:        387
LLC PREFETCH  REQUESTED:          0  ISSUED:          0  USEFUL:   18201835  USELESS:   29842471
Major fault: 0 Minor fault: 95964

CPU 5 cumulative IPC: 0.65177 instructions: 100000003 cycles: 153428405
L1D TOTAL     ACCESS:   16624194  HIT:   15145728  MISS:    1478466
L1D LOAD      ACCESS:   15093825  HIT:   13687466  MISS:    1406359
L1D RFO       ACCESS:    1530369  HIT:    1458262  MISS:      72107
L1D PREFETCH  ACCESS:          0  HIT:          0  MISS:          0
L1D WRITEBACK ACCESS:          0  HIT:          0  MISS:          0
L1D PREFETCH  REQUESTED:          0  ISSUED:          0  USEFUL:          0  USELESS:          0
L1I TOTAL     ACCESS:   26381004  HIT:   26380924  MISS:         80
L1I LOAD      ACCESS:   26381004  HIT:   26380924  MISS:         80
L1I RFO       ACCESS:          0  HIT:          0  MISS:          0
L1I PREFETCH  ACCESS:          0  HIT:          0  MISS:          0
L1I WRITEBACK ACCESS:          0  HIT:          0  MISS:          0
L1I PREFETCH  REQUESTED:          0  ISSUED:          0  USEFUL:          0  USELESS:          0
L2C TOTAL     ACCESS:    2187482  HIT:     907206  MISS:    1280276
L2C LOAD      ACCESS:    1406438  HIT:     586798  MISS:     819640
L2C RFO       ACCESS:      72103  HIT:       8688  MISS:      63415
L2C PREFETCH  ACCESS:     615903  HIT:     218931  MISS:     396972
L2C WRITEBACK ACCESS:      93038  HIT:      92789  MISS:        249
L2C PREFETCH  REQUESTED:   33649559  ISSUED:   33649559  USEFUL:    3310355  USELESS:     147438
LLC TOTAL     ACCESS:    3830178  HIT:    2493256  MISS:    1336922
LLC LOAD      ACCESS:     665423  HIT:     473041  MISS:     192382
LLC RFO       ACCESS:      63403  HIT:      11671  MISS:      51732
LLC PREFETCH  ACCESS:    3020327  HIT:    1928025  MISS:    1092302
LLC WRITEBACK ACCESS:      81025  HIT:      80519  MISS:        506
LLC PREFETCH  REQUESTED:          0  ISSUED:          0  USEFUL:   18201835  USELESS:   29842471
Major fault: 0 Minor fault: 4436

CPU 6 cumulative IPC: 0.283537 instructions: 100000001 cycles: 352687113
L1D TOTAL     ACCESS:   20725061  HIT:   16895516  MISS:    3829545
L1D LOAD      ACCESS:   15133541  HIT:   11934354  MISS:    3199187
L1D RFO       ACCESS:    5591520  HIT:    4961162  MISS:     630358
L1D PREFETCH  ACCESS:          0  HIT:          0  MISS:          0
L1D WRITEBACK ACCESS:          0  HIT:          0  MISS:          0
L1D PREFETCH  REQUESTED:          0  ISSUED:          0  USEFUL:          0  USELESS:          0
L1I TOTAL     ACCESS:   22823042  HIT:   22822448  MISS:        594
L1I LOAD      ACCESS:   22823042  HIT:   22822448  MISS:        594
L1I RFO       ACCESS:          0  HIT:          0  MISS:          0
L1I PREFETCH  ACCESS:          0  HIT:          0  MISS:          0
L1I WRITEBACK ACCESS:          0  HIT:          0  MISS:          0
L1I PREFETCH  REQUESTED:          0  ISSUED:          0  USEFUL:          0  USELESS:          0
L2C TOTAL     ACCESS:    6237326  HIT:    2974310  MISS:    3263016
L2C LOAD      ACCESS:    3199485  HIT:     883716  MISS:    2315769
L2C RFO       ACCESS:     630331  HIT:      48053  MISS:     582278
L2C PREFETCH  ACCESS:     770439  HIT:     406343  MISS:     364096
L2C WRITEBACK ACCESS:    1637071  HIT:    1636198  MISS:        873
L2C PREFETCH  REQUESTED:   19102449  ISSUED:   19102446  USEFUL:    1095435  USELESS:     152929
LLC TOTAL     ACCESS:    7586759  HIT:    4792642  MISS:    2794117
LLC LOAD      ACCESS:    2159363  HIT:    1180116  MISS:     979247
LLC RFO       ACCESS:     582267  HIT:     114411  MISS:     467856
LLC PREFETCH  ACCESS:    3570258  HIT:    2227481  MISS:    1342777
LLC WRITEBACK ACCESS:    1274871  HIT:    1270634  MISS:       4237
LLC PREFETCH  REQUESTED:          0  ISSUED:          0  USEFUL:   18201835  USELESS:   29842471
Major fault: 0 Minor fault: 13277

CPU 7 cumulative IPC: 0.670264 instructions: 100000001 cycles: 149194897
L1D TOTAL     ACCESS:   16571573  HIT:   15133788  MISS:    1437785
L1D LOAD      ACCESS:   15114564  HIT:   13765497  MISS:    1349067
L1D RFO       ACCESS:    1457009  HIT:    1368291  MISS:      88718
L1D PREFETCH  ACCESS:          0  HIT:          0  MISS:          0
L1D WRITEBACK ACCESS:          0  HIT:          0  MISS:          0
L1D PREFETCH  REQUESTED:          0  ISSUED:          0  USEFUL:          0  USELESS:          0
L1I TOTAL     ACCESS:   26744394  HIT:   26744245  MISS:        149
L1I LOAD      ACCESS:   26744394  HIT:   26744245  MISS:        149
L1I RFO       ACCESS:          0  HIT:          0  MISS:          0
L1I PREFETCH  ACCESS:          0  HIT:          0  MISS:          0
L1I WRITEBACK ACCESS:          0  HIT:          0  MISS:          0
L1I PREFETCH  REQUESTED:          0  ISSUED:          0  USEFUL:          0  USELESS:          0
L2C TOTAL     ACCESS:    2154442  HIT:     884206  MISS:    1270236
L2C LOAD      ACCESS:    1349215  HIT:     554093  MISS:     795122
L2C RFO       ACCESS:      88717  HIT:       9047  MISS:      79670
L2C PREFETCH  ACCESS:     605798  HIT:     210681  MISS:     395117
L2C WRITEBACK ACCESS:     110712  HIT:     110385  MISS:        327
L2C PREFETCH  REQUESTED:   37530479  ISSUED:   37530383  USEFUL:    3572194  USELESS:     117197
LLC TOTAL     ACCESS:    3816060  HIT:    2520960  MISS:    1295100
LLC LOAD      ACCESS:     639202  HIT:     457703  MISS:     181499
LLC RFO       ACCESS:      79670  HIT:      14892  MISS:      64778
LLC PREFETCH  ACCESS:    2998653  HIT:    1950260  MISS:    1048393
LLC WRITEBACK ACCESS:      98535  HIT:      98105  MISS:        430
LLC PREFETCH  REQUESTED:          0  ISSUED:          0  USEFUL:   18201835  USELESS:   29842471
Major fault: 0 Minor fault: 2938

DRAM Statistics
 CHANNEL 0
 RQ ROW_BUFFER_HIT:   11322401  ROW_BUFFER_MISS:   21174750
 DBUS_CONGESTED:   62877319
 WQ ROW_BUFFER_HIT:     575650  ROW_BUFFER_MISS:    7985943  FULL:          0

 CHANNEL 1
 RQ ROW_BUFFER_HIT:   10139278  ROW_BUFFER_MISS:   20799391
 DBUS_CONGESTED:   62877319
 WQ ROW_BUFFER_HIT:     581455  ROW_BUFFER_MISS:    7964697  FULL:          0

 AVG_CONGESTED_CYCLE: 13
