Initialize SIGNATURE TABLE
ST_SET: 1
ST_WAY: 256
ST_TAG_BIT: 16
ST_TAG_MASK: ffff

Initialize PATTERN TABLE
PT_SET: 512
PT_WAY: 4
SIG_DELTA_BIT: 7
C_SIG_BIT: 4
C_DELTA_BIT: 4

Initialize PREFETCH FILTER
FILTER_SET: 1024

*** ChampSim Multicore Out-of-Order Simulator ***

Warmup Instructions: 20000000
Simulation Instructions: 100000000
Number of CPUs: 8
LLC sets: 16384
LLC ways: 16
Off-chip DRAM Size: 8192 MB Channels: 2 Width: 64-bit Data Rate: 1600 MT/s

CPU 0 runs /scratch/user/djimenez/champsim-traces/speccpu2006/xz/481.wrf-1170B.champsimtrace.xz
CPU 1 runs /scratch/user/djimenez/champsim-traces/speccpu2006/xz/403.gcc-48B.champsimtrace.xz
CPU 2 runs /scratch/user/djimenez/champsim-traces/speccpu2006/xz/434.zeusmp-10B.champsimtrace.xz
CPU 3 runs /scratch/user/djimenez/champsim-traces/speccpu2006/xz/433.milc-127B.champsimtrace.xz
CPU 4 runs /scratch/user/djimenez/champsim-traces/speccpu2006/xz/403.gcc-16B.champsimtrace.xz
CPU 5 runs /scratch/user/djimenez/champsim-traces/speccpu2006/xz/450.soplex-247B.champsimtrace.xz
CPU 6 runs /scratch/user/djimenez/champsim-traces/speccpu2006/xz/459.GemsFDTD-1320B.champsimtrace.xz
CPU 7 runs /scratch/user/djimenez/champsim-traces/speccpu2006/xz/482.sphinx3-1395B.champsimtrace.xz
Heartbeat CPU 7 instructions: 10000001 cycles: 3905659 heartbeat IPC: 2.56039 cumulative IPC: 2.56039 (Simulation time: 0 hr 3 min 2 sec) 
Heartbeat CPU 2 instructions: 10000003 cycles: 4295639 heartbeat IPC: 2.32794 cumulative IPC: 2.32794 (Simulation time: 0 hr 3 min 21 sec) 
Heartbeat CPU 3 instructions: 10000002 cycles: 4333749 heartbeat IPC: 2.30747 cumulative IPC: 2.30747 (Simulation time: 0 hr 3 min 22 sec) 
Heartbeat CPU 1 instructions: 10000001 cycles: 5486152 heartbeat IPC: 1.82277 cumulative IPC: 1.82277 (Simulation time: 0 hr 4 min 16 sec) 
Heartbeat CPU 5 instructions: 10000000 cycles: 6002528 heartbeat IPC: 1.66596 cumulative IPC: 1.66596 (Simulation time: 0 hr 4 min 39 sec) 
Heartbeat CPU 0 instructions: 10000001 cycles: 6135508 heartbeat IPC: 1.62986 cumulative IPC: 1.62986 (Simulation time: 0 hr 4 min 45 sec) 
Heartbeat CPU 6 instructions: 10000000 cycles: 6695128 heartbeat IPC: 1.49362 cumulative IPC: 1.49362 (Simulation time: 0 hr 5 min 13 sec) 
Heartbeat CPU 7 instructions: 20000000 cycles: 7852430 heartbeat IPC: 2.53372 cumulative IPC: 2.54698 (Simulation time: 0 hr 6 min 10 sec) 
Heartbeat CPU 4 instructions: 10000001 cycles: 8174914 heartbeat IPC: 1.22325 cumulative IPC: 1.22325 (Simulation time: 0 hr 6 min 26 sec) 
Heartbeat CPU 3 instructions: 20000000 cycles: 8660725 heartbeat IPC: 2.31108 cumulative IPC: 2.30928 (Simulation time: 0 hr 6 min 50 sec) 
Heartbeat CPU 2 instructions: 20000000 cycles: 8665301 heartbeat IPC: 2.28851 cumulative IPC: 2.30806 (Simulation time: 0 hr 6 min 50 sec) 
Heartbeat CPU 1 instructions: 20000000 cycles: 10965453 heartbeat IPC: 1.82505 cumulative IPC: 1.82391 (Simulation time: 0 hr 8 min 47 sec) 
Heartbeat CPU 5 instructions: 20000000 cycles: 11102988 heartbeat IPC: 1.96061 cumulative IPC: 1.80132 (Simulation time: 0 hr 8 min 54 sec) 
Heartbeat CPU 7 instructions: 30000000 cycles: 11712175 heartbeat IPC: 2.59084 cumulative IPC: 0.853812 (Simulation time: 0 hr 9 min 25 sec) 
Heartbeat CPU 0 instructions: 20000000 cycles: 12265113 heartbeat IPC: 1.63143 cumulative IPC: 1.63064 (Simulation time: 0 hr 9 min 52 sec) 
Heartbeat CPU 2 instructions: 30000001 cycles: 13034933 heartbeat IPC: 2.28852 cumulative IPC: 0.767169 (Simulation time: 0 hr 10 min 30 sec) 
Heartbeat CPU 6 instructions: 20000000 cycles: 13436747 heartbeat IPC: 1.48332 cumulative IPC: 1.48846 (Simulation time: 0 hr 10 min 51 sec) 
Heartbeat CPU 3 instructions: 30000000 cycles: 14124887 heartbeat IPC: 1.83011 cumulative IPC: 0.70797 (Simulation time: 0 hr 11 min 25 sec) 
Heartbeat CPU 7 instructions: 40000000 cycles: 15549181 heartbeat IPC: 2.6062 cumulative IPC: 1.28624 (Simulation time: 0 hr 12 min 37 sec) 
Heartbeat CPU 5 instructions: 30000001 cycles: 16167945 heartbeat IPC: 1.97435 cumulative IPC: 0.618508 (Simulation time: 0 hr 13 min 9 sec) 
Heartbeat CPU 4 instructions: 20000000 cycles: 16321465 heartbeat IPC: 1.22751 cumulative IPC: 1.22538 (Simulation time: 0 hr 13 min 15 sec) 

Warmup complete CPU 0 instructions: 26616754 cycles: 16321491 (Simulation time: 0 hr 13 min 15 sec) 
Warmup complete CPU 1 instructions: 29782019 cycles: 16321491 (Simulation time: 0 hr 13 min 15 sec) 
Warmup complete CPU 2 instructions: 37566083 cycles: 16321491 (Simulation time: 0 hr 13 min 15 sec) 
Warmup complete CPU 3 instructions: 34512163 cycles: 16321491 (Simulation time: 0 hr 13 min 15 sec) 
Warmup complete CPU 4 instructions: 20000004 cycles: 16321491 (Simulation time: 0 hr 13 min 15 sec) 
Warmup complete CPU 5 instructions: 30295680 cycles: 16321490 (Simulation time: 0 hr 13 min 15 sec) 
Warmup complete CPU 6 instructions: 24269443 cycles: 16321490 (Simulation time: 0 hr 13 min 15 sec) 
Warmup complete CPU 7 instructions: 42135629 cycles: 16321490 (Simulation time: 0 hr 13 min 15 sec) 

Heartbeat CPU 1 instructions: 30000001 cycles: 16637446 heartbeat IPC: 1.76305 cumulative IPC: 0.689915 (Simulation time: 0 hr 13 min 23 sec) 
Heartbeat CPU 2 instructions: 40000000 cycles: 18750766 heartbeat IPC: 1.74953 cumulative IPC: 1.00191 (Simulation time: 0 hr 14 min 18 sec) 
Heartbeat CPU 0 instructions: 30000003 cycles: 21510944 heartbeat IPC: 1.08157 cumulative IPC: 0.651947 (Simulation time: 0 hr 15 min 30 sec) 
Heartbeat CPU 6 instructions: 30000000 cycles: 24236607 heartbeat IPC: 0.925938 cumulative IPC: 0.724002 (Simulation time: 0 hr 16 min 40 sec) 
Heartbeat CPU 3 instructions: 40000000 cycles: 24613576 heartbeat IPC: 0.953408 cumulative IPC: 0.661816 (Simulation time: 0 hr 16 min 49 sec) 
Heartbeat CPU 4 instructions: 30000003 cycles: 25700279 heartbeat IPC: 1.06623 cumulative IPC: 1.06624 (Simulation time: 0 hr 17 min 17 sec) 
Heartbeat CPU 7 instructions: 50000001 cycles: 27162807 heartbeat IPC: 0.861058 cumulative IPC: 0.725407 (Simulation time: 0 hr 17 min 55 sec) 
Heartbeat CPU 2 instructions: 50000003 cycles: 28186143 heartbeat IPC: 1.05984 cumulative IPC: 1.04798 (Simulation time: 0 hr 18 min 22 sec) 
Heartbeat CPU 1 instructions: 40000000 cycles: 31359573 heartbeat IPC: 0.67925 cumulative IPC: 0.679474 (Simulation time: 0 hr 19 min 45 sec) 
Heartbeat CPU 4 instructions: 40000000 cycles: 35203454 heartbeat IPC: 1.05228 cumulative IPC: 1.05921 (Simulation time: 0 hr 21 min 26 sec) 
Heartbeat CPU 0 instructions: 40000000 cycles: 36746044 heartbeat IPC: 0.656379 cumulative IPC: 0.655253 (Simulation time: 0 hr 22 min 6 sec) 
Heartbeat CPU 6 instructions: 40000000 cycles: 37651325 heartbeat IPC: 0.74545 cumulative IPC: 0.737491 (Simulation time: 0 hr 22 min 31 sec) 
Heartbeat CPU 2 instructions: 60000000 cycles: 38167861 heartbeat IPC: 1.00183 cumulative IPC: 1.02689 (Simulation time: 0 hr 22 min 45 sec) 
Heartbeat CPU 3 instructions: 50000002 cycles: 39682448 heartbeat IPC: 0.66362 cumulative IPC: 0.66298 (Simulation time: 0 hr 23 min 25 sec) 
Heartbeat CPU 7 instructions: 60000000 cycles: 39782156 heartbeat IPC: 0.792434 cumulative IPC: 0.761461 (Simulation time: 0 hr 23 min 28 sec) 
Heartbeat CPU 4 instructions: 50000000 cycles: 45023634 heartbeat IPC: 1.01831 cumulative IPC: 1.04522 (Simulation time: 0 hr 25 min 36 sec) 
Heartbeat CPU 1 instructions: 50000003 cycles: 46068261 heartbeat IPC: 0.67987 cumulative IPC: 0.67967 (Simulation time: 0 hr 26 min 1 sec) 
Heartbeat CPU 5 instructions: 40000000 cycles: 46190289 heartbeat IPC: 0.333085 cumulative IPC: 0.324898 (Simulation time: 0 hr 26 min 4 sec) 
Heartbeat CPU 2 instructions: 70000000 cycles: 48337128 heartbeat IPC: 0.983355 cumulative IPC: 1.01306 (Simulation time: 0 hr 26 min 56 sec) 
Heartbeat CPU 0 instructions: 50000001 cycles: 52078930 heartbeat IPC: 0.652193 cumulative IPC: 0.653941 (Simulation time: 0 hr 28 min 26 sec) 
Heartbeat CPU 7 instructions: 70000000 cycles: 53255590 heartbeat IPC: 0.742201 cumulative IPC: 0.754435 (Simulation time: 0 hr 28 min 54 sec) 
Heartbeat CPU 4 instructions: 60000000 cycles: 54336660 heartbeat IPC: 1.07376 cumulative IPC: 1.05221 (Simulation time: 0 hr 29 min 19 sec) 
Heartbeat CPU 3 instructions: 60000000 cycles: 54628745 heartbeat IPC: 0.669062 cumulative IPC: 0.665353 (Simulation time: 0 hr 29 min 26 sec) 
Heartbeat CPU 2 instructions: 80000000 cycles: 58224259 heartbeat IPC: 1.01142 cumulative IPC: 1.01268 (Simulation time: 0 hr 30 min 52 sec) 
Heartbeat CPU 1 instructions: 60000000 cycles: 60740780 heartbeat IPC: 0.681546 cumulative IPC: 0.68029 (Simulation time: 0 hr 31 min 53 sec) 
Heartbeat CPU 6 instructions: 50000000 cycles: 63534128 heartbeat IPC: 0.386357 cumulative IPC: 0.544993 (Simulation time: 0 hr 32 min 59 sec) 
Heartbeat CPU 4 instructions: 70000000 cycles: 63789369 heartbeat IPC: 1.0579 cumulative IPC: 1.05334 (Simulation time: 0 hr 33 min 6 sec) 
Heartbeat CPU 0 instructions: 60000000 cycles: 67387851 heartbeat IPC: 0.653214 cumulative IPC: 0.653723 (Simulation time: 0 hr 34 min 32 sec) 
Heartbeat CPU 2 instructions: 90000001 cycles: 67791691 heartbeat IPC: 1.04521 cumulative IPC: 1.01872 (Simulation time: 0 hr 34 min 42 sec) 
Heartbeat CPU 7 instructions: 80000000 cycles: 68372699 heartbeat IPC: 0.661502 cumulative IPC: 0.727445 (Simulation time: 0 hr 34 min 57 sec) 
Heartbeat CPU 3 instructions: 70000000 cycles: 70611818 heartbeat IPC: 0.625662 cumulative IPC: 0.653668 (Simulation time: 0 hr 35 min 50 sec) 
Heartbeat CPU 4 instructions: 80000000 cycles: 73416766 heartbeat IPC: 1.0387 cumulative IPC: 1.05087 (Simulation time: 0 hr 36 min 57 sec) 
Heartbeat CPU 1 instructions: 70000001 cycles: 75461965 heartbeat IPC: 0.679293 cumulative IPC: 0.680042 (Simulation time: 0 hr 37 min 46 sec) 
Heartbeat CPU 2 instructions: 100000000 cycles: 77478581 heartbeat IPC: 1.03232 cumulative IPC: 1.02088 (Simulation time: 0 hr 38 min 36 sec) 
Heartbeat CPU 5 instructions: 50000001 cycles: 78074242 heartbeat IPC: 0.313637 cumulative IPC: 0.319084 (Simulation time: 0 hr 38 min 50 sec) 
Heartbeat CPU 7 instructions: 90000000 cycles: 81673901 heartbeat IPC: 0.751812 cumulative IPC: 0.732404 (Simulation time: 0 hr 40 min 18 sec) 
Heartbeat CPU 0 instructions: 70000000 cycles: 82623109 heartbeat IPC: 0.656372 cumulative IPC: 0.654332 (Simulation time: 0 hr 40 min 41 sec) 
Heartbeat CPU 4 instructions: 90000000 cycles: 82823788 heartbeat IPC: 1.06304 cumulative IPC: 1.0526 (Simulation time: 0 hr 40 min 46 sec) 
Heartbeat CPU 3 instructions: 80000000 cycles: 86706934 heartbeat IPC: 0.621306 cumulative IPC: 0.646268 (Simulation time: 0 hr 42 min 19 sec) 
Heartbeat CPU 2 instructions: 110000001 cycles: 87056492 heartbeat IPC: 1.04407 cumulative IPC: 1.02402 (Simulation time: 0 hr 42 min 27 sec) 
Heartbeat CPU 1 instructions: 80000000 cycles: 90125904 heartbeat IPC: 0.681945 cumulative IPC: 0.68042 (Simulation time: 0 hr 43 min 42 sec) 
Heartbeat CPU 4 instructions: 100000000 cycles: 92459262 heartbeat IPC: 1.03783 cumulative IPC: 1.05073 (Simulation time: 0 hr 44 min 39 sec) 
Heartbeat CPU 7 instructions: 100000000 cycles: 94165877 heartbeat IPC: 0.800514 cumulative IPC: 0.743334 (Simulation time: 0 hr 45 min 22 sec) 
Heartbeat CPU 6 instructions: 60000000 cycles: 94564965 heartbeat IPC: 0.32226 cumulative IPC: 0.456659 (Simulation time: 0 hr 45 min 31 sec) 
Heartbeat CPU 2 instructions: 120000000 cycles: 96608643 heartbeat IPC: 1.04688 cumulative IPC: 1.02674 (Simulation time: 0 hr 46 min 21 sec) 
Heartbeat CPU 0 instructions: 80000000 cycles: 97880399 heartbeat IPC: 0.655424 cumulative IPC: 0.654536 (Simulation time: 0 hr 46 min 54 sec) 
Heartbeat CPU 4 instructions: 110000003 cycles: 101863599 heartbeat IPC: 1.06334 cumulative IPC: 1.05211 (Simulation time: 0 hr 48 min 29 sec) 
Heartbeat CPU 3 instructions: 90000002 cycles: 102512355 heartbeat IPC: 0.632694 cumulative IPC: 0.643779 (Simulation time: 0 hr 48 min 44 sec) 
Heartbeat CPU 1 instructions: 90000001 cycles: 104894551 heartbeat IPC: 0.67711 cumulative IPC: 0.679868 (Simulation time: 0 hr 49 min 41 sec) 
Heartbeat CPU 2 instructions: 130000001 cycles: 106333079 heartbeat IPC: 1.02834 cumulative IPC: 1.02691 (Simulation time: 0 hr 50 min 16 sec) 
Heartbeat CPU 7 instructions: 110000000 cycles: 107765102 heartbeat IPC: 0.735336 cumulative IPC: 0.742144 (Simulation time: 0 hr 50 min 51 sec) 
Heartbeat CPU 5 instructions: 60000000 cycles: 110588628 heartbeat IPC: 0.307556 cumulative IPC: 0.315108 (Simulation time: 0 hr 51 min 57 sec) 
Heartbeat CPU 4 instructions: 120000000 cycles: 111449775 heartbeat IPC: 1.04317 cumulative IPC: 1.05121 (Simulation time: 0 hr 52 min 17 sec) 
Finished CPU 4 instructions: 100000000 cycles: 95128293 cumulative IPC: 1.05121 (Simulation time: 0 hr 52 min 17 sec) 
Heartbeat CPU 0 instructions: 90000001 cycles: 113163805 heartbeat IPC: 0.654305 cumulative IPC: 0.6545 (Simulation time: 0 hr 52 min 54 sec) 
Finished CPU 2 instructions: 100000001 cycles: 97178821 cumulative IPC: 1.02903 (Simulation time: 0 hr 53 min 2 sec) 
Heartbeat CPU 2 instructions: 140000000 cycles: 115743015 heartbeat IPC: 1.06271 cumulative IPC: 1.0303 (Simulation time: 0 hr 53 min 53 sec) 
Heartbeat CPU 1 instructions: 100000000 cycles: 119580427 heartbeat IPC: 0.680926 cumulative IPC: 0.680018 (Simulation time: 0 hr 55 min 24 sec) 
Heartbeat CPU 4 instructions: 130000001 cycles: 120802563 heartbeat IPC: 1.0692 cumulative IPC: 1.05282 (Simulation time: 0 hr 55 min 53 sec) 
Heartbeat CPU 6 instructions: 70000003 cycles: 121402946 heartbeat IPC: 0.372606 cumulative IPC: 0.435192 (Simulation time: 0 hr 56 min 7 sec) 
Heartbeat CPU 7 instructions: 120000000 cycles: 122346809 heartbeat IPC: 0.685791 cumulative IPC: 0.734394 (Simulation time: 0 hr 56 min 31 sec) 
Heartbeat CPU 2 instructions: 150000000 cycles: 125425276 heartbeat IPC: 1.03282 cumulative IPC: 1.03052 (Simulation time: 0 hr 57 min 47 sec) 
Heartbeat CPU 0 instructions: 100000000 cycles: 128448359 heartbeat IPC: 0.654255 cumulative IPC: 0.654466 (Simulation time: 0 hr 59 min 2 sec) 
Heartbeat CPU 4 instructions: 140000000 cycles: 130488178 heartbeat IPC: 1.03246 cumulative IPC: 1.05109 (Simulation time: 0 hr 59 min 51 sec) 
Heartbeat CPU 3 instructions: 100000000 cycles: 133145973 heartbeat IPC: 0.326439 cumulative IPC: 0.560566 (Simulation time: 1 hr 0 min 53 sec) 
Heartbeat CPU 1 instructions: 110000002 cycles: 134220267 heartbeat IPC: 0.683068 cumulative IPC: 0.680397 (Simulation time: 1 hr 1 min 18 sec) 
Heartbeat CPU 7 instructions: 130000001 cycles: 135059451 heartbeat IPC: 0.786619 cumulative IPC: 0.739986 (Simulation time: 1 hr 1 min 37 sec) 
Heartbeat CPU 2 instructions: 160000000 cycles: 135420048 heartbeat IPC: 1.00052 cumulative IPC: 1.02801 (Simulation time: 1 hr 1 min 45 sec) 
Heartbeat CPU 6 instructions: 80000000 cycles: 136838956 heartbeat IPC: 0.647836 cumulative IPC: 0.462427 (Simulation time: 1 hr 2 min 18 sec) 
Heartbeat CPU 4 instructions: 150000003 cycles: 139923781 heartbeat IPC: 1.05982 cumulative IPC: 1.05176 (Simulation time: 1 hr 3 min 34 sec) 
Heartbeat CPU 0 instructions: 110000001 cycles: 143678940 heartbeat IPC: 0.656574 cumulative IPC: 0.654718 (Simulation time: 1 hr 5 min 7 sec) 
Heartbeat CPU 2 instructions: 170000001 cycles: 144792063 heartbeat IPC: 1.06701 cumulative IPC: 1.03085 (Simulation time: 1 hr 5 min 34 sec) 
Heartbeat CPU 5 instructions: 70000000 cycles: 146130432 heartbeat IPC: 0.281359 cumulative IPC: 0.305867 (Simulation time: 1 hr 6 min 7 sec) 
Heartbeat CPU 7 instructions: 140000000 cycles: 146508659 heartbeat IPC: 0.873423 cumulative IPC: 0.751721 (Simulation time: 1 hr 6 min 16 sec) 
Finished CPU 7 instructions: 100000000 cycles: 132524062 cumulative IPC: 0.75458 (Simulation time: 1 hr 7 min 14 sec) 
Heartbeat CPU 1 instructions: 120000000 cycles: 148950682 heartbeat IPC: 0.678867 cumulative IPC: 0.680227 (Simulation time: 1 hr 7 min 16 sec) 
Heartbeat CPU 4 instructions: 160000000 cycles: 150086726 heartbeat IPC: 0.983966 cumulative IPC: 1.04661 (Simulation time: 1 hr 7 min 45 sec) 
Heartbeat CPU 6 instructions: 90000000 cycles: 151402701 heartbeat IPC: 0.686637 cumulative IPC: 0.4866 (Simulation time: 1 hr 8 min 17 sec) 
Heartbeat CPU 2 instructions: 180000000 cycles: 154347343 heartbeat IPC: 1.04654 cumulative IPC: 1.03194 (Simulation time: 1 hr 9 min 29 sec) 
Heartbeat CPU 7 instructions: 150000000 cycles: 158740619 heartbeat IPC: 0.81753 cumulative IPC: 0.757373 (Simulation time: 1 hr 11 min 20 sec) 
Heartbeat CPU 0 instructions: 120000000 cycles: 158922022 heartbeat IPC: 0.656035 cumulative IPC: 0.654859 (Simulation time: 1 hr 11 min 25 sec) 
Heartbeat CPU 4 instructions: 170000001 cycles: 159528964 heartbeat IPC: 1.05907 cumulative IPC: 1.04743 (Simulation time: 1 hr 11 min 41 sec) 
Heartbeat CPU 3 instructions: 110000001 cycles: 162065333 heartbeat IPC: 0.345789 cumulative IPC: 0.517949 (Simulation time: 1 hr 12 min 46 sec) 
Finished CPU 1 instructions: 100000000 cycles: 147045704 cumulative IPC: 0.680061 (Simulation time: 1 hr 13 min 18 sec) 
Heartbeat CPU 1 instructions: 130000003 cycles: 163689396 heartbeat IPC: 0.678485 cumulative IPC: 0.680053 (Simulation time: 1 hr 13 min 26 sec) 
Heartbeat CPU 2 instructions: 190000003 cycles: 164195174 heartbeat IPC: 1.01545 cumulative IPC: 1.03084 (Simulation time: 1 hr 13 min 39 sec) 
Heartbeat CPU 6 instructions: 100000000 cycles: 164989254 heartbeat IPC: 0.736022 cumulative IPC: 0.509395 (Simulation time: 1 hr 14 min 0 sec) 
Finished CPU 0 instructions: 100000003 cycles: 152658262 cumulative IPC: 0.655058 (Simulation time: 1 hr 15 min 41 sec) 
Heartbeat CPU 4 instructions: 180000000 cycles: 169338592 heartbeat IPC: 1.01941 cumulative IPC: 1.04563 (Simulation time: 1 hr 15 min 50 sec) 
Heartbeat CPU 7 instructions: 160000000 cycles: 170379630 heartbeat IPC: 0.85918 cumulative IPC: 0.765064 (Simulation time: 1 hr 16 min 17 sec) 
Heartbeat CPU 2 instructions: 200000000 cycles: 173485680 heartbeat IPC: 1.07637 cumulative IPC: 1.03353 (Simulation time: 1 hr 17 min 36 sec) 
Heartbeat CPU 0 instructions: 130000000 cycles: 174152797 heartbeat IPC: 0.656565 cumulative IPC: 0.655024 (Simulation time: 1 hr 17 min 52 sec) 
Heartbeat CPU 6 instructions: 110000002 cycles: 178113809 heartbeat IPC: 0.761931 cumulative IPC: 0.52988 (Simulation time: 1 hr 19 min 30 sec) 
Heartbeat CPU 1 instructions: 140000000 cycles: 178402895 heartbeat IPC: 0.679648 cumulative IPC: 0.680016 (Simulation time: 1 hr 19 min 37 sec) 
Heartbeat CPU 5 instructions: 80000000 cycles: 178982780 heartbeat IPC: 0.304392 cumulative IPC: 0.305569 (Simulation time: 1 hr 19 min 53 sec) 
Heartbeat CPU 4 instructions: 190000000 cycles: 179132693 heartbeat IPC: 1.02102 cumulative IPC: 1.04415 (Simulation time: 1 hr 19 min 57 sec) 
Heartbeat CPU 7 instructions: 170000003 cycles: 181932804 heartbeat IPC: 0.865563 cumulative IPC: 0.772075 (Simulation time: 1 hr 21 min 7 sec) 
Heartbeat CPU 2 instructions: 210000000 cycles: 182962711 heartbeat IPC: 1.05518 cumulative IPC: 1.03476 (Simulation time: 1 hr 21 min 34 sec) 
Heartbeat CPU 3 instructions: 120000000 cycles: 188998803 heartbeat IPC: 0.371285 cumulative IPC: 0.495073 (Simulation time: 1 hr 24 min 8 sec) 
Heartbeat CPU 4 instructions: 200000000 cycles: 189334253 heartbeat IPC: 0.980242 cumulative IPC: 1.04039 (Simulation time: 1 hr 24 min 17 sec) 
Heartbeat CPU 0 instructions: 140000000 cycles: 189343998 heartbeat IPC: 0.658276 cumulative IPC: 0.655309 (Simulation time: 1 hr 24 min 17 sec) 
Heartbeat CPU 6 instructions: 120000000 cycles: 191174502 heartbeat IPC: 0.765656 cumulative IPC: 0.547492 (Simulation time: 1 hr 25 min 4 sec) 
Heartbeat CPU 2 instructions: 220000000 cycles: 192620673 heartbeat IPC: 1.03542 cumulative IPC: 1.0348 (Simulation time: 1 hr 25 min 38 sec) 
Heartbeat CPU 1 instructions: 150000001 cycles: 193101145 heartbeat IPC: 0.680353 cumulative IPC: 0.680044 (Simulation time: 1 hr 25 min 50 sec) 
Heartbeat CPU 7 instructions: 180000000 cycles: 194130641 heartbeat IPC: 0.819817 cumulative IPC: 0.77535 (Simulation time: 1 hr 26 min 15 sec) 
Finished CPU 6 instructions: 100000001 cycles: 180948591 cumulative IPC: 0.552643 (Simulation time: 1 hr 27 min 28 sec) 
Heartbeat CPU 4 instructions: 210000000 cycles: 199784332 heartbeat IPC: 0.956931 cumulative IPC: 1.03563 (Simulation time: 1 hr 28 min 28 sec) 
Heartbeat CPU 2 instructions: 230000001 cycles: 202080950 heartbeat IPC: 1.05705 cumulative IPC: 1.03593 (Simulation time: 1 hr 29 min 22 sec) 
Heartbeat CPU 0 instructions: 150000003 cycles: 204551919 heartbeat IPC: 0.657552 cumulative IPC: 0.65549 (Simulation time: 1 hr 30 min 19 sec) 
Heartbeat CPU 6 instructions: 130000002 cycles: 205184626 heartbeat IPC: 0.71377 cumulative IPC: 0.559826 (Simulation time: 1 hr 30 min 33 sec) 
Heartbeat CPU 1 instructions: 160000000 cycles: 207839773 heartbeat IPC: 0.678489 cumulative IPC: 0.679925 (Simulation time: 1 hr 31 min 33 sec) 
Heartbeat CPU 7 instructions: 190000003 cycles: 209517034 heartbeat IPC: 0.649925 cumulative IPC: 0.765361 (Simulation time: 1 hr 32 min 10 sec) 
Heartbeat CPU 4 instructions: 220000000 cycles: 209978420 heartbeat IPC: 0.980961 cumulative IPC: 1.03275 (Simulation time: 1 hr 32 min 21 sec) 
Heartbeat CPU 2 instructions: 240000000 cycles: 211746063 heartbeat IPC: 1.03465 cumulative IPC: 1.03587 (Simulation time: 1 hr 33 min 4 sec) 
Heartbeat CPU 5 instructions: 90000000 cycles: 214317023 heartbeat IPC: 0.283012 cumulative IPC: 0.301544 (Simulation time: 1 hr 34 min 6 sec) 
Heartbeat CPU 4 instructions: 230000002 cycles: 219595644 heartbeat IPC: 1.0398 cumulative IPC: 1.03309 (Simulation time: 1 hr 36 min 5 sec) 
Heartbeat CPU 0 instructions: 160000000 cycles: 219898454 heartbeat IPC: 0.651613 cumulative IPC: 0.655198 (Simulation time: 1 hr 36 min 13 sec) 
Heartbeat CPU 3 instructions: 130000002 cycles: 220620730 heartbeat IPC: 0.316236 cumulative IPC: 0.467392 (Simulation time: 1 hr 36 min 29 sec) 
Heartbeat CPU 6 instructions: 140000000 cycles: 221210296 heartbeat IPC: 0.623999 cumulative IPC: 0.564846 (Simulation time: 1 hr 36 min 43 sec) 
Heartbeat CPU 2 instructions: 250000003 cycles: 221939272 heartbeat IPC: 0.981046 cumulative IPC: 1.03315 (Simulation time: 1 hr 36 min 59 sec) 
Heartbeat CPU 1 instructions: 170000002 cycles: 222569085 heartbeat IPC: 0.678918 cumulative IPC: 0.679853 (Simulation time: 1 hr 37 min 14 sec) 
Heartbeat CPU 7 instructions: 200000000 cycles: 228812514 heartbeat IPC: 0.518256 cumulative IPC: 0.742923 (Simulation time: 1 hr 39 min 37 sec) 
Heartbeat CPU 4 instructions: 240000000 cycles: 229332691 heartbeat IPC: 1.02701 cumulative IPC: 1.03281 (Simulation time: 1 hr 39 min 49 sec) 
Heartbeat CPU 2 instructions: 260000000 cycles: 231766909 heartbeat IPC: 1.01754 cumulative IPC: 1.03244 (Simulation time: 1 hr 40 min 44 sec) 
Heartbeat CPU 0 instructions: 170000001 cycles: 235173773 heartbeat IPC: 0.654651 cumulative IPC: 0.65516 (Simulation time: 1 hr 42 min 2 sec) 
Finished CPU 3 instructions: 100000000 cycles: 220431931 cumulative IPC: 0.453655 (Simulation time: 1 hr 42 min 38 sec) 
Heartbeat CPU 6 instructions: 150000002 cycles: 236771853 heartbeat IPC: 0.642609 cumulative IPC: 0.570335 (Simulation time: 1 hr 42 min 39 sec) 
Heartbeat CPU 1 instructions: 180000000 cycles: 237316174 heartbeat IPC: 0.6781 cumulative IPC: 0.679736 (Simulation time: 1 hr 42 min 51 sec) 
Heartbeat CPU 4 instructions: 250000001 cycles: 239023551 heartbeat IPC: 1.0319 cumulative IPC: 1.03277 (Simulation time: 1 hr 43 min 30 sec) 
Heartbeat CPU 2 instructions: 270000000 cycles: 241476281 heartbeat IPC: 1.02993 cumulative IPC: 1.03233 (Simulation time: 1 hr 44 min 26 sec) 
Heartbeat CPU 7 instructions: 210000000 cycles: 247039597 heartbeat IPC: 0.548634 cumulative IPC: 0.727573 (Simulation time: 1 hr 46 min 24 sec) 
Heartbeat CPU 4 instructions: 260000000 cycles: 248775130 heartbeat IPC: 1.02547 cumulative IPC: 1.03246 (Simulation time: 1 hr 47 min 5 sec) 
Heartbeat CPU 0 instructions: 180000000 cycles: 250399615 heartbeat IPC: 0.656778 cumulative IPC: 0.655265 (Simulation time: 1 hr 47 min 40 sec) 
Heartbeat CPU 2 instructions: 280000000 cycles: 251712882 heartbeat IPC: 0.976887 cumulative IPC: 1.02992 (Simulation time: 1 hr 48 min 7 sec) 
Heartbeat CPU 1 instructions: 190000002 cycles: 252016864 heartbeat IPC: 0.68024 cumulative IPC: 0.679767 (Simulation time: 1 hr 48 min 14 sec) 
Heartbeat CPU 5 instructions: 100000000 cycles: 252742727 heartbeat IPC: 0.260242 cumulative IPC: 0.294831 (Simulation time: 1 hr 48 min 31 sec) 
Heartbeat CPU 6 instructions: 160000000 cycles: 253118306 heartbeat IPC: 0.611753 cumulative IPC: 0.573194 (Simulation time: 1 hr 48 min 40 sec) 
Heartbeat CPU 3 instructions: 140000000 cycles: 257384957 heartbeat IPC: 0.272004 cumulative IPC: 0.437594 (Simulation time: 1 hr 50 min 10 sec) 
Heartbeat CPU 4 instructions: 270000002 cycles: 258432103 heartbeat IPC: 1.03552 cumulative IPC: 1.03259 (Simulation time: 1 hr 50 min 31 sec) 
Heartbeat CPU 2 instructions: 290000003 cycles: 261506358 heartbeat IPC: 1.02109 cumulative IPC: 1.02957 (Simulation time: 1 hr 51 min 36 sec) 
Heartbeat CPU 0 instructions: 190000003 cycles: 265717071 heartbeat IPC: 0.65285 cumulative IPC: 0.655117 (Simulation time: 1 hr 53 min 7 sec) 
Heartbeat CPU 7 instructions: 220000000 cycles: 266515463 heartbeat IPC: 0.513456 cumulative IPC: 0.710906 (Simulation time: 1 hr 53 min 23 sec) 
Heartbeat CPU 1 instructions: 200000000 cycles: 266764206 heartbeat IPC: 0.678088 cumulative IPC: 0.679668 (Simulation time: 1 hr 53 min 29 sec) 
Heartbeat CPU 4 instructions: 280000000 cycles: 268277205 heartbeat IPC: 1.01573 cumulative IPC: 1.03193 (Simulation time: 1 hr 54 min 1 sec) 
Heartbeat CPU 6 instructions: 170000003 cycles: 269242641 heartbeat IPC: 0.620181 cumulative IPC: 0.57619 (Simulation time: 1 hr 54 min 22 sec) 
Heartbeat CPU 2 instructions: 300000000 cycles: 271309137 heartbeat IPC: 1.02012 cumulative IPC: 1.0292 (Simulation time: 1 hr 55 min 5 sec) 
Heartbeat CPU 4 instructions: 290000002 cycles: 277983641 heartbeat IPC: 1.03024 cumulative IPC: 1.03186 (Simulation time: 1 hr 57 min 26 sec) 
Heartbeat CPU 0 instructions: 200000000 cycles: 280960744 heartbeat IPC: 0.65601 cumulative IPC: 0.655168 (Simulation time: 1 hr 58 min 27 sec) 
Heartbeat CPU 2 instructions: 310000003 cycles: 281285467 heartbeat IPC: 1.00237 cumulative IPC: 1.02819 (Simulation time: 1 hr 58 min 34 sec) 
Heartbeat CPU 1 instructions: 210000001 cycles: 281576306 heartbeat IPC: 0.675124 cumulative IPC: 0.679415 (Simulation time: 1 hr 58 min 41 sec) 
Heartbeat CPU 7 instructions: 230000001 cycles: 284796712 heartbeat IPC: 0.547009 cumulative IPC: 0.699746 (Simulation time: 1 hr 59 min 52 sec) 
Heartbeat CPU 6 instructions: 180000000 cycles: 285024090 heartbeat IPC: 0.633655 cumulative IPC: 0.579565 (Simulation time: 1 hr 59 min 57 sec) 
Heartbeat CPU 4 instructions: 300000000 cycles: 287522768 heartbeat IPC: 1.04831 cumulative IPC: 1.03244 (Simulation time: 2 hr 0 min 49 sec) 
Heartbeat CPU 2 instructions: 320000000 cycles: 290966750 heartbeat IPC: 1.03292 cumulative IPC: 1.02836 (Simulation time: 2 hr 2 min 0 sec) 
Heartbeat CPU 3 instructions: 150000003 cycles: 293681446 heartbeat IPC: 0.275509 cumulative IPC: 0.416383 (Simulation time: 2 hr 2 min 59 sec) 
Heartbeat CPU 0 instructions: 210000002 cycles: 296200407 heartbeat IPC: 0.656183 cumulative IPC: 0.655223 (Simulation time: 2 hr 3 min 52 sec) 
Heartbeat CPU 1 instructions: 220000000 cycles: 296349172 heartbeat IPC: 0.676917 cumulative IPC: 0.679283 (Simulation time: 2 hr 3 min 55 sec) 
Heartbeat CPU 4 instructions: 310000000 cycles: 297122482 heartbeat IPC: 1.0417 cumulative IPC: 1.03276 (Simulation time: 2 hr 4 min 12 sec) 
Heartbeat CPU 5 instructions: 110000001 cycles: 297683862 heartbeat IPC: 0.222513 cumulative IPC: 0.28328 (Simulation time: 2 hr 4 min 24 sec) 
Heartbeat CPU 2 instructions: 330000003 cycles: 300643626 heartbeat IPC: 1.03339 cumulative IPC: 1.02853 (Simulation time: 2 hr 5 min 28 sec) 
Heartbeat CPU 6 instructions: 190000000 cycles: 300848938 heartbeat IPC: 0.631918 cumulative IPC: 0.582476 (Simulation time: 2 hr 5 min 33 sec) 
Heartbeat CPU 7 instructions: 240000000 cycles: 304014719 heartbeat IPC: 0.520345 cumulative IPC: 0.687762 (Simulation time: 2 hr 6 min 46 sec) 
Heartbeat CPU 4 instructions: 320000000 cycles: 307110703 heartbeat IPC: 1.00118 cumulative IPC: 1.03168 (Simulation time: 2 hr 7 min 56 sec) 
Heartbeat CPU 2 instructions: 340000000 cycles: 310642378 heartbeat IPC: 1.00012 cumulative IPC: 1.02757 (Simulation time: 2 hr 9 min 15 sec) 
Heartbeat CPU 1 instructions: 230000002 cycles: 311160367 heartbeat IPC: 0.675165 cumulative IPC: 0.679076 (Simulation time: 2 hr 9 min 26 sec) 
Heartbeat CPU 0 instructions: 220000000 cycles: 311526258 heartbeat IPC: 0.652492 cumulative IPC: 0.655082 (Simulation time: 2 hr 9 min 34 sec) 
Heartbeat CPU 3 instructions: 160000000 cycles: 315332810 heartbeat IPC: 0.461865 cumulative IPC: 0.419676 (Simulation time: 2 hr 10 min 57 sec) 
Heartbeat CPU 6 instructions: 200000000 cycles: 316626226 heartbeat IPC: 0.633823 cumulative IPC: 0.585174 (Simulation time: 2 hr 11 min 26 sec) 
Heartbeat CPU 4 instructions: 330000001 cycles: 317106079 heartbeat IPC: 1.00046 cumulative IPC: 1.03064 (Simulation time: 2 hr 11 min 37 sec) 
Heartbeat CPU 2 instructions: 350000002 cycles: 320467339 heartbeat IPC: 1.01782 cumulative IPC: 1.02725 (Simulation time: 2 hr 12 min 52 sec) 
Heartbeat CPU 5 instructions: 120000000 cycles: 324228415 heartbeat IPC: 0.376725 cumulative IPC: 0.291336 (Simulation time: 2 hr 14 min 17 sec) 
Heartbeat CPU 7 instructions: 250000001 cycles: 324260659 heartbeat IPC: 0.493926 cumulative IPC: 0.675018 (Simulation time: 2 hr 14 min 17 sec) 
Heartbeat CPU 1 instructions: 240000000 cycles: 325931508 heartbeat IPC: 0.676996 cumulative IPC: 0.678977 (Simulation time: 2 hr 14 min 55 sec) 
Heartbeat CPU 0 instructions: 230000000 cycles: 326841482 heartbeat IPC: 0.652945 cumulative IPC: 0.654976 (Simulation time: 2 hr 15 min 14 sec) 
Heartbeat CPU 4 instructions: 340000000 cycles: 327035571 heartbeat IPC: 1.0071 cumulative IPC: 1.02989 (Simulation time: 2 hr 15 min 18 sec) 
Heartbeat CPU 2 instructions: 360000000 cycles: 330279395 heartbeat IPC: 1.01915 cumulative IPC: 1.027 (Simulation time: 2 hr 16 min 29 sec) 
Heartbeat CPU 6 instructions: 210000003 cycles: 332292185 heartbeat IPC: 0.638327 cumulative IPC: 0.587809 (Simulation time: 2 hr 17 min 13 sec) 
Heartbeat CPU 3 instructions: 170000001 cycles: 333359025 heartbeat IPC: 0.554748 cumulative IPC: 0.427356 (Simulation time: 2 hr 17 min 36 sec) 
Heartbeat CPU 4 instructions: 350000003 cycles: 336668736 heartbeat IPC: 1.03808 cumulative IPC: 1.03013 (Simulation time: 2 hr 18 min 50 sec) 
Heartbeat CPU 2 instructions: 370000003 cycles: 340259334 heartbeat IPC: 1.00201 cumulative IPC: 1.02623 (Simulation time: 2 hr 20 min 10 sec) 
Heartbeat CPU 1 instructions: 250000002 cycles: 340682694 heartbeat IPC: 0.677912 cumulative IPC: 0.678928 (Simulation time: 2 hr 20 min 20 sec) 
Heartbeat CPU 0 instructions: 240000000 cycles: 342077701 heartbeat IPC: 0.656331 cumulative IPC: 0.65504 (Simulation time: 2 hr 20 min 50 sec) 
Heartbeat CPU 7 instructions: 260000000 cycles: 343991036 heartbeat IPC: 0.506833 cumulative IPC: 0.664891 (Simulation time: 2 hr 21 min 30 sec) 
Heartbeat CPU 4 instructions: 360000000 cycles: 346319031 heartbeat IPC: 1.03624 cumulative IPC: 1.03031 (Simulation time: 2 hr 22 min 19 sec) 
Heartbeat CPU 6 instructions: 220000000 cycles: 347763784 heartbeat IPC: 0.646345 cumulative IPC: 0.590542 (Simulation time: 2 hr 22 min 52 sec) 
Heartbeat CPU 2 instructions: 380000000 cycles: 350232381 heartbeat IPC: 1.0027 cumulative IPC: 1.02552 (Simulation time: 2 hr 23 min 46 sec) 
Heartbeat CPU 3 instructions: 180000000 cycles: 351169626 heartbeat IPC: 0.561463 cumulative IPC: 0.434489 (Simulation time: 2 hr 24 min 6 sec) 
Heartbeat CPU 1 instructions: 260000000 cycles: 355501175 heartbeat IPC: 0.674833 cumulative IPC: 0.678749 (Simulation time: 2 hr 25 min 41 sec) 
Heartbeat CPU 4 instructions: 370000001 cycles: 355985908 heartbeat IPC: 1.03446 cumulative IPC: 1.03043 (Simulation time: 2 hr 25 min 52 sec) 
Heartbeat CPU 0 instructions: 250000000 cycles: 357442638 heartbeat IPC: 0.650832 cumulative IPC: 0.65485 (Simulation time: 2 hr 26 min 25 sec) 
Heartbeat CPU 2 instructions: 390000000 cycles: 360472761 heartbeat IPC: 0.976526 cumulative IPC: 1.02407 (Simulation time: 2 hr 27 min 31 sec) 
Heartbeat CPU 6 instructions: 230000002 cycles: 363015476 heartbeat IPC: 0.655665 cumulative IPC: 0.593407 (Simulation time: 2 hr 28 min 27 sec) 
Heartbeat CPU 7 instructions: 270000002 cycles: 363489912 heartbeat IPC: 0.51285 cumulative IPC: 0.656351 (Simulation time: 2 hr 28 min 37 sec) 
Heartbeat CPU 5 instructions: 130000000 cycles: 365505166 heartbeat IPC: 0.242267 cumulative IPC: 0.285535 (Simulation time: 2 hr 29 min 22 sec) 
Heartbeat CPU 4 instructions: 380000000 cycles: 365804020 heartbeat IPC: 1.01853 cumulative IPC: 1.03009 (Simulation time: 2 hr 29 min 28 sec) 
Finished CPU 5 instructions: 100000000 cycles: 350029206 cumulative IPC: 0.28569 (Simulation time: 2 hr 29 min 40 sec) 

CPU 0 Branch Prediction Accuracy: 98.8621% MPKI: 1.27971

CPU 1 Branch Prediction Accuracy: 99.8181% MPKI: 0.335814

CPU 2 Branch Prediction Accuracy: 99.6926% MPKI: 0.16458

CPU 3 Branch Prediction Accuracy: 99.9993% MPKI: 0.00032625

CPU 4 Branch Prediction Accuracy: 99.859% MPKI: 0.273473

CPU 5 Branch Prediction Accuracy: 95.1061% MPKI: 7.69732

CPU 6 Branch Prediction Accuracy: 99.5196% MPKI: 0.0625627

CPU 7 Branch Prediction Accuracy: 98.3065% MPKI: 1.34368

ChampSim completed all CPUs

Total Simulation Statistics (not including warmup)

CPU 0 cumulative IPC: 0.654815 instructions: 229204302 cycles: 350029205
L1D TOTAL     ACCESS:   88066259  HIT:   85683805  MISS:    2382454
L1D LOAD      ACCESS:   53083898  HIT:   51887570  MISS:    1196328
L1D RFO       ACCESS:   34982361  HIT:   33796235  MISS:    1186126
L1D PREFETCH  ACCESS:          0  HIT:          0  MISS:          0
L1D WRITEBACK ACCESS:          0  HIT:          0  MISS:          0
L1I TOTAL     ACCESS:   66377434  HIT:   66086982  MISS:     290452
L1I LOAD      ACCESS:   66377434  HIT:   66086982  MISS:     290452
L1I RFO       ACCESS:          0  HIT:          0  MISS:          0
L1I PREFETCH  ACCESS:          0  HIT:          0  MISS:          0
L1I WRITEBACK ACCESS:          0  HIT:          0  MISS:          0
L2C TOTAL     ACCESS:    4931702  HIT:    4821857  MISS:     109845
L2C LOAD      ACCESS:    1486764  HIT:    1383529  MISS:     103235
L2C RFO       ACCESS:    1186057  HIT:    1184653  MISS:       1404
L2C PREFETCH  ACCESS:    1021070  HIT:    1016060  MISS:       5010
L2C WRITEBACK ACCESS:    1237811  HIT:    1237615  MISS:        196
LLC TOTAL     ACCESS:     651569  HIT:     484138  MISS:     167431
LLC LOAD      ACCESS:     102979  HIT:      69530  MISS:      33449
LLC RFO       ACCESS:       1404  HIT:        177  MISS:       1227
LLC PREFETCH  ACCESS:     495956  HIT:     404201  MISS:      91755
LLC WRITEBACK ACCESS:      51230  HIT:      10230  MISS:      41000

CPU 1 cumulative IPC: 0.678637 instructions: 237542659 cycles: 350029205
L1D TOTAL     ACCESS:   87537681  HIT:   85456519  MISS:    2081162
L1D LOAD      ACCESS:   44394953  HIT:   42323665  MISS:    2071288
L1D RFO       ACCESS:   43142728  HIT:   43132854  MISS:       9874
L1D PREFETCH  ACCESS:          0  HIT:          0  MISS:          0
L1D WRITEBACK ACCESS:          0  HIT:          0  MISS:          0
L1I TOTAL     ACCESS:   89025313  HIT:   89025311  MISS:          2
L1I LOAD      ACCESS:   89025313  HIT:   89025311  MISS:          2
L1I RFO       ACCESS:          0  HIT:          0  MISS:          0
L1I PREFETCH  ACCESS:          0  HIT:          0  MISS:          0
L1I WRITEBACK ACCESS:          0  HIT:          0  MISS:          0
L2C TOTAL     ACCESS:    3636813  HIT:    3577636  MISS:      59177
L2C LOAD      ACCESS:    2071289  HIT:    2020685  MISS:      50604
L2C RFO       ACCESS:       9874  HIT:       2492  MISS:       7382
L2C PREFETCH  ACCESS:    1495113  HIT:    1493932  MISS:       1181
L2C WRITEBACK ACCESS:      60537  HIT:      60527  MISS:         10
LLC TOTAL     ACCESS:     469739  HIT:     362448  MISS:     107291
LLC LOAD      ACCESS:      50580  HIT:       6689  MISS:      43891
LLC RFO       ACCESS:       7381  HIT:         89  MISS:       7292
LLC PREFETCH  ACCESS:     393748  HIT:     354894  MISS:      38854
LLC WRITEBACK ACCESS:      18030  HIT:        776  MISS:      17254

CPU 2 cumulative IPC: 1.02293 instructions: 358056084 cycles: 350029205
L1D TOTAL     ACCESS:   79879629  HIT:   71799215  MISS:    8080414
L1D LOAD      ACCESS:   53911760  HIT:   48065983  MISS:    5845777
L1D RFO       ACCESS:   25967869  HIT:   23733232  MISS:    2234637
L1D PREFETCH  ACCESS:          0  HIT:          0  MISS:          0
L1D WRITEBACK ACCESS:          0  HIT:          0  MISS:          0
L1I TOTAL     ACCESS:   93681067  HIT:   93681067  MISS:          0
L1I LOAD      ACCESS:   93681067  HIT:   93681067  MISS:          0
L1I RFO       ACCESS:          0  HIT:          0  MISS:          0
L1I PREFETCH  ACCESS:          0  HIT:          0  MISS:          0
L1I WRITEBACK ACCESS:          0  HIT:          0  MISS:          0
L2C TOTAL     ACCESS:   15582822  HIT:   14286314  MISS:    1296508
L2C LOAD      ACCESS:    5845772  HIT:    4950935  MISS:     894837
L2C RFO       ACCESS:    2206551  HIT:    1987660  MISS:     218891
L2C PREFETCH  ACCESS:    3120912  HIT:    2939919  MISS:     180993
L2C WRITEBACK ACCESS:    4409587  HIT:    4407800  MISS:       1787
LLC TOTAL     ACCESS:    5966419  HIT:    4997609  MISS:     968810
LLC LOAD      ACCESS:     812180  HIT:     703807  MISS:     108373
LLC RFO       ACCESS:     218891  HIT:     183833  MISS:      35058
LLC PREFETCH  ACCESS:    4498753  HIT:    3677339  MISS:     821414
LLC WRITEBACK ACCESS:     436595  HIT:     432630  MISS:       3965

CPU 3 cumulative IPC: 0.440164 instructions: 154070091 cycles: 350029205
L1D TOTAL     ACCESS:   34070458  HIT:   31300988  MISS:    2769470
L1D LOAD      ACCESS:   16677785  HIT:   14188325  MISS:    2489460
L1D RFO       ACCESS:   17392673  HIT:   17112663  MISS:     280010
L1D PREFETCH  ACCESS:          0  HIT:          0  MISS:          0
L1D WRITEBACK ACCESS:          0  HIT:          0  MISS:          0
L1I TOTAL     ACCESS:   39257582  HIT:   39257568  MISS:         14
L1I LOAD      ACCESS:   39257582  HIT:   39257568  MISS:         14
L1I RFO       ACCESS:          0  HIT:          0  MISS:          0
L1I PREFETCH  ACCESS:          0  HIT:          0  MISS:          0
L1I WRITEBACK ACCESS:          0  HIT:          0  MISS:          0
L2C TOTAL     ACCESS:    4051963  HIT:    1257392  MISS:    2794571
L2C LOAD      ACCESS:    2489474  HIT:     389316  MISS:    2100158
L2C RFO       ACCESS:     280010  HIT:          0  MISS:     280010
L2C PREFETCH  ACCESS:     442750  HIT:      28405  MISS:     414345
L2C WRITEBACK ACCESS:     839729  HIT:     839671  MISS:         58
LLC TOTAL     ACCESS:    6424478  HIT:    3311377  MISS:    3113101
LLC LOAD      ACCESS:    1782698  HIT:     650184  MISS:    1132514
LLC RFO       ACCESS:     280010  HIT:        474  MISS:     279536
LLC PREFETCH  ACCESS:    3522045  HIT:    1821026  MISS:    1701019
LLC WRITEBACK ACCESS:     839725  HIT:     839693  MISS:         32

CPU 4 cumulative IPC: 1.02999 instructions: 360525311 cycles: 350029205
L1D TOTAL     ACCESS:   24907658  HIT:    7054060  MISS:   17853598
L1D LOAD      ACCESS:    3658372  HIT:    3419999  MISS:     238373
L1D RFO       ACCESS:   21249286  HIT:    3634061  MISS:   17615225
L1D PREFETCH  ACCESS:          0  HIT:          0  MISS:          0
L1D WRITEBACK ACCESS:          0  HIT:          0  MISS:          0
L1I TOTAL     ACCESS:  122303826  HIT:  122283265  MISS:      20561
L1I LOAD      ACCESS:  122303826  HIT:  122283265  MISS:      20561
L1I RFO       ACCESS:          0  HIT:          0  MISS:          0
L1I PREFETCH  ACCESS:          0  HIT:          0  MISS:          0
L1I WRITEBACK ACCESS:          0  HIT:          0  MISS:          0
L2C TOTAL     ACCESS:   35586930  HIT:   17723938  MISS:   17862992
L2C LOAD      ACCESS:     258934  HIT:       8719  MISS:     250215
L2C RFO       ACCESS:   17615225  HIT:       7023  MISS:   17608202
L2C PREFETCH  ACCESS:      33429  HIT:      28854  MISS:       4575
L2C WRITEBACK ACCESS:   17679342  HIT:   17679342  MISS:          0
LLC TOTAL     ACCESS:   35725551  HIT:   35626774  MISS:      98777
LLC LOAD      ACCESS:     250129  HIT:     210404  MISS:      39725
LLC RFO       ACCESS:   17608193  HIT:   17603159  MISS:       5034
LLC PREFETCH  ACCESS:     198914  HIT:     144896  MISS:      54018
LLC WRITEBACK ACCESS:   17668315  HIT:   17668315  MISS:          0

CPU 5 cumulative IPC: 0.28569 instructions: 100000000 cycles: 350029206
L1D TOTAL     ACCESS:   22257958  HIT:   16964785  MISS:    5293173
L1D LOAD      ACCESS:   16668748  HIT:   12151984  MISS:    4516764
L1D RFO       ACCESS:    5589210  HIT:    4812801  MISS:     776409
L1D PREFETCH  ACCESS:          0  HIT:          0  MISS:          0
L1D WRITEBACK ACCESS:          0  HIT:          0  MISS:          0
L1I TOTAL     ACCESS:   23400859  HIT:   23400181  MISS:        678
L1I LOAD      ACCESS:   23400859  HIT:   23400181  MISS:        678
L1I RFO       ACCESS:          0  HIT:          0  MISS:          0
L1I PREFETCH  ACCESS:          0  HIT:          0  MISS:          0
L1I WRITEBACK ACCESS:          0  HIT:          0  MISS:          0
L2C TOTAL     ACCESS:    8617495  HIT:    4226410  MISS:    4391085
L2C LOAD      ACCESS:    4516986  HIT:    1143305  MISS:    3373681
L2C RFO       ACCESS:     776372  HIT:      81930  MISS:     694442
L2C PREFETCH  ACCESS:     951159  HIT:     628377  MISS:     322782
L2C WRITEBACK ACCESS:    2372978  HIT:    2372798  MISS:        180
LLC TOTAL     ACCESS:    9489980  HIT:    6728977  MISS:    2761003
LLC LOAD      ACCESS:    3153574  HIT:    1906129  MISS:    1247445
LLC RFO       ACCESS:     694430  HIT:     366129  MISS:     328301
LLC PREFETCH  ACCESS:    3836028  HIT:    2650843  MISS:    1185185
LLC WRITEBACK ACCESS:    1805948  HIT:    1805876  MISS:         72

CPU 6 cumulative IPC: 0.594321 instructions: 208029637 cycles: 350029206
L1D TOTAL     ACCESS:   81183486  HIT:   75266021  MISS:    5917465
L1D LOAD      ACCESS:   70317442  HIT:   64400005  MISS:    5917437
L1D RFO       ACCESS:   10866044  HIT:   10866016  MISS:         28
L1D PREFETCH  ACCESS:          0  HIT:          0  MISS:          0
L1D WRITEBACK ACCESS:          0  HIT:          0  MISS:          0
L1I TOTAL     ACCESS:   44454950  HIT:   44454764  MISS:        186
L1I LOAD      ACCESS:   44454950  HIT:   44454764  MISS:        186
L1I RFO       ACCESS:          0  HIT:          0  MISS:          0
L1I PREFETCH  ACCESS:          0  HIT:          0  MISS:          0
L1I WRITEBACK ACCESS:          0  HIT:          0  MISS:          0
L2C TOTAL     ACCESS:   11209510  HIT:    7757414  MISS:    3452096
L2C LOAD      ACCESS:    5917615  HIT:    3583287  MISS:    2334328
L2C RFO       ACCESS:         28  HIT:          0  MISS:         28
L2C PREFETCH  ACCESS:    3847053  HIT:    2729669  MISS:    1117384
L2C WRITEBACK ACCESS:    1444814  HIT:    1444458  MISS:        356
LLC TOTAL     ACCESS:   11346700  HIT:    8358353  MISS:    2988347
LLC LOAD      ACCESS:    1922731  HIT:    1418511  MISS:     504220
LLC RFO       ACCESS:         28  HIT:          6  MISS:         22
LLC PREFETCH  ACCESS:    8407189  HIT:    5926025  MISS:    2481164
LLC WRITEBACK ACCESS:    1016752  HIT:    1013811  MISS:       2941

CPU 7 cumulative IPC: 0.655172 instructions: 229329180 cycles: 350029206
L1D TOTAL     ACCESS:   38893823  HIT:   35451057  MISS:    3442766
L1D LOAD      ACCESS:   35160378  HIT:   31997128  MISS:    3163250
L1D RFO       ACCESS:    3733445  HIT:    3453929  MISS:     279516
L1D PREFETCH  ACCESS:          0  HIT:          0  MISS:          0
L1D WRITEBACK ACCESS:          0  HIT:          0  MISS:          0
L1I TOTAL     ACCESS:   62763538  HIT:   62763197  MISS:        341
L1I LOAD      ACCESS:   62763538  HIT:   62763197  MISS:        341
L1I RFO       ACCESS:          0  HIT:          0  MISS:          0
L1I PREFETCH  ACCESS:          0  HIT:          0  MISS:          0
L1I WRITEBACK ACCESS:          0  HIT:          0  MISS:          0
L2C TOTAL     ACCESS:    5295283  HIT:    2354477  MISS:    2940806
L2C LOAD      ACCESS:    3163591  HIT:    1150769  MISS:    2012822
L2C RFO       ACCESS:     279512  HIT:      26072  MISS:     253440
L2C PREFETCH  ACCESS:    1514155  HIT:     840232  MISS:     673923
L2C WRITEBACK ACCESS:     338025  HIT:     337404  MISS:        621
LLC TOTAL     ACCESS:    7566981  HIT:    6219881  MISS:    1347100
LLC LOAD      ACCESS:    1649015  HIT:    1270141  MISS:     378874
LLC RFO       ACCESS:     253439  HIT:     178696  MISS:      74743
LLC PREFETCH  ACCESS:    5362105  HIT:    4468972  MISS:     893133
LLC WRITEBACK ACCESS:     302422  HIT:     302072  MISS:        350

Region of Interest Statistics

CPU 0 cumulative IPC: 0.655058 instructions: 100000003 cycles: 152658262
L1D TOTAL     ACCESS:   38422986  HIT:   37383124  MISS:    1039862
L1D LOAD      ACCESS:   23160441  HIT:   22638396  MISS:     522045
L1D RFO       ACCESS:   15262545  HIT:   14744728  MISS:     517817
L1D PREFETCH  ACCESS:          0  HIT:          0  MISS:          0
L1D WRITEBACK ACCESS:          0  HIT:          0  MISS:          0
L1D PREFETCH  REQUESTED:          0  ISSUED:          0  USEFUL:          0  USELESS:          0
L1I TOTAL     ACCESS:   28915886  HIT:   28789159  MISS:     126727
L1I LOAD      ACCESS:   28915886  HIT:   28789159  MISS:     126727
L1I RFO       ACCESS:          0  HIT:          0  MISS:          0
L1I PREFETCH  ACCESS:          0  HIT:          0  MISS:          0
L1I WRITEBACK ACCESS:          0  HIT:          0  MISS:          0
L1I PREFETCH  REQUESTED:          0  ISSUED:          0  USEFUL:          0  USELESS:          0
L2C TOTAL     ACCESS:    2165143  HIT:    2117246  MISS:      47897
L2C LOAD      ACCESS:     648766  HIT:     603663  MISS:      45103
L2C RFO       ACCESS:     517788  HIT:     517197  MISS:        591
L2C PREFETCH  ACCESS:     458280  HIT:     456150  MISS:       2130
L2C WRITEBACK ACCESS:     540309  HIT:     540236  MISS:         73
L2C PREFETCH  REQUESTED:    1813583  ISSUED:    1803914  USEFUL:       4088  USELESS:       1770
LLC TOTAL     ACCESS:     270118  HIT:     198747  MISS:      71371
LLC LOAD      ACCESS:      45020  HIT:      29732  MISS:      15288
LLC RFO       ACCESS:        591  HIT:         55  MISS:        536
LLC PREFETCH  ACCESS:     202182  HIT:     163266  MISS:      38916
LLC WRITEBACK ACCESS:      22325  HIT:       5694  MISS:      16631
LLC PREFETCH  REQUESTED:          0  ISSUED:          0  USEFUL:    4014374  USELESS:    4662000
Major fault: 0 Minor fault: 2015

CPU 1 cumulative IPC: 0.680061 instructions: 100000000 cycles: 147045704
L1D TOTAL     ACCESS:   36883997  HIT:   36011159  MISS:     872838
L1D LOAD      ACCESS:   18708164  HIT:   17839547  MISS:     868617
L1D RFO       ACCESS:   18175833  HIT:   18171612  MISS:       4221
L1D PREFETCH  ACCESS:          0  HIT:          0  MISS:          0
L1D WRITEBACK ACCESS:          0  HIT:          0  MISS:          0
L1D PREFETCH  REQUESTED:          0  ISSUED:          0  USEFUL:          0  USELESS:          0
L1I TOTAL     ACCESS:   37400580  HIT:   37400578  MISS:          2
L1I LOAD      ACCESS:   37400580  HIT:   37400578  MISS:          2
L1I RFO       ACCESS:          0  HIT:          0  MISS:          0
L1I PREFETCH  ACCESS:          0  HIT:          0  MISS:          0
L1I WRITEBACK ACCESS:          0  HIT:          0  MISS:          0
L1I PREFETCH  REQUESTED:          0  ISSUED:          0  USEFUL:          0  USELESS:          0
L2C TOTAL     ACCESS:    1512916  HIT:    1488119  MISS:      24797
L2C LOAD      ACCESS:     868619  HIT:     847491  MISS:      21128
L2C RFO       ACCESS:       4221  HIT:       1072  MISS:       3149
L2C PREFETCH  ACCESS:     615682  HIT:     615166  MISS:        516
L2C WRITEBACK ACCESS:      24394  HIT:      24390  MISS:          4
L2C PREFETCH  REQUESTED:    2133429  ISSUED:    2133123  USEFUL:        235  USELESS:        967
LLC TOTAL     ACCESS:     213007  HIT:     168633  MISS:      44374
LLC LOAD      ACCESS:      21116  HIT:       2780  MISS:      18336
LLC RFO       ACCESS:       3148  HIT:         50  MISS:       3098
LLC PREFETCH  ACCESS:     181180  HIT:     165422  MISS:      15758
LLC WRITEBACK ACCESS:       7563  HIT:        381  MISS:       7182
LLC PREFETCH  REQUESTED:          0  ISSUED:          0  USEFUL:    4014374  USELESS:    4662000
Major fault: 0 Minor fault: 3257

CPU 2 cumulative IPC: 1.02903 instructions: 100000001 cycles: 97178821
L1D TOTAL     ACCESS:   22319067  HIT:   20086656  MISS:    2232411
L1D LOAD      ACCESS:   15093207  HIT:   13486989  MISS:    1606218
L1D RFO       ACCESS:    7225860  HIT:    6599667  MISS:     626193
L1D PREFETCH  ACCESS:          0  HIT:          0  MISS:          0
L1D WRITEBACK ACCESS:          0  HIT:          0  MISS:          0
L1D PREFETCH  REQUESTED:          0  ISSUED:          0  USEFUL:          0  USELESS:          0
L1I TOTAL     ACCESS:   26155815  HIT:   26155815  MISS:          0
L1I LOAD      ACCESS:   26155815  HIT:   26155815  MISS:          0
L1I RFO       ACCESS:          0  HIT:          0  MISS:          0
L1I PREFETCH  ACCESS:          0  HIT:          0  MISS:          0
L1I WRITEBACK ACCESS:          0  HIT:          0  MISS:          0
L1I PREFETCH  REQUESTED:          0  ISSUED:          0  USEFUL:          0  USELESS:          0
L2C TOTAL     ACCESS:    4281692  HIT:    3915825  MISS:     365867
L2C LOAD      ACCESS:    1606216  HIT:    1353878  MISS:     252338
L2C RFO       ACCESS:     617945  HIT:     554436  MISS:      63509
L2C PREFETCH  ACCESS:     837426  HIT:     787909  MISS:      49517
L2C WRITEBACK ACCESS:    1220105  HIT:    1219602  MISS:        503
L2C PREFETCH  REQUESTED:    9728704  ISSUED:    8995609  USEFUL:     177225  USELESS:      34664
LLC TOTAL     ACCESS:    1564295  HIT:    1286901  MISS:     277394
LLC LOAD      ACCESS:     231201  HIT:     194957  MISS:      36244
LLC RFO       ACCESS:      63509  HIT:      54075  MISS:       9434
LLC PREFETCH  ACCESS:    1146759  HIT:     916150  MISS:     230609
LLC WRITEBACK ACCESS:     122826  HIT:     121719  MISS:       1107
LLC PREFETCH  REQUESTED:          0  ISSUED:          0  USEFUL:    4014374  USELESS:    4662000
Major fault: 0 Minor fault: 13481

CPU 3 cumulative IPC: 0.453655 instructions: 100000000 cycles: 220431931
L1D TOTAL     ACCESS:   22374062  HIT:   20530272  MISS:    1843790
L1D LOAD      ACCESS:   11174954  HIT:    9522549  MISS:    1652405
L1D RFO       ACCESS:   11199108  HIT:   11007723  MISS:     191385
L1D PREFETCH  ACCESS:          0  HIT:          0  MISS:          0
L1D WRITEBACK ACCESS:          0  HIT:          0  MISS:          0
L1D PREFETCH  REQUESTED:          0  ISSUED:          0  USEFUL:          0  USELESS:          0
L1I TOTAL     ACCESS:   25767065  HIT:   25767053  MISS:         12
L1I LOAD      ACCESS:   25767065  HIT:   25767053  MISS:         12
L1I RFO       ACCESS:          0  HIT:          0  MISS:          0
L1I PREFETCH  ACCESS:          0  HIT:          0  MISS:          0
L1I WRITEBACK ACCESS:          0  HIT:          0  MISS:          0
L1I PREFETCH  REQUESTED:          0  ISSUED:          0  USEFUL:          0  USELESS:          0
L2C TOTAL     ACCESS:    2725304  HIT:     867765  MISS:    1857539
L2C LOAD      ACCESS:    1652417  HIT:     263076  MISS:    1389341
L2C RFO       ACCESS:     191385  HIT:          0  MISS:     191385
L2C PREFETCH  ACCESS:     299117  HIT:      22360  MISS:     276757
L2C WRITEBACK ACCESS:     582385  HIT:     582329  MISS:         56
L2C PREFETCH  REQUESTED:    8785838  ISSUED:    8783797  USEFUL:     717793  USELESS:      27851
LLC TOTAL     ACCESS:    4364539  HIT:    2282315  MISS:    2082224
LLC LOAD      ACCESS:    1179800  HIT:     444810  MISS:     734990
LLC RFO       ACCESS:     191385  HIT:        474  MISS:     190911
LLC PREFETCH  ACCESS:    2412055  HIT:    1255757  MISS:    1156298
LLC WRITEBACK ACCESS:     581299  HIT:     581274  MISS:         25
LLC PREFETCH  REQUESTED:          0  ISSUED:          0  USEFUL:    4014374  USELESS:    4662000
Major fault: 0 Minor fault: 92053

CPU 4 cumulative IPC: 1.05121 instructions: 100000000 cycles: 95128293
L1D TOTAL     ACCESS:    6563398  HIT:    1555946  MISS:    5007452
L1D LOAD      ACCESS:     794702  HIT:     733653  MISS:      61049
L1D RFO       ACCESS:    5768696  HIT:     822293  MISS:    4946403
L1D PREFETCH  ACCESS:          0  HIT:          0  MISS:          0
L1D WRITEBACK ACCESS:          0  HIT:          0  MISS:          0
L1D PREFETCH  REQUESTED:          0  ISSUED:          0  USEFUL:          0  USELESS:          0
L1I TOTAL     ACCESS:   33947594  HIT:   33942713  MISS:       4881
L1I LOAD      ACCESS:   33947594  HIT:   33942713  MISS:       4881
L1I RFO       ACCESS:          0  HIT:          0  MISS:          0
L1I PREFETCH  ACCESS:          0  HIT:          0  MISS:          0
L1I WRITEBACK ACCESS:          0  HIT:          0  MISS:          0
L1I PREFETCH  REQUESTED:          0  ISSUED:          0  USEFUL:          0  USELESS:          0
L2C TOTAL     ACCESS:    9983563  HIT:    4974331  MISS:    5009232
L2C LOAD      ACCESS:      65930  HIT:       1931  MISS:      63999
L2C RFO       ACCESS:    4946404  HIT:       1961  MISS:    4944443
L2C PREFETCH  ACCESS:       7878  HIT:       7088  MISS:        790
L2C WRITEBACK ACCESS:    4963351  HIT:    4963351  MISS:          0
L2C PREFETCH  REQUESTED:     257780  ISSUED:     257780  USEFUL:       1292  USELESS:       3492
LLC TOTAL     ACCESS:   10015527  HIT:    9991299  MISS:      24228
LLC LOAD      ACCESS:      63991  HIT:      54020  MISS:       9971
LLC RFO       ACCESS:    4944443  HIT:    4943124  MISS:       1319
LLC PREFETCH  ACCESS:      46580  HIT:      33642  MISS:      12938
LLC WRITEBACK ACCESS:    4960513  HIT:    4960513  MISS:          0
LLC PREFETCH  REQUESTED:          0  ISSUED:          0  USEFUL:    4014374  USELESS:    4662000
Major fault: 0 Minor fault: 3868

CPU 5 cumulative IPC: 0.28569 instructions: 100000000 cycles: 350029206
L1D TOTAL     ACCESS:   22257958  HIT:   16964785  MISS:    5293173
L1D LOAD      ACCESS:   16668748  HIT:   12151984  MISS:    4516764
L1D RFO       ACCESS:    5589210  HIT:    4812801  MISS:     776409
L1D PREFETCH  ACCESS:          0  HIT:          0  MISS:          0
L1D WRITEBACK ACCESS:          0  HIT:          0  MISS:          0
L1D PREFETCH  REQUESTED:          0  ISSUED:          0  USEFUL:          0  USELESS:          0
L1I TOTAL     ACCESS:   23400859  HIT:   23400181  MISS:        678
L1I LOAD      ACCESS:   23400859  HIT:   23400181  MISS:        678
L1I RFO       ACCESS:          0  HIT:          0  MISS:          0
L1I PREFETCH  ACCESS:          0  HIT:          0  MISS:          0
L1I WRITEBACK ACCESS:          0  HIT:          0  MISS:          0
L1I PREFETCH  REQUESTED:          0  ISSUED:          0  USEFUL:          0  USELESS:          0
L2C TOTAL     ACCESS:    8617495  HIT:    4226410  MISS:    4391085
L2C LOAD      ACCESS:    4516986  HIT:    1143305  MISS:    3373681
L2C RFO       ACCESS:     776372  HIT:      81930  MISS:     694442
L2C PREFETCH  ACCESS:     951159  HIT:     628377  MISS:     322782
L2C WRITEBACK ACCESS:    2372978  HIT:    2372798  MISS:        180
L2C PREFETCH  REQUESTED:    9197115  ISSUED:    9170217  USEFUL:     459663  USELESS:      63599
LLC TOTAL     ACCESS:    9489980  HIT:    6728977  MISS:    2761003
LLC LOAD      ACCESS:    3153574  HIT:    1906129  MISS:    1247445
LLC RFO       ACCESS:     694430  HIT:     366129  MISS:     328301
LLC PREFETCH  ACCESS:    3836028  HIT:    2650843  MISS:    1185185
LLC WRITEBACK ACCESS:    1805948  HIT:    1805876  MISS:         72
LLC PREFETCH  REQUESTED:          0  ISSUED:          0  USEFUL:    4014374  USELESS:    4662000
Major fault: 0 Minor fault: 12933

CPU 6 cumulative IPC: 0.552643 instructions: 100000001 cycles: 180948591
L1D TOTAL     ACCESS:   49826375  HIT:   46440447  MISS:    3385928
L1D LOAD      ACCESS:   46402025  HIT:   43016125  MISS:    3385900
L1D RFO       ACCESS:    3424350  HIT:    3424322  MISS:         28
L1D PREFETCH  ACCESS:          0  HIT:          0  MISS:          0
L1D WRITEBACK ACCESS:          0  HIT:          0  MISS:          0
L1D PREFETCH  REQUESTED:          0  ISSUED:          0  USEFUL:          0  USELESS:          0
L1I TOTAL     ACCESS:   23437630  HIT:   23437444  MISS:        186
L1I LOAD      ACCESS:   23437630  HIT:   23437444  MISS:        186
L1I RFO       ACCESS:          0  HIT:          0  MISS:          0
L1I PREFETCH  ACCESS:          0  HIT:          0  MISS:          0
L1I WRITEBACK ACCESS:          0  HIT:          0  MISS:          0
L1I PREFETCH  REQUESTED:          0  ISSUED:          0  USEFUL:          0  USELESS:          0
L2C TOTAL     ACCESS:    6675751  HIT:    5807129  MISS:     868622
L2C LOAD      ACCESS:    3386085  HIT:    2597963  MISS:     788122
L2C RFO       ACCESS:         28  HIT:          0  MISS:         28
L2C PREFETCH  ACCESS:    2789431  HIT:    2709093  MISS:      80338
L2C WRITEBACK ACCESS:     500207  HIT:     500073  MISS:        134
L2C PREFETCH  REQUESTED:   14736987  ISSUED:   14621970  USEFUL:    1042145  USELESS:      88981
LLC TOTAL     ACCESS:    2589052  HIT:    1700025  MISS:     889027
LLC LOAD      ACCESS:     771931  HIT:     452160  MISS:     319771
LLC RFO       ACCESS:         28  HIT:          6  MISS:         22
LLC PREFETCH  ACCESS:    1742293  HIT:    1175945  MISS:     566348
LLC WRITEBACK ACCESS:      74800  HIT:      71914  MISS:       2886
LLC PREFETCH  REQUESTED:          0  ISSUED:          0  USEFUL:    4014374  USELESS:    4662000
Major fault: 0 Minor fault: 84870

CPU 7 cumulative IPC: 0.75458 instructions: 100000000 cycles: 132524062
L1D TOTAL     ACCESS:   16954081  HIT:   15512329  MISS:    1441752
L1D LOAD      ACCESS:   15336529  HIT:   14019055  MISS:    1317474
L1D RFO       ACCESS:    1617552  HIT:    1493274  MISS:     124278
L1D PREFETCH  ACCESS:          0  HIT:          0  MISS:          0
L1D WRITEBACK ACCESS:          0  HIT:          0  MISS:          0
L1D PREFETCH  REQUESTED:          0  ISSUED:          0  USEFUL:          0  USELESS:          0
L1I TOTAL     ACCESS:   27470984  HIT:   27470825  MISS:        159
L1I LOAD      ACCESS:   27470984  HIT:   27470825  MISS:        159
L1I RFO       ACCESS:          0  HIT:          0  MISS:          0
L1I PREFETCH  ACCESS:          0  HIT:          0  MISS:          0
L1I WRITEBACK ACCESS:          0  HIT:          0  MISS:          0
L1I PREFETCH  REQUESTED:          0  ISSUED:          0  USEFUL:          0  USELESS:          0
L2C TOTAL     ACCESS:    2255827  HIT:    1006394  MISS:    1249433
L2C LOAD      ACCESS:    1317633  HIT:     480364  MISS:     837269
L2C RFO       ACCESS:     124277  HIT:      11302  MISS:     112975
L2C PREFETCH  ACCESS:     673702  HIT:     374796  MISS:     298906
L2C WRITEBACK ACCESS:     140215  HIT:     139932  MISS:        283
L2C PREFETCH  REQUESTED:   10727881  ISSUED:   10679663  USEFUL:     866881  USELESS:      17000
LLC TOTAL     ACCESS:    3225450  HIT:    2912789  MISS:     312661
LLC LOAD      ACCESS:     678156  HIT:     585770  MISS:      92386
LLC RFO       ACCESS:     112975  HIT:      95146  MISS:      17829
LLC PREFETCH  ACCESS:    2308791  HIT:    2106352  MISS:     202439
LLC WRITEBACK ACCESS:     125528  HIT:     125521  MISS:          7
LLC PREFETCH  REQUESTED:          0  ISSUED:          0  USEFUL:    4014374  USELESS:    4662000
Major fault: 0 Minor fault: 2813

DRAM Statistics
 CHANNEL 0
 RQ ROW_BUFFER_HIT:    2352186  ROW_BUFFER_MISS:    3655433
 DBUS_CONGESTED:    8191837
 WQ ROW_BUFFER_HIT:     123131  ROW_BUFFER_MISS:    1423473  FULL:          0

 CHANNEL 1
 RQ ROW_BUFFER_HIT:    1967594  ROW_BUFFER_MISS:    3510081
 DBUS_CONGESTED:    8191837
 WQ ROW_BUFFER_HIT:     123036  ROW_BUFFER_MISS:    1408105  FULL:          0

 AVG_CONGESTED_CYCLE: 13
