
*** ChampSim Multicore Out-of-Order Simulator ***

Warmup Instructions: 200000000
Simulation Instructions: 1000000000
Number of CPUs: 1
LLC sets: 2048
LLC ways: 16
Off-chip DRAM Size: 4096 MB Channels: 1 Width: 64-bit Data Rate: 400 MT/s

CPU 0 runs /scratch/user/djimenez/champsim-traces/speccpu2017/xz/623.xalancbmk_s/623.xalancbmk_s-592B.champsimtrace.xz
L2C Best-offset prefetcher
Heartbeat CPU 0 instructions: 10000002 cycles: 5040022 heartbeat IPC: 1.98412 cumulative IPC: 1.98412 (Simulation time: 0 hr 0 min 17 sec) 
Heartbeat CPU 0 instructions: 20000000 cycles: 10158430 heartbeat IPC: 1.95373 cumulative IPC: 1.96881 (Simulation time: 0 hr 0 min 34 sec) 
Heartbeat CPU 0 instructions: 30000003 cycles: 16147278 heartbeat IPC: 1.66977 cumulative IPC: 1.8579 (Simulation time: 0 hr 0 min 54 sec) 
Heartbeat CPU 0 instructions: 40000000 cycles: 22638898 heartbeat IPC: 1.54045 cumulative IPC: 1.76687 (Simulation time: 0 hr 1 min 16 sec) 
Heartbeat CPU 0 instructions: 50000000 cycles: 28895257 heartbeat IPC: 1.59837 cumulative IPC: 1.73039 (Simulation time: 0 hr 1 min 37 sec) 
Heartbeat CPU 0 instructions: 60000000 cycles: 35070574 heartbeat IPC: 1.61935 cumulative IPC: 1.71084 (Simulation time: 0 hr 1 min 56 sec) 
Heartbeat CPU 0 instructions: 70000000 cycles: 41179588 heartbeat IPC: 1.63693 cumulative IPC: 1.69987 (Simulation time: 0 hr 2 min 15 sec) 
Heartbeat CPU 0 instructions: 80000000 cycles: 46556031 heartbeat IPC: 1.85997 cumulative IPC: 1.71836 (Simulation time: 0 hr 2 min 31 sec) 
Heartbeat CPU 0 instructions: 90000000 cycles: 51581122 heartbeat IPC: 1.99001 cumulative IPC: 1.74482 (Simulation time: 0 hr 2 min 47 sec) 
Heartbeat CPU 0 instructions: 100000000 cycles: 56556917 heartbeat IPC: 2.00973 cumulative IPC: 1.76813 (Simulation time: 0 hr 3 min 4 sec) 
Heartbeat CPU 0 instructions: 110000001 cycles: 61978891 heartbeat IPC: 1.84435 cumulative IPC: 1.7748 (Simulation time: 0 hr 3 min 22 sec) 
Heartbeat CPU 0 instructions: 120000000 cycles: 68414743 heartbeat IPC: 1.5538 cumulative IPC: 1.75401 (Simulation time: 0 hr 3 min 44 sec) 
Heartbeat CPU 0 instructions: 130000001 cycles: 74654619 heartbeat IPC: 1.6026 cumulative IPC: 1.74135 (Simulation time: 0 hr 4 min 4 sec) 
Heartbeat CPU 0 instructions: 140000000 cycles: 80810945 heartbeat IPC: 1.62435 cumulative IPC: 1.73244 (Simulation time: 0 hr 4 min 24 sec) 
Heartbeat CPU 0 instructions: 150000000 cycles: 86502844 heartbeat IPC: 1.75688 cumulative IPC: 1.73405 (Simulation time: 0 hr 4 min 41 sec) 
Heartbeat CPU 0 instructions: 160000000 cycles: 91495827 heartbeat IPC: 2.00281 cumulative IPC: 1.74871 (Simulation time: 0 hr 4 min 57 sec) 
Heartbeat CPU 0 instructions: 170000000 cycles: 96446725 heartbeat IPC: 2.01984 cumulative IPC: 1.76263 (Simulation time: 0 hr 5 min 15 sec) 
Heartbeat CPU 0 instructions: 180000000 cycles: 102307386 heartbeat IPC: 1.70629 cumulative IPC: 1.7594 (Simulation time: 0 hr 5 min 35 sec) 
Heartbeat CPU 0 instructions: 190000000 cycles: 108606746 heartbeat IPC: 1.58746 cumulative IPC: 1.74943 (Simulation time: 0 hr 5 min 56 sec) 
Heartbeat CPU 0 instructions: 200000000 cycles: 113857110 heartbeat IPC: 1.90463 cumulative IPC: 1.75659 (Simulation time: 0 hr 6 min 15 sec) 

Warmup complete CPU 0 instructions: 200000001 cycles: 113857111 (Simulation time: 0 hr 6 min 15 sec) 

Heartbeat CPU 0 instructions: 210000000 cycles: 146406902 heartbeat IPC: 0.307222 cumulative IPC: 0.307222 (Simulation time: 0 hr 6 min 54 sec) 
Heartbeat CPU 0 instructions: 220000000 cycles: 180423406 heartbeat IPC: 0.293975 cumulative IPC: 0.300452 (Simulation time: 0 hr 7 min 36 sec) 
Heartbeat CPU 0 instructions: 230000000 cycles: 212018927 heartbeat IPC: 0.316501 cumulative IPC: 0.305618 (Simulation time: 0 hr 8 min 17 sec) 
Heartbeat CPU 0 instructions: 240000000 cycles: 241398375 heartbeat IPC: 0.340374 cumulative IPC: 0.313624 (Simulation time: 0 hr 8 min 57 sec) 
Heartbeat CPU 0 instructions: 250000003 cycles: 269292956 heartbeat IPC: 0.358493 cumulative IPC: 0.321676 (Simulation time: 0 hr 9 min 35 sec) 
Heartbeat CPU 0 instructions: 260000000 cycles: 296051316 heartbeat IPC: 0.373715 cumulative IPC: 0.329319 (Simulation time: 0 hr 10 min 13 sec) 
Heartbeat CPU 0 instructions: 270000000 cycles: 321810207 heartbeat IPC: 0.388215 cumulative IPC: 0.336614 (Simulation time: 0 hr 10 min 49 sec) 
Heartbeat CPU 0 instructions: 280000000 cycles: 346973722 heartbeat IPC: 0.397401 cumulative IPC: 0.343176 (Simulation time: 0 hr 11 min 25 sec) 
Heartbeat CPU 0 instructions: 290000002 cycles: 365107912 heartbeat IPC: 0.551445 cumulative IPC: 0.358208 (Simulation time: 0 hr 11 min 56 sec) 
Heartbeat CPU 0 instructions: 300000000 cycles: 380047729 heartbeat IPC: 0.669352 cumulative IPC: 0.375671 (Simulation time: 0 hr 12 min 25 sec) 
Heartbeat CPU 0 instructions: 310000003 cycles: 395732642 heartbeat IPC: 0.637556 cumulative IPC: 0.390243 (Simulation time: 0 hr 12 min 54 sec) 
Heartbeat CPU 0 instructions: 320000000 cycles: 412384664 heartbeat IPC: 0.600527 cumulative IPC: 0.401973 (Simulation time: 0 hr 13 min 24 sec) 
Heartbeat CPU 0 instructions: 330000001 cycles: 430375553 heartbeat IPC: 0.555837 cumulative IPC: 0.410719 (Simulation time: 0 hr 13 min 53 sec) 
Heartbeat CPU 0 instructions: 340000000 cycles: 450114367 heartbeat IPC: 0.506616 cumulative IPC: 0.416348 (Simulation time: 0 hr 14 min 23 sec) 
Heartbeat CPU 0 instructions: 350000000 cycles: 473031985 heartbeat IPC: 0.436346 cumulative IPC: 0.417624 (Simulation time: 0 hr 14 min 54 sec) 
Heartbeat CPU 0 instructions: 360000000 cycles: 503243116 heartbeat IPC: 0.331004 cumulative IPC: 0.410903 (Simulation time: 0 hr 15 min 27 sec) 
Heartbeat CPU 0 instructions: 370000001 cycles: 532527898 heartbeat IPC: 0.341474 cumulative IPC: 0.406047 (Simulation time: 0 hr 16 min 5 sec) 
Heartbeat CPU 0 instructions: 380000000 cycles: 563684800 heartbeat IPC: 0.320956 cumulative IPC: 0.400153 (Simulation time: 0 hr 16 min 45 sec) 
Heartbeat CPU 0 instructions: 390000003 cycles: 594630706 heartbeat IPC: 0.323145 cumulative IPC: 0.395196 (Simulation time: 0 hr 17 min 25 sec) 
Heartbeat CPU 0 instructions: 400000000 cycles: 623449182 heartbeat IPC: 0.346999 cumulative IPC: 0.392471 (Simulation time: 0 hr 18 min 3 sec) 
Heartbeat CPU 0 instructions: 410000001 cycles: 650825255 heartbeat IPC: 0.365283 cumulative IPC: 0.391085 (Simulation time: 0 hr 18 min 41 sec) 
Heartbeat CPU 0 instructions: 420000000 cycles: 675746666 heartbeat IPC: 0.401261 cumulative IPC: 0.391536 (Simulation time: 0 hr 19 min 17 sec) 
Heartbeat CPU 0 instructions: 430000001 cycles: 692029390 heartbeat IPC: 0.614148 cumulative IPC: 0.397805 (Simulation time: 0 hr 19 min 46 sec) 
Heartbeat CPU 0 instructions: 440000000 cycles: 710050909 heartbeat IPC: 0.554892 cumulative IPC: 0.402554 (Simulation time: 0 hr 20 min 16 sec) 
Heartbeat CPU 0 instructions: 450000001 cycles: 731772529 heartbeat IPC: 0.460371 cumulative IPC: 0.404586 (Simulation time: 0 hr 20 min 47 sec) 
Heartbeat CPU 0 instructions: 460000000 cycles: 765070802 heartbeat IPC: 0.300316 cumulative IPC: 0.399255 (Simulation time: 0 hr 21 min 27 sec) 
Heartbeat CPU 0 instructions: 470000000 cycles: 804967389 heartbeat IPC: 0.250648 cumulative IPC: 0.390676 (Simulation time: 0 hr 22 min 14 sec) 
Heartbeat CPU 0 instructions: 480000000 cycles: 841326930 heartbeat IPC: 0.275031 cumulative IPC: 0.384896 (Simulation time: 0 hr 22 min 59 sec) 
Heartbeat CPU 0 instructions: 490000001 cycles: 874840525 heartbeat IPC: 0.298386 cumulative IPC: 0.381086 (Simulation time: 0 hr 23 min 42 sec) 
Heartbeat CPU 0 instructions: 500000000 cycles: 906508419 heartbeat IPC: 0.315777 cumulative IPC: 0.378477 (Simulation time: 0 hr 24 min 24 sec) 
Heartbeat CPU 0 instructions: 510000001 cycles: 936733264 heartbeat IPC: 0.330854 cumulative IPC: 0.376727 (Simulation time: 0 hr 25 min 5 sec) 
Heartbeat CPU 0 instructions: 520000000 cycles: 965580175 heartbeat IPC: 0.346658 cumulative IPC: 0.375709 (Simulation time: 0 hr 25 min 44 sec) 
Heartbeat CPU 0 instructions: 530000001 cycles: 993572699 heartbeat IPC: 0.357238 cumulative IPC: 0.375121 (Simulation time: 0 hr 26 min 23 sec) 
Heartbeat CPU 0 instructions: 540000000 cycles: 1020609728 heartbeat IPC: 0.369863 cumulative IPC: 0.374964 (Simulation time: 0 hr 27 min 1 sec) 
Heartbeat CPU 0 instructions: 550000001 cycles: 1047005691 heartbeat IPC: 0.378846 cumulative IPC: 0.375074 (Simulation time: 0 hr 27 min 39 sec) 
Heartbeat CPU 0 instructions: 560000000 cycles: 1072693507 heartbeat IPC: 0.38929 cumulative IPC: 0.375455 (Simulation time: 0 hr 28 min 16 sec) 
Heartbeat CPU 0 instructions: 570000000 cycles: 1097827815 heartbeat IPC: 0.397863 cumulative IPC: 0.376027 (Simulation time: 0 hr 28 min 53 sec) 
Heartbeat CPU 0 instructions: 580000000 cycles: 1122371164 heartbeat IPC: 0.407442 cumulative IPC: 0.376792 (Simulation time: 0 hr 29 min 29 sec) 
Heartbeat CPU 0 instructions: 590000000 cycles: 1146493141 heartbeat IPC: 0.41456 cumulative IPC: 0.377674 (Simulation time: 0 hr 30 min 5 sec) 
Heartbeat CPU 0 instructions: 600000000 cycles: 1170041717 heartbeat IPC: 0.424654 cumulative IPC: 0.378722 (Simulation time: 0 hr 30 min 41 sec) 
Heartbeat CPU 0 instructions: 610000001 cycles: 1193146188 heartbeat IPC: 0.432817 cumulative IPC: 0.37988 (Simulation time: 0 hr 31 min 16 sec) 
Heartbeat CPU 0 instructions: 620000000 cycles: 1215982002 heartbeat IPC: 0.437909 cumulative IPC: 0.381082 (Simulation time: 0 hr 31 min 52 sec) 
Heartbeat CPU 0 instructions: 630000001 cycles: 1238432726 heartbeat IPC: 0.44542 cumulative IPC: 0.382366 (Simulation time: 0 hr 32 min 27 sec) 
Heartbeat CPU 0 instructions: 640000000 cycles: 1260391971 heartbeat IPC: 0.455389 cumulative IPC: 0.383765 (Simulation time: 0 hr 33 min 2 sec) 
Heartbeat CPU 0 instructions: 650000001 cycles: 1282178622 heartbeat IPC: 0.458997 cumulative IPC: 0.385168 (Simulation time: 0 hr 33 min 38 sec) 
Heartbeat CPU 0 instructions: 660000000 cycles: 1296077290 heartbeat IPC: 0.719493 cumulative IPC: 0.389098 (Simulation time: 0 hr 34 min 7 sec) 
Heartbeat CPU 0 instructions: 670000000 cycles: 1308619118 heartbeat IPC: 0.797332 cumulative IPC: 0.393384 (Simulation time: 0 hr 34 min 35 sec) 
Heartbeat CPU 0 instructions: 680000000 cycles: 1321364020 heartbeat IPC: 0.784627 cumulative IPC: 0.397513 (Simulation time: 0 hr 35 min 3 sec) 
Heartbeat CPU 0 instructions: 690000002 cycles: 1334264440 heartbeat IPC: 0.775169 cumulative IPC: 0.401505 (Simulation time: 0 hr 35 min 31 sec) 
Heartbeat CPU 0 instructions: 700000000 cycles: 1347515858 heartbeat IPC: 0.754636 cumulative IPC: 0.405298 (Simulation time: 0 hr 35 min 59 sec) 
Heartbeat CPU 0 instructions: 710000001 cycles: 1360881684 heartbeat IPC: 0.748177 cumulative IPC: 0.408973 (Simulation time: 0 hr 36 min 27 sec) 
Heartbeat CPU 0 instructions: 720000000 cycles: 1374358287 heartbeat IPC: 0.742027 cumulative IPC: 0.412534 (Simulation time: 0 hr 36 min 55 sec) 
Heartbeat CPU 0 instructions: 730000001 cycles: 1388196167 heartbeat IPC: 0.722654 cumulative IPC: 0.415902 (Simulation time: 0 hr 37 min 23 sec) 
Heartbeat CPU 0 instructions: 740000000 cycles: 1402252363 heartbeat IPC: 0.71143 cumulative IPC: 0.419126 (Simulation time: 0 hr 37 min 51 sec) 
Heartbeat CPU 0 instructions: 750000002 cycles: 1416645500 heartbeat IPC: 0.694776 cumulative IPC: 0.422171 (Simulation time: 0 hr 38 min 19 sec) 
Heartbeat CPU 0 instructions: 760000000 cycles: 1431173541 heartbeat IPC: 0.688324 cumulative IPC: 0.425107 (Simulation time: 0 hr 38 min 47 sec) 
Heartbeat CPU 0 instructions: 770000000 cycles: 1446359232 heartbeat IPC: 0.658515 cumulative IPC: 0.427767 (Simulation time: 0 hr 39 min 15 sec) 
Heartbeat CPU 0 instructions: 780000000 cycles: 1461733539 heartbeat IPC: 0.650436 cumulative IPC: 0.430306 (Simulation time: 0 hr 39 min 43 sec) 
Heartbeat CPU 0 instructions: 790000001 cycles: 1477481414 heartbeat IPC: 0.635006 cumulative IPC: 0.432671 (Simulation time: 0 hr 40 min 11 sec) 
Heartbeat CPU 0 instructions: 800000000 cycles: 1493608850 heartbeat IPC: 0.620061 cumulative IPC: 0.434861 (Simulation time: 0 hr 40 min 40 sec) 
Heartbeat CPU 0 instructions: 810000000 cycles: 1510164751 heartbeat IPC: 0.604014 cumulative IPC: 0.436866 (Simulation time: 0 hr 41 min 8 sec) 
Heartbeat CPU 0 instructions: 820000000 cycles: 1527764764 heartbeat IPC: 0.568181 cumulative IPC: 0.438501 (Simulation time: 0 hr 41 min 37 sec) 
Heartbeat CPU 0 instructions: 830000001 cycles: 1545458619 heartbeat IPC: 0.565168 cumulative IPC: 0.440067 (Simulation time: 0 hr 42 min 5 sec) 
Heartbeat CPU 0 instructions: 840000000 cycles: 1564073357 heartbeat IPC: 0.537209 cumulative IPC: 0.441314 (Simulation time: 0 hr 42 min 34 sec) 
Heartbeat CPU 0 instructions: 850000001 cycles: 1583749875 heartbeat IPC: 0.50822 cumulative IPC: 0.442209 (Simulation time: 0 hr 43 min 3 sec) 
Heartbeat CPU 0 instructions: 860000000 cycles: 1604838541 heartbeat IPC: 0.474188 cumulative IPC: 0.442661 (Simulation time: 0 hr 43 min 32 sec) 
Heartbeat CPU 0 instructions: 870000000 cycles: 1627463314 heartbeat IPC: 0.441993 cumulative IPC: 0.442651 (Simulation time: 0 hr 44 min 2 sec) 
Heartbeat CPU 0 instructions: 880000000 cycles: 1653339449 heartbeat IPC: 0.386456 cumulative IPC: 0.441707 (Simulation time: 0 hr 44 min 32 sec) 
Heartbeat CPU 0 instructions: 890000000 cycles: 1684232128 heartbeat IPC: 0.323701 cumulative IPC: 0.439386 (Simulation time: 0 hr 45 min 2 sec) 
Heartbeat CPU 0 instructions: 900000000 cycles: 1717233998 heartbeat IPC: 0.303013 cumulative IPC: 0.436579 (Simulation time: 0 hr 45 min 39 sec) 
Heartbeat CPU 0 instructions: 910000001 cycles: 1744678583 heartbeat IPC: 0.364371 cumulative IPC: 0.435363 (Simulation time: 0 hr 46 min 15 sec) 
Heartbeat CPU 0 instructions: 920000000 cycles: 1775672772 heartbeat IPC: 0.322641 cumulative IPC: 0.433261 (Simulation time: 0 hr 46 min 53 sec) 
Heartbeat CPU 0 instructions: 930000003 cycles: 1807609495 heartbeat IPC: 0.313119 cumulative IPC: 0.430996 (Simulation time: 0 hr 47 min 34 sec) 
Heartbeat CPU 0 instructions: 940000000 cycles: 1837705404 heartbeat IPC: 0.332271 cumulative IPC: 0.429272 (Simulation time: 0 hr 48 min 13 sec) 
Heartbeat CPU 0 instructions: 950000003 cycles: 1865831876 heartbeat IPC: 0.355537 cumulative IPC: 0.428088 (Simulation time: 0 hr 48 min 51 sec) 
Heartbeat CPU 0 instructions: 960000000 cycles: 1892707499 heartbeat IPC: 0.372084 cumulative IPC: 0.427242 (Simulation time: 0 hr 49 min 29 sec) 
Heartbeat CPU 0 instructions: 970000000 cycles: 1913348476 heartbeat IPC: 0.484473 cumulative IPC: 0.427899 (Simulation time: 0 hr 50 min 1 sec) 
Heartbeat CPU 0 instructions: 980000000 cycles: 1930094438 heartbeat IPC: 0.597159 cumulative IPC: 0.429459 (Simulation time: 0 hr 50 min 31 sec) 
Heartbeat CPU 0 instructions: 990000000 cycles: 1949006300 heartbeat IPC: 0.528769 cumulative IPC: 0.430483 (Simulation time: 0 hr 51 min 1 sec) 
Heartbeat CPU 0 instructions: 1000000000 cycles: 1972816888 heartbeat IPC: 0.419981 cumulative IPC: 0.430348 (Simulation time: 0 hr 51 min 33 sec) 
Heartbeat CPU 0 instructions: 1010000002 cycles: 2006191663 heartbeat IPC: 0.299628 cumulative IPC: 0.428043 (Simulation time: 0 hr 52 min 11 sec) 
Heartbeat CPU 0 instructions: 1020000000 cycles: 2036731795 heartbeat IPC: 0.327438 cumulative IPC: 0.426445 (Simulation time: 0 hr 52 min 50 sec) 
Heartbeat CPU 0 instructions: 1030000002 cycles: 2065104350 heartbeat IPC: 0.352453 cumulative IPC: 0.425369 (Simulation time: 0 hr 53 min 26 sec) 
Heartbeat CPU 0 instructions: 1040000000 cycles: 2094889537 heartbeat IPC: 0.335737 cumulative IPC: 0.424021 (Simulation time: 0 hr 54 min 5 sec) 
Heartbeat CPU 0 instructions: 1050000002 cycles: 2124806357 heartbeat IPC: 0.33426 cumulative IPC: 0.422686 (Simulation time: 0 hr 54 min 43 sec) 
Heartbeat CPU 0 instructions: 1060000000 cycles: 2155163048 heartbeat IPC: 0.329417 cumulative IPC: 0.421299 (Simulation time: 0 hr 55 min 21 sec) 
Heartbeat CPU 0 instructions: 1070000000 cycles: 2184316486 heartbeat IPC: 0.343013 cumulative IPC: 0.420197 (Simulation time: 0 hr 56 min 0 sec) 
Heartbeat CPU 0 instructions: 1080000000 cycles: 2208461667 heartbeat IPC: 0.414161 cumulative IPC: 0.420127 (Simulation time: 0 hr 56 min 34 sec) 
Heartbeat CPU 0 instructions: 1090000000 cycles: 2234315863 heartbeat IPC: 0.386784 cumulative IPC: 0.419721 (Simulation time: 0 hr 57 min 8 sec) 
Heartbeat CPU 0 instructions: 1100000000 cycles: 2266647508 heartbeat IPC: 0.309294 cumulative IPC: 0.418062 (Simulation time: 0 hr 57 min 48 sec) 
Heartbeat CPU 0 instructions: 1110000000 cycles: 2296338000 heartbeat IPC: 0.336808 cumulative IPC: 0.416957 (Simulation time: 0 hr 58 min 26 sec) 
Heartbeat CPU 0 instructions: 1120000000 cycles: 2326515417 heartbeat IPC: 0.331374 cumulative IPC: 0.415789 (Simulation time: 0 hr 59 min 5 sec) 
Heartbeat CPU 0 instructions: 1130000000 cycles: 2354923396 heartbeat IPC: 0.352014 cumulative IPC: 0.414981 (Simulation time: 0 hr 59 min 44 sec) 
Heartbeat CPU 0 instructions: 1140000000 cycles: 2377696543 heartbeat IPC: 0.439114 cumulative IPC: 0.415224 (Simulation time: 1 hr 0 min 17 sec) 
Heartbeat CPU 0 instructions: 1150000000 cycles: 2397505084 heartbeat IPC: 0.504833 cumulative IPC: 0.416001 (Simulation time: 1 hr 0 min 48 sec) 
Heartbeat CPU 0 instructions: 1160000000 cycles: 2427455139 heartbeat IPC: 0.333889 cumulative IPC: 0.414938 (Simulation time: 1 hr 1 min 25 sec) 
Heartbeat CPU 0 instructions: 1170000003 cycles: 2457352764 heartbeat IPC: 0.334475 cumulative IPC: 0.413912 (Simulation time: 1 hr 2 min 4 sec) 
Heartbeat CPU 0 instructions: 1180000000 cycles: 2485689070 heartbeat IPC: 0.352904 cumulative IPC: 0.413183 (Simulation time: 1 hr 2 min 42 sec) 
Heartbeat CPU 0 instructions: 1190000000 cycles: 2505567645 heartbeat IPC: 0.503054 cumulative IPC: 0.41393 (Simulation time: 1 hr 3 min 13 sec) 
Heartbeat CPU 0 instructions: 1200000000 cycles: 2534528980 heartbeat IPC: 0.345288 cumulative IPC: 0.413108 (Simulation time: 1 hr 3 min 49 sec) 
Finished CPU 0 instructions: 1000000000 cycles: 2420671877 cumulative IPC: 0.413108 (Simulation time: 1 hr 3 min 49 sec) 

CPU 0 Branch Prediction Accuracy: 99.3561% MPKI: 1.82601

ChampSim completed all CPUs

Region of Interest Statistics

CPU 0 cumulative IPC: 0.413108 instructions: 1000000000 cycles: 2420671877
L1D TOTAL     ACCESS:  199883332  HIT:  144106221  MISS:   55777111
L1D LOAD      ACCESS:  149493451  HIT:   95801761  MISS:   53691690
L1D RFO       ACCESS:   50389881  HIT:   48304460  MISS:    2085421
L1D PREFETCH  ACCESS:          0  HIT:          0  MISS:          0
L1D WRITEBACK ACCESS:          0  HIT:          0  MISS:          0
L1D PREFETCH  REQUESTED:          0  ISSUED:          0  USEFUL:          0  USELESS:          0
L1I TOTAL     ACCESS:  451013814  HIT:  449250348  MISS:    1763466
L1I LOAD      ACCESS:  451013814  HIT:  449250348  MISS:    1763466
L1I RFO       ACCESS:          0  HIT:          0  MISS:          0
L1I PREFETCH  ACCESS:          0  HIT:          0  MISS:          0
L1I WRITEBACK ACCESS:          0  HIT:          0  MISS:          0
L1I PREFETCH  REQUESTED:          0  ISSUED:          0  USEFUL:          0  USELESS:          0
L2C TOTAL     ACCESS:   69864866  HIT:   41567185  MISS:   28297681
L2C LOAD      ACCESS:   55455036  HIT:   35208632  MISS:   20246404
L2C RFO       ACCESS:    2085400  HIT:     377567  MISS:    1707833
L2C PREFETCH  ACCESS:    9129685  HIT:    2787368  MISS:    6342317
L2C WRITEBACK ACCESS:    3194745  HIT:    3193618  MISS:       1127
L2C PREFETCH  REQUESTED:   15751591  ISSUED:   15747252  USEFUL:    2389090  USELESS:    6947909
LLC TOTAL     ACCESS:   30520167  HIT:   28401599  MISS:    2118568
LLC LOAD      ACCESS:   19919414  HIT:   19764144  MISS:     155270
LLC RFO       ACCESS:    1703790  HIT:     173294  MISS:    1530496
LLC PREFETCH  ACCESS:    6689670  HIT:    6258008  MISS:     431662
LLC WRITEBACK ACCESS:    2207293  HIT:    2206153  MISS:       1140
LLC PREFETCH  REQUESTED:          0  ISSUED:          0  USEFUL:      54063  USELESS:     411830
Major fault: 0 Minor fault: 16875

L2C Best-offset prefetcher final stats

DRAM Statistics
 CHANNEL 0
 RQ ROW_BUFFER_HIT:    1183601  ROW_BUFFER_MISS:     933549
 DBUS_CONGESTED:    3239038
 WQ ROW_BUFFER_HIT:     498160  ROW_BUFFER_MISS:    1195159  FULL:          0

 AVG_CONGESTED_CYCLE: 76
