
*** ChampSim Multicore Out-of-Order Simulator ***

Warmup Instructions: 200000000
Simulation Instructions: 1000000000
Number of CPUs: 1
LLC sets: 2048
LLC ways: 16
Off-chip DRAM Size: 4096 MB Channels: 1 Width: 64-bit Data Rate: 400 MT/s

CPU 0 runs /scratch/user/djimenez/champsim-traces/speccpu2017/xz/623.xalancbmk_s/623.xalancbmk_s-202B.champsimtrace.xz
L2C Best-offset prefetcher
Heartbeat CPU 0 instructions: 10000000 cycles: 4130723 heartbeat IPC: 2.42088 cumulative IPC: 2.42088 (Simulation time: 0 hr 0 min 20 sec) 
Heartbeat CPU 0 instructions: 20000000 cycles: 8260133 heartbeat IPC: 2.42165 cumulative IPC: 2.42127 (Simulation time: 0 hr 0 min 40 sec) 
Heartbeat CPU 0 instructions: 30000002 cycles: 12381839 heartbeat IPC: 2.42618 cumulative IPC: 2.4229 (Simulation time: 0 hr 1 min 0 sec) 
Heartbeat CPU 0 instructions: 40000000 cycles: 16500607 heartbeat IPC: 2.42791 cumulative IPC: 2.42415 (Simulation time: 0 hr 1 min 20 sec) 
Heartbeat CPU 0 instructions: 50000000 cycles: 20630328 heartbeat IPC: 2.42147 cumulative IPC: 2.42362 (Simulation time: 0 hr 1 min 40 sec) 
Heartbeat CPU 0 instructions: 60000000 cycles: 24759954 heartbeat IPC: 2.42153 cumulative IPC: 2.42327 (Simulation time: 0 hr 2 min 0 sec) 
Heartbeat CPU 0 instructions: 70000003 cycles: 28902326 heartbeat IPC: 2.41408 cumulative IPC: 2.42195 (Simulation time: 0 hr 2 min 20 sec) 
Heartbeat CPU 0 instructions: 80000000 cycles: 33032228 heartbeat IPC: 2.42136 cumulative IPC: 2.42188 (Simulation time: 0 hr 2 min 40 sec) 
Heartbeat CPU 0 instructions: 90000000 cycles: 37167583 heartbeat IPC: 2.41817 cumulative IPC: 2.42146 (Simulation time: 0 hr 3 min 1 sec) 
Heartbeat CPU 0 instructions: 100000000 cycles: 41292225 heartbeat IPC: 2.42445 cumulative IPC: 2.42176 (Simulation time: 0 hr 3 min 21 sec) 
Heartbeat CPU 0 instructions: 110000002 cycles: 45410595 heartbeat IPC: 2.42815 cumulative IPC: 2.42234 (Simulation time: 0 hr 3 min 41 sec) 
Heartbeat CPU 0 instructions: 120000000 cycles: 49540648 heartbeat IPC: 2.42128 cumulative IPC: 2.42225 (Simulation time: 0 hr 4 min 1 sec) 
Heartbeat CPU 0 instructions: 130000001 cycles: 53670966 heartbeat IPC: 2.42112 cumulative IPC: 2.42217 (Simulation time: 0 hr 4 min 21 sec) 
Heartbeat CPU 0 instructions: 140000000 cycles: 57793494 heartbeat IPC: 2.4257 cumulative IPC: 2.42242 (Simulation time: 0 hr 4 min 41 sec) 
Heartbeat CPU 0 instructions: 150000000 cycles: 61924605 heartbeat IPC: 2.42066 cumulative IPC: 2.4223 (Simulation time: 0 hr 5 min 1 sec) 
Heartbeat CPU 0 instructions: 160000000 cycles: 66056952 heartbeat IPC: 2.41993 cumulative IPC: 2.42215 (Simulation time: 0 hr 5 min 21 sec) 
Heartbeat CPU 0 instructions: 170000001 cycles: 70195299 heartbeat IPC: 2.41642 cumulative IPC: 2.42181 (Simulation time: 0 hr 5 min 41 sec) 
Heartbeat CPU 0 instructions: 180000000 cycles: 74330028 heartbeat IPC: 2.41854 cumulative IPC: 2.42163 (Simulation time: 0 hr 6 min 1 sec) 
Heartbeat CPU 0 instructions: 190000001 cycles: 78452173 heartbeat IPC: 2.42592 cumulative IPC: 2.42186 (Simulation time: 0 hr 6 min 21 sec) 
Heartbeat CPU 0 instructions: 200000000 cycles: 82582609 heartbeat IPC: 2.42105 cumulative IPC: 2.42182 (Simulation time: 0 hr 6 min 41 sec) 

Warmup complete CPU 0 instructions: 200000002 cycles: 82582610 (Simulation time: 0 hr 6 min 41 sec) 

Heartbeat CPU 0 instructions: 210000002 cycles: 99780283 heartbeat IPC: 0.581474 cumulative IPC: 0.581474 (Simulation time: 0 hr 7 min 14 sec) 
Heartbeat CPU 0 instructions: 220000000 cycles: 119610117 heartbeat IPC: 0.504291 cumulative IPC: 0.540139 (Simulation time: 0 hr 7 min 50 sec) 
Heartbeat CPU 0 instructions: 230000003 cycles: 138273852 heartbeat IPC: 0.535799 cumulative IPC: 0.538684 (Simulation time: 0 hr 8 min 25 sec) 
Heartbeat CPU 0 instructions: 240000000 cycles: 156918563 heartbeat IPC: 0.536345 cumulative IPC: 0.538098 (Simulation time: 0 hr 9 min 0 sec) 
Heartbeat CPU 0 instructions: 250000000 cycles: 176812683 heartbeat IPC: 0.502661 cumulative IPC: 0.530616 (Simulation time: 0 hr 9 min 35 sec) 
Heartbeat CPU 0 instructions: 260000000 cycles: 193894524 heartbeat IPC: 0.585417 cumulative IPC: 0.539026 (Simulation time: 0 hr 10 min 9 sec) 
Heartbeat CPU 0 instructions: 270000002 cycles: 214283591 heartbeat IPC: 0.490459 cumulative IPC: 0.531507 (Simulation time: 0 hr 10 min 45 sec) 
Heartbeat CPU 0 instructions: 280000000 cycles: 234985601 heartbeat IPC: 0.483045 cumulative IPC: 0.524924 (Simulation time: 0 hr 11 min 21 sec) 
Heartbeat CPU 0 instructions: 290000000 cycles: 253050238 heartbeat IPC: 0.553568 cumulative IPC: 0.527959 (Simulation time: 0 hr 11 min 55 sec) 
Heartbeat CPU 0 instructions: 300000000 cycles: 271974530 heartbeat IPC: 0.528421 cumulative IPC: 0.528006 (Simulation time: 0 hr 12 min 30 sec) 
Heartbeat CPU 0 instructions: 310000003 cycles: 292339810 heartbeat IPC: 0.491032 cumulative IPC: 0.524416 (Simulation time: 0 hr 13 min 6 sec) 
Heartbeat CPU 0 instructions: 320000000 cycles: 313395372 heartbeat IPC: 0.474934 cumulative IPC: 0.519902 (Simulation time: 0 hr 13 min 43 sec) 
Heartbeat CPU 0 instructions: 330000002 cycles: 331297965 heartbeat IPC: 0.558578 cumulative IPC: 0.522686 (Simulation time: 0 hr 14 min 17 sec) 
Heartbeat CPU 0 instructions: 340000000 cycles: 349525472 heartbeat IPC: 0.548621 cumulative IPC: 0.524457 (Simulation time: 0 hr 14 min 52 sec) 
Heartbeat CPU 0 instructions: 350000001 cycles: 367742527 heartbeat IPC: 0.548936 cumulative IPC: 0.526021 (Simulation time: 0 hr 15 min 26 sec) 
Heartbeat CPU 0 instructions: 360000000 cycles: 388076398 heartbeat IPC: 0.49179 cumulative IPC: 0.523742 (Simulation time: 0 hr 16 min 2 sec) 
Heartbeat CPU 0 instructions: 370000001 cycles: 406487673 heartbeat IPC: 0.543145 cumulative IPC: 0.524845 (Simulation time: 0 hr 16 min 36 sec) 
Heartbeat CPU 0 instructions: 380000000 cycles: 428347788 heartbeat IPC: 0.457454 cumulative IPC: 0.520585 (Simulation time: 0 hr 17 min 14 sec) 
Heartbeat CPU 0 instructions: 390000003 cycles: 449326083 heartbeat IPC: 0.476683 cumulative IPC: 0.518073 (Simulation time: 0 hr 17 min 50 sec) 
Heartbeat CPU 0 instructions: 400000000 cycles: 466169123 heartbeat IPC: 0.593717 cumulative IPC: 0.521395 (Simulation time: 0 hr 18 min 23 sec) 
Heartbeat CPU 0 instructions: 410000000 cycles: 485053456 heartbeat IPC: 0.529539 cumulative IPC: 0.521777 (Simulation time: 0 hr 18 min 58 sec) 
Heartbeat CPU 0 instructions: 420000000 cycles: 502370694 heartbeat IPC: 0.577459 cumulative IPC: 0.524074 (Simulation time: 0 hr 19 min 31 sec) 
Heartbeat CPU 0 instructions: 430000001 cycles: 515063192 heartbeat IPC: 0.787867 cumulative IPC: 0.531816 (Simulation time: 0 hr 20 min 0 sec) 
Heartbeat CPU 0 instructions: 440000000 cycles: 527896521 heartbeat IPC: 0.779221 cumulative IPC: 0.538946 (Simulation time: 0 hr 20 min 29 sec) 
Heartbeat CPU 0 instructions: 450000003 cycles: 540847057 heartbeat IPC: 0.772169 cumulative IPC: 0.545537 (Simulation time: 0 hr 20 min 58 sec) 
Heartbeat CPU 0 instructions: 460000000 cycles: 553922989 heartbeat IPC: 0.764764 cumulative IPC: 0.551618 (Simulation time: 0 hr 21 min 28 sec) 
Heartbeat CPU 0 instructions: 470000000 cycles: 567013622 heartbeat IPC: 0.763905 cumulative IPC: 0.557355 (Simulation time: 0 hr 21 min 58 sec) 
Heartbeat CPU 0 instructions: 480000000 cycles: 580142039 heartbeat IPC: 0.761706 cumulative IPC: 0.562747 (Simulation time: 0 hr 22 min 27 sec) 
Heartbeat CPU 0 instructions: 490000000 cycles: 593224583 heartbeat IPC: 0.764377 cumulative IPC: 0.567913 (Simulation time: 0 hr 22 min 57 sec) 
Heartbeat CPU 0 instructions: 500000000 cycles: 606286403 heartbeat IPC: 0.76559 cumulative IPC: 0.572843 (Simulation time: 0 hr 23 min 27 sec) 
Heartbeat CPU 0 instructions: 510000000 cycles: 619296869 heartbeat IPC: 0.768612 cumulative IPC: 0.577588 (Simulation time: 0 hr 23 min 57 sec) 
Heartbeat CPU 0 instructions: 520000000 cycles: 632290487 heartbeat IPC: 0.769609 cumulative IPC: 0.582127 (Simulation time: 0 hr 24 min 26 sec) 
Heartbeat CPU 0 instructions: 530000002 cycles: 645224844 heartbeat IPC: 0.773135 cumulative IPC: 0.586518 (Simulation time: 0 hr 24 min 56 sec) 
Heartbeat CPU 0 instructions: 540000000 cycles: 658168992 heartbeat IPC: 0.77255 cumulative IPC: 0.590702 (Simulation time: 0 hr 25 min 26 sec) 
Heartbeat CPU 0 instructions: 550000002 cycles: 671069764 heartbeat IPC: 0.775148 cumulative IPC: 0.594745 (Simulation time: 0 hr 25 min 56 sec) 
Heartbeat CPU 0 instructions: 560000000 cycles: 683963462 heartbeat IPC: 0.775573 cumulative IPC: 0.598622 (Simulation time: 0 hr 26 min 25 sec) 
Heartbeat CPU 0 instructions: 570000001 cycles: 696854141 heartbeat IPC: 0.775754 cumulative IPC: 0.60234 (Simulation time: 0 hr 26 min 55 sec) 
Heartbeat CPU 0 instructions: 580000000 cycles: 709692188 heartbeat IPC: 0.778935 cumulative IPC: 0.605955 (Simulation time: 0 hr 27 min 25 sec) 
Heartbeat CPU 0 instructions: 590000002 cycles: 722578973 heartbeat IPC: 0.775989 cumulative IPC: 0.609378 (Simulation time: 0 hr 27 min 55 sec) 
Heartbeat CPU 0 instructions: 600000000 cycles: 735442331 heartbeat IPC: 0.777402 cumulative IPC: 0.612689 (Simulation time: 0 hr 28 min 25 sec) 
Heartbeat CPU 0 instructions: 610000002 cycles: 748228603 heartbeat IPC: 0.782089 cumulative IPC: 0.615943 (Simulation time: 0 hr 28 min 54 sec) 
Heartbeat CPU 0 instructions: 620000000 cycles: 761114142 heartbeat IPC: 0.776064 cumulative IPC: 0.618984 (Simulation time: 0 hr 29 min 24 sec) 
Heartbeat CPU 0 instructions: 630000002 cycles: 774136770 heartbeat IPC: 0.767894 cumulative IPC: 0.621788 (Simulation time: 0 hr 29 min 54 sec) 
Heartbeat CPU 0 instructions: 640000000 cycles: 787108711 heartbeat IPC: 0.770895 cumulative IPC: 0.624533 (Simulation time: 0 hr 30 min 23 sec) 
Heartbeat CPU 0 instructions: 650000001 cycles: 800074545 heartbeat IPC: 0.771258 cumulative IPC: 0.627185 (Simulation time: 0 hr 30 min 53 sec) 
Heartbeat CPU 0 instructions: 660000000 cycles: 813035763 heartbeat IPC: 0.771532 cumulative IPC: 0.629746 (Simulation time: 0 hr 31 min 23 sec) 
Heartbeat CPU 0 instructions: 670000000 cycles: 826017794 heartbeat IPC: 0.770296 cumulative IPC: 0.6322 (Simulation time: 0 hr 31 min 52 sec) 
Heartbeat CPU 0 instructions: 680000000 cycles: 838991338 heartbeat IPC: 0.770799 cumulative IPC: 0.634578 (Simulation time: 0 hr 32 min 22 sec) 
Heartbeat CPU 0 instructions: 690000001 cycles: 851929723 heartbeat IPC: 0.772894 cumulative IPC: 0.636904 (Simulation time: 0 hr 32 min 52 sec) 
Heartbeat CPU 0 instructions: 700000000 cycles: 864847488 heartbeat IPC: 0.774128 cumulative IPC: 0.63917 (Simulation time: 0 hr 33 min 21 sec) 
Heartbeat CPU 0 instructions: 710000000 cycles: 877773796 heartbeat IPC: 0.773616 cumulative IPC: 0.641355 (Simulation time: 0 hr 33 min 51 sec) 
Heartbeat CPU 0 instructions: 720000000 cycles: 890659846 heartbeat IPC: 0.776033 cumulative IPC: 0.643503 (Simulation time: 0 hr 34 min 21 sec) 
Heartbeat CPU 0 instructions: 730000003 cycles: 903547190 heartbeat IPC: 0.775955 cumulative IPC: 0.645582 (Simulation time: 0 hr 34 min 50 sec) 
Heartbeat CPU 0 instructions: 740000000 cycles: 916412504 heartbeat IPC: 0.777284 cumulative IPC: 0.647614 (Simulation time: 0 hr 35 min 20 sec) 
Heartbeat CPU 0 instructions: 750000000 cycles: 929282739 heartbeat IPC: 0.776987 cumulative IPC: 0.649581 (Simulation time: 0 hr 35 min 50 sec) 
Heartbeat CPU 0 instructions: 760000000 cycles: 942130621 heartbeat IPC: 0.778338 cumulative IPC: 0.651505 (Simulation time: 0 hr 36 min 20 sec) 
Heartbeat CPU 0 instructions: 770000002 cycles: 954999855 heartbeat IPC: 0.777047 cumulative IPC: 0.653357 (Simulation time: 0 hr 36 min 49 sec) 
Heartbeat CPU 0 instructions: 780000000 cycles: 967871453 heartbeat IPC: 0.776904 cumulative IPC: 0.655153 (Simulation time: 0 hr 37 min 19 sec) 
Heartbeat CPU 0 instructions: 790000002 cycles: 980686769 heartbeat IPC: 0.780316 cumulative IPC: 0.656939 (Simulation time: 0 hr 37 min 49 sec) 
Heartbeat CPU 0 instructions: 800000000 cycles: 993516407 heartbeat IPC: 0.779445 cumulative IPC: 0.658665 (Simulation time: 0 hr 38 min 18 sec) 
Heartbeat CPU 0 instructions: 810000002 cycles: 1006338804 heartbeat IPC: 0.779886 cumulative IPC: 0.660347 (Simulation time: 0 hr 38 min 48 sec) 
Heartbeat CPU 0 instructions: 820000000 cycles: 1019151803 heartbeat IPC: 0.780457 cumulative IPC: 0.661991 (Simulation time: 0 hr 39 min 18 sec) 
Heartbeat CPU 0 instructions: 830000000 cycles: 1031990664 heartbeat IPC: 0.778885 cumulative IPC: 0.663571 (Simulation time: 0 hr 39 min 48 sec) 
Heartbeat CPU 0 instructions: 840000000 cycles: 1044786229 heartbeat IPC: 0.781521 cumulative IPC: 0.66514 (Simulation time: 0 hr 40 min 17 sec) 
Heartbeat CPU 0 instructions: 850000002 cycles: 1057605638 heartbeat IPC: 0.780067 cumulative IPC: 0.666651 (Simulation time: 0 hr 40 min 47 sec) 
Heartbeat CPU 0 instructions: 860000000 cycles: 1070477110 heartbeat IPC: 0.776912 cumulative IPC: 0.668088 (Simulation time: 0 hr 41 min 17 sec) 
Heartbeat CPU 0 instructions: 870000000 cycles: 1083384809 heartbeat IPC: 0.774731 cumulative IPC: 0.669463 (Simulation time: 0 hr 41 min 46 sec) 
Heartbeat CPU 0 instructions: 880000000 cycles: 1096298090 heartbeat IPC: 0.774397 cumulative IPC: 0.6708 (Simulation time: 0 hr 42 min 16 sec) 
Heartbeat CPU 0 instructions: 890000001 cycles: 1109229261 heartbeat IPC: 0.773325 cumulative IPC: 0.672091 (Simulation time: 0 hr 42 min 46 sec) 
Heartbeat CPU 0 instructions: 900000000 cycles: 1122152902 heartbeat IPC: 0.773776 cumulative IPC: 0.673355 (Simulation time: 0 hr 43 min 16 sec) 
Heartbeat CPU 0 instructions: 910000002 cycles: 1135053807 heartbeat IPC: 0.77514 cumulative IPC: 0.674603 (Simulation time: 0 hr 43 min 45 sec) 
Heartbeat CPU 0 instructions: 920000000 cycles: 1147979146 heartbeat IPC: 0.773674 cumulative IPC: 0.675805 (Simulation time: 0 hr 44 min 15 sec) 
Heartbeat CPU 0 instructions: 930000000 cycles: 1160850069 heartbeat IPC: 0.776945 cumulative IPC: 0.677012 (Simulation time: 0 hr 44 min 45 sec) 
Heartbeat CPU 0 instructions: 940000000 cycles: 1173747609 heartbeat IPC: 0.775342 cumulative IPC: 0.678174 (Simulation time: 0 hr 45 min 14 sec) 
Heartbeat CPU 0 instructions: 950000001 cycles: 1186610277 heartbeat IPC: 0.777444 cumulative IPC: 0.679331 (Simulation time: 0 hr 45 min 44 sec) 
Heartbeat CPU 0 instructions: 960000000 cycles: 1199563555 heartbeat IPC: 0.772005 cumulative IPC: 0.680405 (Simulation time: 0 hr 46 min 14 sec) 
Heartbeat CPU 0 instructions: 970000001 cycles: 1212518261 heartbeat IPC: 0.77192 cumulative IPC: 0.681455 (Simulation time: 0 hr 46 min 44 sec) 
Heartbeat CPU 0 instructions: 980000000 cycles: 1225516580 heartbeat IPC: 0.76933 cumulative IPC: 0.682454 (Simulation time: 0 hr 47 min 13 sec) 
Heartbeat CPU 0 instructions: 990000000 cycles: 1238465289 heartbeat IPC: 0.772278 cumulative IPC: 0.68346 (Simulation time: 0 hr 47 min 43 sec) 
Heartbeat CPU 0 instructions: 1000000000 cycles: 1251392717 heartbeat IPC: 0.773549 cumulative IPC: 0.684457 (Simulation time: 0 hr 48 min 13 sec) 
Heartbeat CPU 0 instructions: 1010000000 cycles: 1264313251 heartbeat IPC: 0.773962 cumulative IPC: 0.685435 (Simulation time: 0 hr 48 min 43 sec) 
Heartbeat CPU 0 instructions: 1020000000 cycles: 1277264039 heartbeat IPC: 0.772154 cumulative IPC: 0.686375 (Simulation time: 0 hr 49 min 13 sec) 
Heartbeat CPU 0 instructions: 1030000001 cycles: 1290170217 heartbeat IPC: 0.774823 cumulative IPC: 0.687321 (Simulation time: 0 hr 49 min 42 sec) 
Heartbeat CPU 0 instructions: 1040000000 cycles: 1303074077 heartbeat IPC: 0.774962 cumulative IPC: 0.688247 (Simulation time: 0 hr 50 min 12 sec) 
Heartbeat CPU 0 instructions: 1050000002 cycles: 1316005933 heartbeat IPC: 0.773284 cumulative IPC: 0.689139 (Simulation time: 0 hr 50 min 42 sec) 
Heartbeat CPU 0 instructions: 1060000000 cycles: 1328917808 heartbeat IPC: 0.774481 cumulative IPC: 0.690023 (Simulation time: 0 hr 51 min 12 sec) 
Heartbeat CPU 0 instructions: 1070000000 cycles: 1341796821 heartbeat IPC: 0.776457 cumulative IPC: 0.690907 (Simulation time: 0 hr 51 min 41 sec) 
Heartbeat CPU 0 instructions: 1080000000 cycles: 1354670582 heartbeat IPC: 0.776774 cumulative IPC: 0.691776 (Simulation time: 0 hr 52 min 11 sec) 
Heartbeat CPU 0 instructions: 1090000002 cycles: 1367586002 heartbeat IPC: 0.774268 cumulative IPC: 0.692605 (Simulation time: 0 hr 52 min 41 sec) 
Heartbeat CPU 0 instructions: 1100000000 cycles: 1380470122 heartbeat IPC: 0.776149 cumulative IPC: 0.693435 (Simulation time: 0 hr 53 min 11 sec) 
Heartbeat CPU 0 instructions: 1110000003 cycles: 1393347744 heartbeat IPC: 0.776541 cumulative IPC: 0.694251 (Simulation time: 0 hr 53 min 40 sec) 
Heartbeat CPU 0 instructions: 1120000000 cycles: 1406213927 heartbeat IPC: 0.777231 cumulative IPC: 0.695058 (Simulation time: 0 hr 54 min 10 sec) 
Heartbeat CPU 0 instructions: 1130000002 cycles: 1419099906 heartbeat IPC: 0.776037 cumulative IPC: 0.695838 (Simulation time: 0 hr 54 min 40 sec) 
Heartbeat CPU 0 instructions: 1140000000 cycles: 1431977194 heartbeat IPC: 0.776561 cumulative IPC: 0.696609 (Simulation time: 0 hr 55 min 10 sec) 
Heartbeat CPU 0 instructions: 1150000003 cycles: 1444841957 heartbeat IPC: 0.777317 cumulative IPC: 0.697371 (Simulation time: 0 hr 55 min 39 sec) 
Heartbeat CPU 0 instructions: 1160000000 cycles: 1457701546 heartbeat IPC: 0.77763 cumulative IPC: 0.698121 (Simulation time: 0 hr 56 min 9 sec) 
Heartbeat CPU 0 instructions: 1170000002 cycles: 1470553060 heartbeat IPC: 0.778119 cumulative IPC: 0.698862 (Simulation time: 0 hr 56 min 39 sec) 
Heartbeat CPU 0 instructions: 1180000000 cycles: 1483473217 heartbeat IPC: 0.773984 cumulative IPC: 0.699555 (Simulation time: 0 hr 57 min 9 sec) 
Heartbeat CPU 0 instructions: 1190000002 cycles: 1496434996 heartbeat IPC: 0.771499 cumulative IPC: 0.700215 (Simulation time: 0 hr 57 min 38 sec) 
Heartbeat CPU 0 instructions: 1200000000 cycles: 1509432543 heartbeat IPC: 0.769376 cumulative IPC: 0.700845 (Simulation time: 0 hr 58 min 8 sec) 
Finished CPU 0 instructions: 1000000001 cycles: 1426849946 cumulative IPC: 0.700845 (Simulation time: 0 hr 58 min 8 sec) 

CPU 0 Branch Prediction Accuracy: 99.9465% MPKI: 0.136668

ChampSim completed all CPUs

Region of Interest Statistics

CPU 0 cumulative IPC: 0.700845 instructions: 1000000001 cycles: 1426849946
L1D TOTAL     ACCESS:  207368721  HIT:  180337616  MISS:   27031105
L1D LOAD      ACCESS:  187563521  HIT:  160532417  MISS:   27031104
L1D RFO       ACCESS:   19805200  HIT:   19805199  MISS:          1
L1D PREFETCH  ACCESS:          0  HIT:          0  MISS:          0
L1D WRITEBACK ACCESS:          0  HIT:          0  MISS:          0
L1D PREFETCH  REQUESTED:          0  ISSUED:          0  USEFUL:          0  USELESS:          0
L1I TOTAL     ACCESS:  345982470  HIT:  345982459  MISS:         11
L1I LOAD      ACCESS:  345982470  HIT:  345982459  MISS:         11
L1I RFO       ACCESS:          0  HIT:          0  MISS:          0
L1I PREFETCH  ACCESS:          0  HIT:          0  MISS:          0
L1I WRITEBACK ACCESS:          0  HIT:          0  MISS:          0
L1I PREFETCH  REQUESTED:          0  ISSUED:          0  USEFUL:          0  USELESS:          0
L2C TOTAL     ACCESS:   49293135  HIT:   22733566  MISS:   26559569
L2C LOAD      ACCESS:   27031115  HIT:   22611595  MISS:    4419520
L2C RFO       ACCESS:          1  HIT:          0  MISS:          1
L2C PREFETCH  ACCESS:   22259914  HIT:     119866  MISS:   22140048
L2C WRITEBACK ACCESS:       2105  HIT:       2105  MISS:          0
L2C PREFETCH  REQUESTED:   28077891  ISSUED:   28077891  USEFUL:   26306356  USELESS:     334487
LLC TOTAL     ACCESS:   26568524  HIT:   22296569  MISS:    4271955
LLC LOAD      ACCESS:    3130034  HIT:    2619322  MISS:     510712
LLC RFO       ACCESS:          1  HIT:          0  MISS:          1
LLC PREFETCH  ACCESS:   23436709  HIT:   19675467  MISS:    3761242
LLC WRITEBACK ACCESS:       1780  HIT:       1780  MISS:          0
LLC PREFETCH  REQUESTED:          0  ISSUED:          0  USEFUL:      62187  USELESS:    7349179
Major fault: 0 Minor fault: 4525

L2C Best-offset prefetcher final stats

DRAM Statistics
 CHANNEL 0
 RQ ROW_BUFFER_HIT:    4123528  ROW_BUFFER_MISS:     148352
 DBUS_CONGESTED:    3964726
 WQ ROW_BUFFER_HIT:          0  ROW_BUFFER_MISS:          0  FULL:          0

 AVG_CONGESTED_CYCLE: 75
