
*** ChampSim Multicore Out-of-Order Simulator ***

Warmup Instructions: 200000000
Simulation Instructions: 1000000000
Number of CPUs: 1
LLC sets: 2048
LLC ways: 16
Off-chip DRAM Size: 4096 MB Channels: 1 Width: 64-bit Data Rate: 400 MT/s

CPU 0 runs /scratch/user/djimenez/champsim-traces/speccpu2017/xz/625.x264_s/625.x264_s-18B.champsimtrace.xz
L2C Best-offset prefetcher
Heartbeat CPU 0 instructions: 10000003 cycles: 3849065 heartbeat IPC: 2.59803 cumulative IPC: 2.59803 (Simulation time: 0 hr 0 min 17 sec) 
Heartbeat CPU 0 instructions: 20000000 cycles: 7704932 heartbeat IPC: 2.59345 cumulative IPC: 2.59574 (Simulation time: 0 hr 0 min 35 sec) 
Heartbeat CPU 0 instructions: 30000001 cycles: 11527944 heartbeat IPC: 2.61574 cumulative IPC: 2.60237 (Simulation time: 0 hr 0 min 52 sec) 
Heartbeat CPU 0 instructions: 40000000 cycles: 15344399 heartbeat IPC: 2.62023 cumulative IPC: 2.60681 (Simulation time: 0 hr 1 min 9 sec) 
Heartbeat CPU 0 instructions: 50000000 cycles: 19164442 heartbeat IPC: 2.61777 cumulative IPC: 2.609 (Simulation time: 0 hr 1 min 26 sec) 
Heartbeat CPU 0 instructions: 60000000 cycles: 22985648 heartbeat IPC: 2.61697 cumulative IPC: 2.61032 (Simulation time: 0 hr 1 min 42 sec) 
Heartbeat CPU 0 instructions: 70000001 cycles: 26809484 heartbeat IPC: 2.61518 cumulative IPC: 2.61102 (Simulation time: 0 hr 1 min 59 sec) 
Heartbeat CPU 0 instructions: 80000000 cycles: 30633312 heartbeat IPC: 2.61518 cumulative IPC: 2.61154 (Simulation time: 0 hr 2 min 16 sec) 
Heartbeat CPU 0 instructions: 90000003 cycles: 34458575 heartbeat IPC: 2.6142 cumulative IPC: 2.61183 (Simulation time: 0 hr 2 min 33 sec) 
Heartbeat CPU 0 instructions: 100000000 cycles: 38279240 heartbeat IPC: 2.61734 cumulative IPC: 2.61238 (Simulation time: 0 hr 2 min 49 sec) 
Heartbeat CPU 0 instructions: 110000001 cycles: 42092522 heartbeat IPC: 2.62241 cumulative IPC: 2.61329 (Simulation time: 0 hr 3 min 6 sec) 
Heartbeat CPU 0 instructions: 120000000 cycles: 45907899 heartbeat IPC: 2.62097 cumulative IPC: 2.61393 (Simulation time: 0 hr 3 min 24 sec) 
Heartbeat CPU 0 instructions: 130000003 cycles: 49725902 heartbeat IPC: 2.61917 cumulative IPC: 2.61433 (Simulation time: 0 hr 3 min 41 sec) 
Heartbeat CPU 0 instructions: 140000000 cycles: 53555222 heartbeat IPC: 2.61143 cumulative IPC: 2.61412 (Simulation time: 0 hr 3 min 54 sec) 
Heartbeat CPU 0 instructions: 150000003 cycles: 57613040 heartbeat IPC: 2.46438 cumulative IPC: 2.60358 (Simulation time: 0 hr 4 min 10 sec) 
Heartbeat CPU 0 instructions: 160000000 cycles: 61784515 heartbeat IPC: 2.39723 cumulative IPC: 2.58965 (Simulation time: 0 hr 4 min 25 sec) 
Heartbeat CPU 0 instructions: 170000001 cycles: 65808153 heartbeat IPC: 2.48531 cumulative IPC: 2.58327 (Simulation time: 0 hr 4 min 40 sec) 
Heartbeat CPU 0 instructions: 180000000 cycles: 69977097 heartbeat IPC: 2.39869 cumulative IPC: 2.57227 (Simulation time: 0 hr 4 min 55 sec) 
Heartbeat CPU 0 instructions: 190000000 cycles: 74163249 heartbeat IPC: 2.38883 cumulative IPC: 2.56192 (Simulation time: 0 hr 5 min 10 sec) 
Heartbeat CPU 0 instructions: 200000000 cycles: 78180335 heartbeat IPC: 2.48937 cumulative IPC: 2.55819 (Simulation time: 0 hr 5 min 25 sec) 

Warmup complete CPU 0 instructions: 200000002 cycles: 78180336 (Simulation time: 0 hr 5 min 25 sec) 

Heartbeat CPU 0 instructions: 210000001 cycles: 85011474 heartbeat IPC: 1.46388 cumulative IPC: 1.46388 (Simulation time: 0 hr 5 min 45 sec) 
Heartbeat CPU 0 instructions: 220000000 cycles: 92013844 heartbeat IPC: 1.42809 cumulative IPC: 1.44576 (Simulation time: 0 hr 6 min 5 sec) 
Heartbeat CPU 0 instructions: 230000000 cycles: 99035964 heartbeat IPC: 1.42407 cumulative IPC: 1.43846 (Simulation time: 0 hr 6 min 25 sec) 
Heartbeat CPU 0 instructions: 240000000 cycles: 105963879 heartbeat IPC: 1.44344 cumulative IPC: 1.4397 (Simulation time: 0 hr 6 min 45 sec) 
Heartbeat CPU 0 instructions: 250000001 cycles: 113027217 heartbeat IPC: 1.41576 cumulative IPC: 1.43485 (Simulation time: 0 hr 7 min 5 sec) 
Heartbeat CPU 0 instructions: 260000000 cycles: 119888054 heartbeat IPC: 1.45755 cumulative IPC: 1.43858 (Simulation time: 0 hr 7 min 25 sec) 
Heartbeat CPU 0 instructions: 270000000 cycles: 126781803 heartbeat IPC: 1.45059 cumulative IPC: 1.44029 (Simulation time: 0 hr 7 min 45 sec) 
Heartbeat CPU 0 instructions: 280000000 cycles: 133844857 heartbeat IPC: 1.41582 cumulative IPC: 1.43718 (Simulation time: 0 hr 8 min 5 sec) 
Heartbeat CPU 0 instructions: 290000001 cycles: 140706817 heartbeat IPC: 1.45731 cumulative IPC: 1.43939 (Simulation time: 0 hr 8 min 24 sec) 
Heartbeat CPU 0 instructions: 300000000 cycles: 147520446 heartbeat IPC: 1.46765 cumulative IPC: 1.44217 (Simulation time: 0 hr 8 min 44 sec) 
Heartbeat CPU 0 instructions: 310000000 cycles: 154584237 heartbeat IPC: 1.41567 cumulative IPC: 1.43972 (Simulation time: 0 hr 9 min 4 sec) 
Heartbeat CPU 0 instructions: 320000000 cycles: 161407722 heartbeat IPC: 1.46553 cumulative IPC: 1.44183 (Simulation time: 0 hr 9 min 24 sec) 
Heartbeat CPU 0 instructions: 330000000 cycles: 168206200 heartbeat IPC: 1.47092 cumulative IPC: 1.44403 (Simulation time: 0 hr 9 min 44 sec) 
Heartbeat CPU 0 instructions: 340000000 cycles: 175004914 heartbeat IPC: 1.47087 cumulative IPC: 1.44591 (Simulation time: 0 hr 10 min 4 sec) 
Heartbeat CPU 0 instructions: 350000003 cycles: 181831960 heartbeat IPC: 1.46476 cumulative IPC: 1.44716 (Simulation time: 0 hr 10 min 24 sec) 
Heartbeat CPU 0 instructions: 360000000 cycles: 188625019 heartbeat IPC: 1.47209 cumulative IPC: 1.44869 (Simulation time: 0 hr 10 min 44 sec) 
Heartbeat CPU 0 instructions: 370000000 cycles: 195422274 heartbeat IPC: 1.47118 cumulative IPC: 1.44999 (Simulation time: 0 hr 11 min 4 sec) 
Heartbeat CPU 0 instructions: 380000000 cycles: 202233052 heartbeat IPC: 1.46826 cumulative IPC: 1.451 (Simulation time: 0 hr 11 min 24 sec) 
Heartbeat CPU 0 instructions: 390000003 cycles: 209077886 heartbeat IPC: 1.46096 cumulative IPC: 1.45152 (Simulation time: 0 hr 11 min 43 sec) 
Heartbeat CPU 0 instructions: 400000000 cycles: 225849147 heartbeat IPC: 0.596258 cumulative IPC: 1.35438 (Simulation time: 0 hr 12 min 12 sec) 
Heartbeat CPU 0 instructions: 410000002 cycles: 230748697 heartbeat IPC: 2.041 cumulative IPC: 1.37643 (Simulation time: 0 hr 12 min 31 sec) 
Heartbeat CPU 0 instructions: 420000000 cycles: 237076964 heartbeat IPC: 1.58021 cumulative IPC: 1.38455 (Simulation time: 0 hr 12 min 51 sec) 
Heartbeat CPU 0 instructions: 430000000 cycles: 244777819 heartbeat IPC: 1.29856 cumulative IPC: 1.38057 (Simulation time: 0 hr 13 min 12 sec) 
Heartbeat CPU 0 instructions: 440000000 cycles: 251450905 heartbeat IPC: 1.49856 cumulative IPC: 1.38512 (Simulation time: 0 hr 13 min 32 sec) 
Heartbeat CPU 0 instructions: 450000002 cycles: 258029301 heartbeat IPC: 1.52013 cumulative IPC: 1.39006 (Simulation time: 0 hr 13 min 52 sec) 
Heartbeat CPU 0 instructions: 460000000 cycles: 264765106 heartbeat IPC: 1.4846 cumulative IPC: 1.39347 (Simulation time: 0 hr 14 min 13 sec) 
Heartbeat CPU 0 instructions: 470000000 cycles: 271539919 heartbeat IPC: 1.47606 cumulative IPC: 1.39636 (Simulation time: 0 hr 14 min 33 sec) 
Heartbeat CPU 0 instructions: 480000000 cycles: 278278318 heartbeat IPC: 1.48403 cumulative IPC: 1.39931 (Simulation time: 0 hr 14 min 54 sec) 
Heartbeat CPU 0 instructions: 490000002 cycles: 285050613 heartbeat IPC: 1.4766 cumulative IPC: 1.40184 (Simulation time: 0 hr 15 min 14 sec) 
Heartbeat CPU 0 instructions: 500000000 cycles: 291803780 heartbeat IPC: 1.48079 cumulative IPC: 1.40434 (Simulation time: 0 hr 15 min 35 sec) 
Heartbeat CPU 0 instructions: 510000001 cycles: 298537641 heartbeat IPC: 1.48503 cumulative IPC: 1.40681 (Simulation time: 0 hr 15 min 55 sec) 
Heartbeat CPU 0 instructions: 520000000 cycles: 305158277 heartbeat IPC: 1.51043 cumulative IPC: 1.40983 (Simulation time: 0 hr 16 min 16 sec) 
Heartbeat CPU 0 instructions: 530000000 cycles: 311827427 heartbeat IPC: 1.49944 cumulative IPC: 1.41239 (Simulation time: 0 hr 16 min 36 sec) 
Heartbeat CPU 0 instructions: 540000000 cycles: 318557307 heartbeat IPC: 1.48591 cumulative IPC: 1.41444 (Simulation time: 0 hr 16 min 56 sec) 
Heartbeat CPU 0 instructions: 550000003 cycles: 325110819 heartbeat IPC: 1.5259 cumulative IPC: 1.4174 (Simulation time: 0 hr 17 min 17 sec) 
Heartbeat CPU 0 instructions: 560000000 cycles: 331729737 heartbeat IPC: 1.51082 cumulative IPC: 1.41984 (Simulation time: 0 hr 17 min 37 sec) 
Heartbeat CPU 0 instructions: 570000001 cycles: 348039304 heartbeat IPC: 0.613137 cumulative IPC: 1.37109 (Simulation time: 0 hr 18 min 5 sec) 
Heartbeat CPU 0 instructions: 580000000 cycles: 353258730 heartbeat IPC: 1.91592 cumulative IPC: 1.38142 (Simulation time: 0 hr 18 min 25 sec) 
Heartbeat CPU 0 instructions: 590000002 cycles: 360548656 heartbeat IPC: 1.37176 cumulative IPC: 1.38117 (Simulation time: 0 hr 18 min 46 sec) 
Heartbeat CPU 0 instructions: 600000000 cycles: 367959372 heartbeat IPC: 1.3494 cumulative IPC: 1.38036 (Simulation time: 0 hr 19 min 8 sec) 
Heartbeat CPU 0 instructions: 610000001 cycles: 375387104 heartbeat IPC: 1.34631 cumulative IPC: 1.37951 (Simulation time: 0 hr 19 min 30 sec) 
Heartbeat CPU 0 instructions: 620000000 cycles: 382788388 heartbeat IPC: 1.35112 cumulative IPC: 1.37882 (Simulation time: 0 hr 19 min 52 sec) 
Heartbeat CPU 0 instructions: 630000001 cycles: 390195308 heartbeat IPC: 1.35009 cumulative IPC: 1.37814 (Simulation time: 0 hr 20 min 14 sec) 
Heartbeat CPU 0 instructions: 640000000 cycles: 397577995 heartbeat IPC: 1.35452 cumulative IPC: 1.37759 (Simulation time: 0 hr 20 min 36 sec) 
Heartbeat CPU 0 instructions: 650000000 cycles: 404959515 heartbeat IPC: 1.35473 cumulative IPC: 1.37708 (Simulation time: 0 hr 20 min 58 sec) 
Heartbeat CPU 0 instructions: 660000000 cycles: 412279530 heartbeat IPC: 1.36612 cumulative IPC: 1.37684 (Simulation time: 0 hr 21 min 20 sec) 
Heartbeat CPU 0 instructions: 670000002 cycles: 427185297 heartbeat IPC: 0.670881 cumulative IPC: 1.34669 (Simulation time: 0 hr 21 min 47 sec) 
Heartbeat CPU 0 instructions: 680000000 cycles: 433051280 heartbeat IPC: 1.70474 cumulative IPC: 1.3526 (Simulation time: 0 hr 22 min 7 sec) 
Heartbeat CPU 0 instructions: 690000000 cycles: 440571864 heartbeat IPC: 1.32968 cumulative IPC: 1.35213 (Simulation time: 0 hr 22 min 29 sec) 
Heartbeat CPU 0 instructions: 700000000 cycles: 447948010 heartbeat IPC: 1.35572 cumulative IPC: 1.3522 (Simulation time: 0 hr 22 min 51 sec) 
Heartbeat CPU 0 instructions: 710000000 cycles: 455332877 heartbeat IPC: 1.35412 cumulative IPC: 1.35224 (Simulation time: 0 hr 23 min 13 sec) 
Heartbeat CPU 0 instructions: 720000000 cycles: 462696339 heartbeat IPC: 1.35806 cumulative IPC: 1.35235 (Simulation time: 0 hr 23 min 35 sec) 
Heartbeat CPU 0 instructions: 730000000 cycles: 470108229 heartbeat IPC: 1.34918 cumulative IPC: 1.35229 (Simulation time: 0 hr 23 min 57 sec) 
Heartbeat CPU 0 instructions: 740000000 cycles: 477489556 heartbeat IPC: 1.35477 cumulative IPC: 1.35234 (Simulation time: 0 hr 24 min 19 sec) 
Heartbeat CPU 0 instructions: 750000003 cycles: 484847591 heartbeat IPC: 1.35906 cumulative IPC: 1.35246 (Simulation time: 0 hr 24 min 41 sec) 
Heartbeat CPU 0 instructions: 760000000 cycles: 501327681 heartbeat IPC: 0.606793 cumulative IPC: 1.32342 (Simulation time: 0 hr 25 min 10 sec) 
Heartbeat CPU 0 instructions: 770000003 cycles: 506064464 heartbeat IPC: 2.11114 cumulative IPC: 1.33214 (Simulation time: 0 hr 25 min 29 sec) 
Heartbeat CPU 0 instructions: 780000000 cycles: 512824496 heartbeat IPC: 1.47928 cumulative IPC: 1.33442 (Simulation time: 0 hr 25 min 49 sec) 
Heartbeat CPU 0 instructions: 790000003 cycles: 520499077 heartbeat IPC: 1.303 cumulative IPC: 1.33388 (Simulation time: 0 hr 26 min 10 sec) 
Heartbeat CPU 0 instructions: 800000000 cycles: 528043314 heartbeat IPC: 1.32551 cumulative IPC: 1.33374 (Simulation time: 0 hr 26 min 31 sec) 
Heartbeat CPU 0 instructions: 810000003 cycles: 535581616 heartbeat IPC: 1.32656 cumulative IPC: 1.33362 (Simulation time: 0 hr 26 min 51 sec) 
Heartbeat CPU 0 instructions: 820000000 cycles: 543066479 heartbeat IPC: 1.33603 cumulative IPC: 1.33366 (Simulation time: 0 hr 27 min 11 sec) 
Heartbeat CPU 0 instructions: 830000003 cycles: 550562404 heartbeat IPC: 1.33406 cumulative IPC: 1.33367 (Simulation time: 0 hr 27 min 32 sec) 
Heartbeat CPU 0 instructions: 840000000 cycles: 558041659 heartbeat IPC: 1.33703 cumulative IPC: 1.33372 (Simulation time: 0 hr 27 min 52 sec) 
Heartbeat CPU 0 instructions: 850000001 cycles: 565539335 heartbeat IPC: 1.33375 cumulative IPC: 1.33372 (Simulation time: 0 hr 28 min 13 sec) 
Heartbeat CPU 0 instructions: 860000000 cycles: 572994642 heartbeat IPC: 1.34133 cumulative IPC: 1.33383 (Simulation time: 0 hr 28 min 33 sec) 
Heartbeat CPU 0 instructions: 870000001 cycles: 580474454 heartbeat IPC: 1.33693 cumulative IPC: 1.33388 (Simulation time: 0 hr 28 min 54 sec) 
Heartbeat CPU 0 instructions: 880000000 cycles: 587919716 heartbeat IPC: 1.34314 cumulative IPC: 1.33402 (Simulation time: 0 hr 29 min 15 sec) 
Heartbeat CPU 0 instructions: 890000000 cycles: 595337750 heartbeat IPC: 1.34807 cumulative IPC: 1.33422 (Simulation time: 0 hr 29 min 35 sec) 
Heartbeat CPU 0 instructions: 900000000 cycles: 602757820 heartbeat IPC: 1.3477 cumulative IPC: 1.33441 (Simulation time: 0 hr 29 min 55 sec) 
Heartbeat CPU 0 instructions: 910000000 cycles: 610151042 heartbeat IPC: 1.35259 cumulative IPC: 1.33466 (Simulation time: 0 hr 30 min 16 sec) 
Heartbeat CPU 0 instructions: 920000000 cycles: 617532288 heartbeat IPC: 1.35478 cumulative IPC: 1.33494 (Simulation time: 0 hr 30 min 36 sec) 
Heartbeat CPU 0 instructions: 930000002 cycles: 624941408 heartbeat IPC: 1.34969 cumulative IPC: 1.33514 (Simulation time: 0 hr 30 min 56 sec) 
Heartbeat CPU 0 instructions: 940000000 cycles: 632365168 heartbeat IPC: 1.34703 cumulative IPC: 1.33529 (Simulation time: 0 hr 31 min 16 sec) 
Heartbeat CPU 0 instructions: 950000002 cycles: 639778289 heartbeat IPC: 1.34896 cumulative IPC: 1.33547 (Simulation time: 0 hr 31 min 37 sec) 
Heartbeat CPU 0 instructions: 960000000 cycles: 647207525 heartbeat IPC: 1.34603 cumulative IPC: 1.33561 (Simulation time: 0 hr 31 min 57 sec) 
Heartbeat CPU 0 instructions: 970000001 cycles: 654636576 heartbeat IPC: 1.34607 cumulative IPC: 1.33575 (Simulation time: 0 hr 32 min 17 sec) 
Heartbeat CPU 0 instructions: 980000000 cycles: 662089999 heartbeat IPC: 1.34167 cumulative IPC: 1.33582 (Simulation time: 0 hr 32 min 38 sec) 
Heartbeat CPU 0 instructions: 990000002 cycles: 669521408 heartbeat IPC: 1.34564 cumulative IPC: 1.33595 (Simulation time: 0 hr 32 min 58 sec) 
Heartbeat CPU 0 instructions: 1000000000 cycles: 676952890 heartbeat IPC: 1.34563 cumulative IPC: 1.33607 (Simulation time: 0 hr 33 min 19 sec) 
Heartbeat CPU 0 instructions: 1010000000 cycles: 684400745 heartbeat IPC: 1.34267 cumulative IPC: 1.33615 (Simulation time: 0 hr 33 min 39 sec) 
Heartbeat CPU 0 instructions: 1020000000 cycles: 691841368 heartbeat IPC: 1.34397 cumulative IPC: 1.33624 (Simulation time: 0 hr 34 min 0 sec) 
Heartbeat CPU 0 instructions: 1030000001 cycles: 699295534 heartbeat IPC: 1.34153 cumulative IPC: 1.33631 (Simulation time: 0 hr 34 min 21 sec) 
Heartbeat CPU 0 instructions: 1040000000 cycles: 706729444 heartbeat IPC: 1.34519 cumulative IPC: 1.33641 (Simulation time: 0 hr 34 min 42 sec) 
Heartbeat CPU 0 instructions: 1050000003 cycles: 714160301 heartbeat IPC: 1.34574 cumulative IPC: 1.33652 (Simulation time: 0 hr 35 min 3 sec) 
Heartbeat CPU 0 instructions: 1060000000 cycles: 721651045 heartbeat IPC: 1.33498 cumulative IPC: 1.3365 (Simulation time: 0 hr 35 min 24 sec) 
Heartbeat CPU 0 instructions: 1070000002 cycles: 729140473 heartbeat IPC: 1.33522 cumulative IPC: 1.33649 (Simulation time: 0 hr 35 min 45 sec) 
Heartbeat CPU 0 instructions: 1080000000 cycles: 736618678 heartbeat IPC: 1.33722 cumulative IPC: 1.3365 (Simulation time: 0 hr 36 min 6 sec) 
Heartbeat CPU 0 instructions: 1090000001 cycles: 744092801 heartbeat IPC: 1.33795 cumulative IPC: 1.33651 (Simulation time: 0 hr 36 min 26 sec) 
Heartbeat CPU 0 instructions: 1100000000 cycles: 751564990 heartbeat IPC: 1.3383 cumulative IPC: 1.33653 (Simulation time: 0 hr 36 min 47 sec) 
Heartbeat CPU 0 instructions: 1110000002 cycles: 759050743 heartbeat IPC: 1.33587 cumulative IPC: 1.33652 (Simulation time: 0 hr 37 min 8 sec) 
Heartbeat CPU 0 instructions: 1120000000 cycles: 766491646 heartbeat IPC: 1.34392 cumulative IPC: 1.3366 (Simulation time: 0 hr 37 min 28 sec) 
Heartbeat CPU 0 instructions: 1130000003 cycles: 773896029 heartbeat IPC: 1.35055 cumulative IPC: 1.33675 (Simulation time: 0 hr 37 min 49 sec) 
Heartbeat CPU 0 instructions: 1140000000 cycles: 781310380 heartbeat IPC: 1.34874 cumulative IPC: 1.33688 (Simulation time: 0 hr 38 min 9 sec) 
Heartbeat CPU 0 instructions: 1150000000 cycles: 788758096 heartbeat IPC: 1.34269 cumulative IPC: 1.33694 (Simulation time: 0 hr 38 min 29 sec) 
Heartbeat CPU 0 instructions: 1160000000 cycles: 796200224 heartbeat IPC: 1.3437 cumulative IPC: 1.33701 (Simulation time: 0 hr 38 min 50 sec) 
Heartbeat CPU 0 instructions: 1170000002 cycles: 803662310 heartbeat IPC: 1.34011 cumulative IPC: 1.33704 (Simulation time: 0 hr 39 min 10 sec) 
Heartbeat CPU 0 instructions: 1180000000 cycles: 811103820 heartbeat IPC: 1.34381 cumulative IPC: 1.33711 (Simulation time: 0 hr 39 min 31 sec) 
Heartbeat CPU 0 instructions: 1190000003 cycles: 818557658 heartbeat IPC: 1.34159 cumulative IPC: 1.33716 (Simulation time: 0 hr 39 min 51 sec) 
Heartbeat CPU 0 instructions: 1200000000 cycles: 825978456 heartbeat IPC: 1.34756 cumulative IPC: 1.33726 (Simulation time: 0 hr 40 min 12 sec) 
Finished CPU 0 instructions: 1000000000 cycles: 747798128 cumulative IPC: 1.33726 (Simulation time: 0 hr 40 min 12 sec) 

CPU 0 Branch Prediction Accuracy: 97.7664% MPKI: 0.706082

ChampSim completed all CPUs

Region of Interest Statistics

CPU 0 cumulative IPC: 1.33726 instructions: 1000000000 cycles: 747798128
L1D TOTAL     ACCESS:  160934778  HIT:  158198336  MISS:    2736442
L1D LOAD      ACCESS:   87128429  HIT:   85200926  MISS:    1927503
L1D RFO       ACCESS:   73806349  HIT:   72997410  MISS:     808939
L1D PREFETCH  ACCESS:          0  HIT:          0  MISS:          0
L1D WRITEBACK ACCESS:          0  HIT:          0  MISS:          0
L1D PREFETCH  REQUESTED:          0  ISSUED:          0  USEFUL:          0  USELESS:          0
L1I TOTAL     ACCESS:  234199513  HIT:  232454262  MISS:    1745251
L1I LOAD      ACCESS:  234199513  HIT:  232454262  MISS:    1745251
L1I RFO       ACCESS:          0  HIT:          0  MISS:          0
L1I PREFETCH  ACCESS:          0  HIT:          0  MISS:          0
L1I WRITEBACK ACCESS:          0  HIT:          0  MISS:          0
L1I PREFETCH  REQUESTED:          0  ISSUED:          0  USEFUL:          0  USELESS:          0
L2C TOTAL     ACCESS:    6136093  HIT:    4694451  MISS:    1441642
L2C LOAD      ACCESS:    3672739  HIT:    3289701  MISS:     383038
L2C RFO       ACCESS:     807455  HIT:     399955  MISS:     407500
L2C PREFETCH  ACCESS:     711246  HIT:      65012  MISS:     646234
L2C WRITEBACK ACCESS:     944653  HIT:     939783  MISS:       4870
L2C PREFETCH  REQUESTED:     989140  ISSUED:     988467  USEFUL:     658591  USELESS:      64307
LLC TOTAL     ACCESS:    2030699  HIT:     933039  MISS:    1097660
LLC LOAD      ACCESS:     331968  HIT:     203508  MISS:     128460
LLC RFO       ACCESS:     406064  HIT:      14650  MISS:     391414
LLC PREFETCH  ACCESS:     788037  HIT:     211024  MISS:     577013
LLC WRITEBACK ACCESS:     504630  HIT:     503857  MISS:        773
LLC PREFETCH  REQUESTED:          0  ISSUED:          0  USEFUL:      98117  USELESS:     524392
Major fault: 0 Minor fault: 9690

L2C Best-offset prefetcher final stats

DRAM Statistics
 CHANNEL 0
 RQ ROW_BUFFER_HIT:     755820  ROW_BUFFER_MISS:     340831
 DBUS_CONGESTED:    1378633
 WQ ROW_BUFFER_HIT:     208831  ROW_BUFFER_MISS:     283610  FULL:          0

 AVG_CONGESTED_CYCLE: 75
