
*** ChampSim Multicore Out-of-Order Simulator ***

Warmup Instructions: 200000000
Simulation Instructions: 1000000000
Number of CPUs: 4
LLC sets: 8192
LLC ways: 16
Off-chip DRAM Size: 8192 MB Channels: 2 Width: 64-bit Data Rate: 1600 MT/s

CPU 0 runs /scratch/user/djimenez/champsim-traces/speccpu2017/xz/620.omnetpp_s/620.omnetpp_s-874B.champsimtrace.xz
CPU 1 runs /scratch/user/djimenez/champsim-traces/speccpu2017/xz/603.bwaves_s/603.bwaves_s-2931B.champsimtrace.xz
CPU 2 runs /scratch/user/djimenez/champsim-traces/speccpu2017/xz/649.fotonik3d_s/649.fotonik3d_s-7084B.champsimtrace.xz
CPU 3 runs /scratch/user/djimenez/champsim-traces/speccpu2017/xz/607.cactuBSSN_s/607.cactuBSSN_s-4004B.champsimtrace.xz
L2C DA-AMPM prefetcher
L2C DA-AMPM prefetcher
L2C DA-AMPM prefetcher
L2C DA-AMPM prefetcher
Heartbeat CPU 2 instructions: 10000000 cycles: 4192278 heartbeat IPC: 2.38534 cumulative IPC: 2.38534 (Simulation time: 0 hr 1 min 42 sec) 
Heartbeat CPU 1 instructions: 10000000 cycles: 5227792 heartbeat IPC: 1.91285 cumulative IPC: 1.91285 (Simulation time: 0 hr 2 min 7 sec) 
Heartbeat CPU 3 instructions: 10000000 cycles: 5802376 heartbeat IPC: 1.72343 cumulative IPC: 1.72343 (Simulation time: 0 hr 2 min 22 sec) 
Heartbeat CPU 0 instructions: 10000000 cycles: 7368240 heartbeat IPC: 1.35718 cumulative IPC: 1.35718 (Simulation time: 0 hr 3 min 0 sec) 
Heartbeat CPU 2 instructions: 20000000 cycles: 8382741 heartbeat IPC: 2.38637 cumulative IPC: 2.38585 (Simulation time: 0 hr 3 min 25 sec) 
Heartbeat CPU 1 instructions: 20000000 cycles: 10454964 heartbeat IPC: 1.91308 cumulative IPC: 1.91297 (Simulation time: 0 hr 4 min 16 sec) 
Heartbeat CPU 3 instructions: 20000000 cycles: 11604993 heartbeat IPC: 1.72336 cumulative IPC: 1.7234 (Simulation time: 0 hr 4 min 45 sec) 
Heartbeat CPU 2 instructions: 30000000 cycles: 12562633 heartbeat IPC: 2.39241 cumulative IPC: 2.38803 (Simulation time: 0 hr 5 min 8 sec) 
Heartbeat CPU 0 instructions: 20000000 cycles: 14718991 heartbeat IPC: 1.36041 cumulative IPC: 1.35879 (Simulation time: 0 hr 6 min 1 sec) 
Heartbeat CPU 1 instructions: 30000002 cycles: 15682424 heartbeat IPC: 1.91298 cumulative IPC: 1.91297 (Simulation time: 0 hr 6 min 25 sec) 
Heartbeat CPU 2 instructions: 40000000 cycles: 16737053 heartbeat IPC: 2.39554 cumulative IPC: 2.38991 (Simulation time: 0 hr 6 min 51 sec) 
Heartbeat CPU 3 instructions: 30000001 cycles: 17407746 heartbeat IPC: 1.72332 cumulative IPC: 1.72337 (Simulation time: 0 hr 7 min 8 sec) 
Heartbeat CPU 2 instructions: 50000001 cycles: 20907885 heartbeat IPC: 2.3976 cumulative IPC: 2.39144 (Simulation time: 0 hr 8 min 34 sec) 
Heartbeat CPU 1 instructions: 40000000 cycles: 20909610 heartbeat IPC: 1.91307 cumulative IPC: 1.913 (Simulation time: 0 hr 8 min 34 sec) 
Heartbeat CPU 0 instructions: 30000001 cycles: 22071112 heartbeat IPC: 1.36015 cumulative IPC: 1.35924 (Simulation time: 0 hr 9 min 3 sec) 
Heartbeat CPU 3 instructions: 40000000 cycles: 23209327 heartbeat IPC: 1.72367 cumulative IPC: 1.72345 (Simulation time: 0 hr 9 min 31 sec) 
Heartbeat CPU 2 instructions: 60000000 cycles: 25095829 heartbeat IPC: 2.38781 cumulative IPC: 2.39084 (Simulation time: 0 hr 10 min 18 sec) 
Heartbeat CPU 1 instructions: 50000002 cycles: 26137264 heartbeat IPC: 1.9129 cumulative IPC: 1.91298 (Simulation time: 0 hr 10 min 44 sec) 
Heartbeat CPU 3 instructions: 50000001 cycles: 29012010 heartbeat IPC: 1.72334 cumulative IPC: 1.72342 (Simulation time: 0 hr 11 min 55 sec) 
Heartbeat CPU 2 instructions: 70000003 cycles: 29284373 heartbeat IPC: 2.38747 cumulative IPC: 2.39035 (Simulation time: 0 hr 12 min 1 sec) 
Heartbeat CPU 0 instructions: 40000000 cycles: 29432669 heartbeat IPC: 1.35841 cumulative IPC: 1.35903 (Simulation time: 0 hr 12 min 5 sec) 
Heartbeat CPU 1 instructions: 60000000 cycles: 31364647 heartbeat IPC: 1.913 cumulative IPC: 1.91298 (Simulation time: 0 hr 12 min 53 sec) 
Heartbeat CPU 2 instructions: 80000000 cycles: 33474633 heartbeat IPC: 2.38649 cumulative IPC: 2.38987 (Simulation time: 0 hr 13 min 44 sec) 
Heartbeat CPU 3 instructions: 60000000 cycles: 34814439 heartbeat IPC: 1.72342 cumulative IPC: 1.72342 (Simulation time: 0 hr 14 min 17 sec) 
Heartbeat CPU 1 instructions: 70000001 cycles: 36592098 heartbeat IPC: 1.91298 cumulative IPC: 1.91298 (Simulation time: 0 hr 15 min 1 sec) 
Heartbeat CPU 0 instructions: 50000000 cycles: 36794343 heartbeat IPC: 1.35839 cumulative IPC: 1.3589 (Simulation time: 0 hr 15 min 6 sec) 
Heartbeat CPU 2 instructions: 90000000 cycles: 37659396 heartbeat IPC: 2.38962 cumulative IPC: 2.38984 (Simulation time: 0 hr 15 min 27 sec) 
Heartbeat CPU 3 instructions: 70000002 cycles: 40616634 heartbeat IPC: 1.72349 cumulative IPC: 1.72343 (Simulation time: 0 hr 16 min 43 sec) 
Heartbeat CPU 1 instructions: 80000000 cycles: 41819347 heartbeat IPC: 1.91305 cumulative IPC: 1.91299 (Simulation time: 0 hr 17 min 31 sec) 
Heartbeat CPU 2 instructions: 100000000 cycles: 41840128 heartbeat IPC: 2.39193 cumulative IPC: 2.39005 (Simulation time: 0 hr 17 min 31 sec) 
Heartbeat CPU 0 instructions: 60000000 cycles: 44162654 heartbeat IPC: 1.35716 cumulative IPC: 1.35861 (Simulation time: 0 hr 18 min 33 sec) 
Heartbeat CPU 2 instructions: 110000001 cycles: 46012398 heartbeat IPC: 2.39678 cumulative IPC: 2.39066 (Simulation time: 0 hr 19 min 28 sec) 
Heartbeat CPU 3 instructions: 80000000 cycles: 46418580 heartbeat IPC: 1.72356 cumulative IPC: 1.72345 (Simulation time: 0 hr 19 min 41 sec) 
Heartbeat CPU 1 instructions: 90000002 cycles: 47046993 heartbeat IPC: 1.91291 cumulative IPC: 1.91298 (Simulation time: 0 hr 20 min 2 sec) 
Heartbeat CPU 2 instructions: 120000000 cycles: 50185104 heartbeat IPC: 2.39653 cumulative IPC: 2.39115 (Simulation time: 0 hr 21 min 46 sec) 
Heartbeat CPU 0 instructions: 70000000 cycles: 51520093 heartbeat IPC: 1.35917 cumulative IPC: 1.35869 (Simulation time: 0 hr 22 min 27 sec) 
Heartbeat CPU 3 instructions: 90000000 cycles: 52221894 heartbeat IPC: 1.72315 cumulative IPC: 1.72342 (Simulation time: 0 hr 22 min 50 sec) 
Heartbeat CPU 1 instructions: 100000000 cycles: 52274120 heartbeat IPC: 1.9131 cumulative IPC: 1.91299 (Simulation time: 0 hr 22 min 51 sec) 
Heartbeat CPU 2 instructions: 130000001 cycles: 54371564 heartbeat IPC: 2.38865 cumulative IPC: 2.39096 (Simulation time: 0 hr 23 min 54 sec) 
Heartbeat CPU 1 instructions: 110000000 cycles: 57501437 heartbeat IPC: 1.91303 cumulative IPC: 1.913 (Simulation time: 0 hr 25 min 24 sec) 
Heartbeat CPU 3 instructions: 100000000 cycles: 58024187 heartbeat IPC: 1.72346 cumulative IPC: 1.72342 (Simulation time: 0 hr 25 min 39 sec) 
Heartbeat CPU 2 instructions: 140000000 cycles: 58560213 heartbeat IPC: 2.3874 cumulative IPC: 2.3907 (Simulation time: 0 hr 25 min 55 sec) 
Heartbeat CPU 0 instructions: 80000000 cycles: 58871664 heartbeat IPC: 1.36025 cumulative IPC: 1.35889 (Simulation time: 0 hr 26 min 7 sec) 
Heartbeat CPU 1 instructions: 120000000 cycles: 62728809 heartbeat IPC: 1.91301 cumulative IPC: 1.913 (Simulation time: 0 hr 27 min 57 sec) 
Heartbeat CPU 2 instructions: 150000002 cycles: 62751913 heartbeat IPC: 2.38567 cumulative IPC: 2.39037 (Simulation time: 0 hr 27 min 58 sec) 
Heartbeat CPU 3 instructions: 110000002 cycles: 63825891 heartbeat IPC: 1.72363 cumulative IPC: 1.72344 (Simulation time: 0 hr 28 min 31 sec) 
Heartbeat CPU 0 instructions: 90000000 cycles: 66225523 heartbeat IPC: 1.35983 cumulative IPC: 1.35899 (Simulation time: 0 hr 29 min 41 sec) 
Heartbeat CPU 2 instructions: 160000000 cycles: 66933075 heartbeat IPC: 2.39168 cumulative IPC: 2.39045 (Simulation time: 0 hr 29 min 59 sec) 
Heartbeat CPU 1 instructions: 130000001 cycles: 67956230 heartbeat IPC: 1.91299 cumulative IPC: 1.913 (Simulation time: 0 hr 30 min 25 sec) 
Heartbeat CPU 3 instructions: 120000000 cycles: 69627718 heartbeat IPC: 1.72359 cumulative IPC: 1.72345 (Simulation time: 0 hr 31 min 17 sec) 
Heartbeat CPU 2 instructions: 170000001 cycles: 71110570 heartbeat IPC: 2.39378 cumulative IPC: 2.39064 (Simulation time: 0 hr 31 min 59 sec) 
Heartbeat CPU 1 instructions: 140000000 cycles: 73183471 heartbeat IPC: 1.91305 cumulative IPC: 1.913 (Simulation time: 0 hr 33 min 1 sec) 
Heartbeat CPU 0 instructions: 100000000 cycles: 73599460 heartbeat IPC: 1.35613 cumulative IPC: 1.35871 (Simulation time: 0 hr 33 min 12 sec) 
Heartbeat CPU 2 instructions: 180000000 cycles: 75279383 heartbeat IPC: 2.39876 cumulative IPC: 2.39109 (Simulation time: 0 hr 34 min 7 sec) 
Heartbeat CPU 3 instructions: 130000003 cycles: 75430572 heartbeat IPC: 1.72329 cumulative IPC: 1.72344 (Simulation time: 0 hr 34 min 12 sec) 
Heartbeat CPU 1 instructions: 150000000 cycles: 78410878 heartbeat IPC: 1.91299 cumulative IPC: 1.913 (Simulation time: 0 hr 35 min 36 sec) 
Heartbeat CPU 2 instructions: 190000003 cycles: 79456270 heartbeat IPC: 2.39413 cumulative IPC: 2.39125 (Simulation time: 0 hr 36 min 11 sec) 
Heartbeat CPU 0 instructions: 110000003 cycles: 80936365 heartbeat IPC: 1.36297 cumulative IPC: 1.35909 (Simulation time: 0 hr 36 min 55 sec) 
Heartbeat CPU 3 instructions: 140000000 cycles: 81232719 heartbeat IPC: 1.7235 cumulative IPC: 1.72344 (Simulation time: 0 hr 37 min 7 sec) 
Heartbeat CPU 1 instructions: 160000000 cycles: 83638225 heartbeat IPC: 1.91302 cumulative IPC: 1.913 (Simulation time: 0 hr 38 min 14 sec) 
Heartbeat CPU 2 instructions: 200000000 cycles: 83643899 heartbeat IPC: 2.38799 cumulative IPC: 2.39109 (Simulation time: 0 hr 38 min 14 sec) 
Heartbeat CPU 3 instructions: 150000001 cycles: 87035164 heartbeat IPC: 1.72341 cumulative IPC: 1.72344 (Simulation time: 0 hr 39 min 40 sec) 
Heartbeat CPU 2 instructions: 210000001 cycles: 87832824 heartbeat IPC: 2.38725 cumulative IPC: 0.113853 (Simulation time: 0 hr 40 min 0 sec) 
Heartbeat CPU 0 instructions: 120000000 cycles: 88293951 heartbeat IPC: 1.35914 cumulative IPC: 1.3591 (Simulation time: 0 hr 40 min 11 sec) 
Heartbeat CPU 1 instructions: 170000002 cycles: 88865397 heartbeat IPC: 1.91308 cumulative IPC: 1.91301 (Simulation time: 0 hr 40 min 26 sec) 
Heartbeat CPU 2 instructions: 220000000 cycles: 92021408 heartbeat IPC: 2.38744 cumulative IPC: 0.217341 (Simulation time: 0 hr 41 min 45 sec) 
Heartbeat CPU 3 instructions: 160000000 cycles: 92836935 heartbeat IPC: 1.72361 cumulative IPC: 1.72345 (Simulation time: 0 hr 42 min 6 sec) 
Heartbeat CPU 1 instructions: 180000000 cycles: 94093115 heartbeat IPC: 1.91288 cumulative IPC: 1.913 (Simulation time: 0 hr 42 min 37 sec) 
Heartbeat CPU 0 instructions: 130000000 cycles: 95635317 heartbeat IPC: 1.36214 cumulative IPC: 1.35933 (Simulation time: 0 hr 43 min 16 sec) 
Heartbeat CPU 2 instructions: 230000003 cycles: 96201541 heartbeat IPC: 2.39227 cumulative IPC: 0.311845 (Simulation time: 0 hr 43 min 30 sec) 
Heartbeat CPU 3 instructions: 170000000 cycles: 98639231 heartbeat IPC: 1.72346 cumulative IPC: 1.72345 (Simulation time: 0 hr 44 min 32 sec) 
Heartbeat CPU 1 instructions: 190000003 cycles: 99320727 heartbeat IPC: 1.91292 cumulative IPC: 1.91299 (Simulation time: 0 hr 44 min 49 sec) 
Heartbeat CPU 2 instructions: 240000000 cycles: 100377234 heartbeat IPC: 2.39481 cumulative IPC: 0.398497 (Simulation time: 0 hr 45 min 15 sec) 
Heartbeat CPU 0 instructions: 140000000 cycles: 103001447 heartbeat IPC: 1.35756 cumulative IPC: 1.3592 (Simulation time: 0 hr 46 min 21 sec) 
Heartbeat CPU 3 instructions: 180000000 cycles: 104440726 heartbeat IPC: 1.72369 cumulative IPC: 1.72347 (Simulation time: 0 hr 46 min 58 sec) 
Heartbeat CPU 1 instructions: 200000000 cycles: 104547669 heartbeat IPC: 1.91316 cumulative IPC: 1.913 (Simulation time: 0 hr 47 min 0 sec) 
Heartbeat CPU 2 instructions: 250000000 cycles: 104548517 heartbeat IPC: 2.39734 cumulative IPC: 0.478247 (Simulation time: 0 hr 47 min 0 sec) 
Heartbeat CPU 2 instructions: 260000000 cycles: 108730624 heartbeat IPC: 2.39114 cumulative IPC: 0.551822 (Simulation time: 0 hr 49 min 7 sec) 
Heartbeat CPU 1 instructions: 210000003 cycles: 109775250 heartbeat IPC: 1.91293 cumulative IPC: 0.0910952 (Simulation time: 0 hr 49 min 45 sec) 
Heartbeat CPU 3 instructions: 190000002 cycles: 110243536 heartbeat IPC: 1.7233 cumulative IPC: 1.72346 (Simulation time: 0 hr 50 min 0 sec) 
Heartbeat CPU 0 instructions: 150000001 cycles: 110375350 heartbeat IPC: 1.35613 cumulative IPC: 1.359 (Simulation time: 0 hr 50 min 3 sec) 
Heartbeat CPU 2 instructions: 270000000 cycles: 112916935 heartbeat IPC: 2.38874 cumulative IPC: 0.619925 (Simulation time: 0 hr 51 min 17 sec) 
Heartbeat CPU 1 instructions: 220000000 cycles: 115002910 heartbeat IPC: 1.9129 cumulative IPC: 0.173909 (Simulation time: 0 hr 52 min 17 sec) 
Heartbeat CPU 3 instructions: 200000000 cycles: 116045416 heartbeat IPC: 1.72358 cumulative IPC: 1.72346 (Simulation time: 0 hr 52 min 47 sec) 
Heartbeat CPU 2 instructions: 280000000 cycles: 117108861 heartbeat IPC: 2.38554 cumulative IPC: 0.683125 (Simulation time: 0 hr 53 min 19 sec) 
Heartbeat CPU 0 instructions: 160000000 cycles: 117754094 heartbeat IPC: 1.35524 cumulative IPC: 1.35876 (Simulation time: 0 hr 53 min 35 sec) 
Heartbeat CPU 1 instructions: 230000003 cycles: 120229986 heartbeat IPC: 1.91312 cumulative IPC: 0.249522 (Simulation time: 0 hr 54 min 38 sec) 
Heartbeat CPU 2 instructions: 290000001 cycles: 121294757 heartbeat IPC: 2.38898 cumulative IPC: 0.741994 (Simulation time: 0 hr 55 min 6 sec) 
Heartbeat CPU 3 instructions: 210000000 cycles: 121847804 heartbeat IPC: 1.72343 cumulative IPC: 0.0820696 (Simulation time: 0 hr 55 min 24 sec) 
Heartbeat CPU 0 instructions: 170000003 cycles: 125109834 heartbeat IPC: 1.35948 cumulative IPC: 1.35881 (Simulation time: 0 hr 56 min 59 sec) 
Heartbeat CPU 1 instructions: 240000000 cycles: 125457160 heartbeat IPC: 1.91308 cumulative IPC: 0.318834 (Simulation time: 0 hr 57 min 8 sec) 
Heartbeat CPU 2 instructions: 300000000 cycles: 125473843 heartbeat IPC: 2.39287 cumulative IPC: 0.796979 (Simulation time: 0 hr 57 min 9 sec) 
Heartbeat CPU 3 instructions: 220000000 cycles: 127650300 heartbeat IPC: 1.7234 cumulative IPC: 0.156678 (Simulation time: 0 hr 58 min 11 sec) 
Heartbeat CPU 2 instructions: 310000000 cycles: 129645689 heartbeat IPC: 2.39702 cumulative IPC: 0.848466 (Simulation time: 0 hr 59 min 4 sec) 
Heartbeat CPU 1 instructions: 250000003 cycles: 130684996 heartbeat IPC: 1.91284 cumulative IPC: 0.382599 (Simulation time: 0 hr 59 min 31 sec) 
Heartbeat CPU 0 instructions: 180000000 cycles: 132476247 heartbeat IPC: 1.35751 cumulative IPC: 1.35873 (Simulation time: 1 hr 0 min 20 sec) 
Heartbeat CPU 3 instructions: 230000000 cycles: 133453064 heartbeat IPC: 1.72332 cumulative IPC: 0.224798 (Simulation time: 1 hr 0 min 44 sec) 
Heartbeat CPU 2 instructions: 320000000 cycles: 133816629 heartbeat IPC: 2.39754 cumulative IPC: 0.89675 (Simulation time: 1 hr 0 min 53 sec) 
Heartbeat CPU 1 instructions: 260000000 cycles: 135912169 heartbeat IPC: 1.91308 cumulative IPC: 0.441462 (Simulation time: 1 hr 1 min 44 sec) 
Heartbeat CPU 2 instructions: 330000002 cycles: 138003918 heartbeat IPC: 2.38818 cumulative IPC: 0.942002 (Simulation time: 1 hr 2 min 36 sec) 
Heartbeat CPU 3 instructions: 240000000 cycles: 139255567 heartbeat IPC: 1.72339 cumulative IPC: 0.287242 (Simulation time: 1 hr 3 min 14 sec) 
Heartbeat CPU 0 instructions: 190000002 cycles: 139827370 heartbeat IPC: 1.36034 cumulative IPC: 1.35882 (Simulation time: 1 hr 3 min 29 sec) 
Heartbeat CPU 1 instructions: 270000000 cycles: 141139406 heartbeat IPC: 1.91306 cumulative IPC: 0.495964 (Simulation time: 1 hr 4 min 3 sec) 
Heartbeat CPU 2 instructions: 340000000 cycles: 142192253 heartbeat IPC: 2.38758 cumulative IPC: 0.984582 (Simulation time: 1 hr 4 min 31 sec) 
Heartbeat CPU 3 instructions: 250000003 cycles: 145057576 heartbeat IPC: 1.72354 cumulative IPC: 0.344691 (Simulation time: 1 hr 5 min 48 sec) 
Heartbeat CPU 1 instructions: 280000000 cycles: 146367032 heartbeat IPC: 1.91291 cumulative IPC: 0.546571 (Simulation time: 1 hr 6 min 21 sec) 
Heartbeat CPU 2 instructions: 350000000 cycles: 146383617 heartbeat IPC: 2.38586 cumulative IPC: 1.0247 (Simulation time: 1 hr 6 min 21 sec) 
Heartbeat CPU 0 instructions: 200000000 cycles: 147181161 heartbeat IPC: 1.35984 cumulative IPC: 1.35887 (Simulation time: 1 hr 6 min 41 sec) 

Warmup complete CPU 0 instructions: 200000001 cycles: 147181163 (Simulation time: 1 hr 6 min 41 sec) 
Warmup complete CPU 1 instructions: 281557196 cycles: 147181162 (Simulation time: 1 hr 6 min 41 sec) 
Warmup complete CPU 2 instructions: 351903288 cycles: 147181162 (Simulation time: 1 hr 6 min 41 sec) 
Warmup complete CPU 3 instructions: 253659559 cycles: 147181162 (Simulation time: 1 hr 6 min 41 sec) 

Heartbeat CPU 3 instructions: 260000000 cycles: 153416789 heartbeat IPC: 1.19628 cumulative IPC: 1.01681 (Simulation time: 1 hr 8 min 9 sec) 
Heartbeat CPU 2 instructions: 360000000 cycles: 154053988 heartbeat IPC: 1.30372 cumulative IPC: 1.17808 (Simulation time: 1 hr 8 min 18 sec) 
Heartbeat CPU 1 instructions: 290000002 cycles: 155073821 heartbeat IPC: 1.14853 cumulative IPC: 1.0697 (Simulation time: 1 hr 8 min 32 sec) 
Heartbeat CPU 2 instructions: 370000002 cycles: 162569590 heartbeat IPC: 1.17432 cumulative IPC: 1.17599 (Simulation time: 1 hr 10 min 18 sec) 
Heartbeat CPU 3 instructions: 270000003 cycles: 163241369 heartbeat IPC: 1.01786 cumulative IPC: 1.01745 (Simulation time: 1 hr 10 min 27 sec) 
Heartbeat CPU 1 instructions: 300000000 cycles: 164417442 heartbeat IPC: 1.07025 cumulative IPC: 1.07 (Simulation time: 1 hr 10 min 43 sec) 
Heartbeat CPU 2 instructions: 380000000 cycles: 170998919 heartbeat IPC: 1.18633 cumulative IPC: 1.17965 (Simulation time: 1 hr 12 min 16 sec) 
Heartbeat CPU 3 instructions: 280000000 cycles: 173136161 heartbeat IPC: 1.01063 cumulative IPC: 1.01485 (Simulation time: 1 hr 12 min 46 sec) 
Heartbeat CPU 1 instructions: 310000003 cycles: 173777584 heartbeat IPC: 1.06836 cumulative IPC: 1.06942 (Simulation time: 1 hr 12 min 57 sec) 
Heartbeat CPU 2 instructions: 390000003 cycles: 179466419 heartbeat IPC: 1.18099 cumulative IPC: 1.18 (Simulation time: 1 hr 14 min 27 sec) 
Heartbeat CPU 3 instructions: 290000001 cycles: 183000147 heartbeat IPC: 1.01379 cumulative IPC: 1.01456 (Simulation time: 1 hr 15 min 17 sec) 
Heartbeat CPU 1 instructions: 320000000 cycles: 183135503 heartbeat IPC: 1.06861 cumulative IPC: 1.06921 (Simulation time: 1 hr 15 min 19 sec) 
Heartbeat CPU 2 instructions: 400000000 cycles: 188102795 heartbeat IPC: 1.15789 cumulative IPC: 1.17534 (Simulation time: 1 hr 16 min 27 sec) 
Heartbeat CPU 1 instructions: 330000000 cycles: 192476359 heartbeat IPC: 1.07057 cumulative IPC: 1.06949 (Simulation time: 1 hr 17 min 28 sec) 
Heartbeat CPU 3 instructions: 300000000 cycles: 192873743 heartbeat IPC: 1.0128 cumulative IPC: 1.01418 (Simulation time: 1 hr 17 min 34 sec) 
Heartbeat CPU 0 instructions: 210000003 cycles: 195956684 heartbeat IPC: 0.205021 cumulative IPC: 0.205021 (Simulation time: 1 hr 18 min 17 sec) 
Heartbeat CPU 2 instructions: 410000001 cycles: 196563783 heartbeat IPC: 1.1819 cumulative IPC: 1.17646 (Simulation time: 1 hr 18 min 25 sec) 
Heartbeat CPU 1 instructions: 340000000 cycles: 201838228 heartbeat IPC: 1.06816 cumulative IPC: 1.06926 (Simulation time: 1 hr 19 min 40 sec) 
Heartbeat CPU 3 instructions: 310000003 cycles: 202780675 heartbeat IPC: 1.00939 cumulative IPC: 1.01333 (Simulation time: 1 hr 19 min 53 sec) 
Heartbeat CPU 2 instructions: 420000000 cycles: 205018514 heartbeat IPC: 1.18277 cumulative IPC: 1.17738 (Simulation time: 1 hr 20 min 24 sec) 
Heartbeat CPU 1 instructions: 350000000 cycles: 211177776 heartbeat IPC: 1.07072 cumulative IPC: 1.06948 (Simulation time: 1 hr 21 min 50 sec) 
Heartbeat CPU 3 instructions: 320000000 cycles: 212658177 heartbeat IPC: 1.0124 cumulative IPC: 1.01319 (Simulation time: 1 hr 22 min 11 sec) 
Heartbeat CPU 2 instructions: 430000003 cycles: 213498868 heartbeat IPC: 1.1792 cumulative IPC: 1.17761 (Simulation time: 1 hr 22 min 22 sec) 
Heartbeat CPU 1 instructions: 360000000 cycles: 220564623 heartbeat IPC: 1.06532 cumulative IPC: 1.06894 (Simulation time: 1 hr 24 min 1 sec) 
Heartbeat CPU 2 instructions: 440000000 cycles: 221935878 heartbeat IPC: 1.18525 cumulative IPC: 1.17848 (Simulation time: 1 hr 24 min 21 sec) 
Heartbeat CPU 3 instructions: 330000000 cycles: 222522212 heartbeat IPC: 1.01378 cumulative IPC: 1.01326 (Simulation time: 1 hr 24 min 29 sec) 
Heartbeat CPU 1 instructions: 370000000 cycles: 229922302 heartbeat IPC: 1.06864 cumulative IPC: 1.06891 (Simulation time: 1 hr 26 min 15 sec) 
Heartbeat CPU 2 instructions: 450000002 cycles: 230339001 heartbeat IPC: 1.19003 cumulative IPC: 1.17964 (Simulation time: 1 hr 26 min 21 sec) 
Heartbeat CPU 3 instructions: 340000000 cycles: 232374898 heartbeat IPC: 1.01495 cumulative IPC: 1.01346 (Simulation time: 1 hr 26 min 54 sec) 
Heartbeat CPU 2 instructions: 460000000 cycles: 238773474 heartbeat IPC: 1.18561 cumulative IPC: 1.18019 (Simulation time: 1 hr 28 min 36 sec) 
Heartbeat CPU 1 instructions: 380000000 cycles: 239248534 heartbeat IPC: 1.07224 cumulative IPC: 1.06925 (Simulation time: 1 hr 28 min 43 sec) 
Heartbeat CPU 3 instructions: 350000002 cycles: 242216843 heartbeat IPC: 1.01606 cumulative IPC: 1.01373 (Simulation time: 1 hr 29 min 25 sec) 
Heartbeat CPU 0 instructions: 220000000 cycles: 244898017 heartbeat IPC: 0.204326 cumulative IPC: 0.204673 (Simulation time: 1 hr 30 min 2 sec) 
Heartbeat CPU 2 instructions: 470000002 cycles: 247246400 heartbeat IPC: 1.18023 cumulative IPC: 1.1802 (Simulation time: 1 hr 30 min 35 sec) 
Heartbeat CPU 1 instructions: 390000001 cycles: 248593709 heartbeat IPC: 1.07007 cumulative IPC: 1.06932 (Simulation time: 1 hr 30 min 54 sec) 
Heartbeat CPU 3 instructions: 360000000 cycles: 252060849 heartbeat IPC: 1.01585 cumulative IPC: 1.01393 (Simulation time: 1 hr 31 min 43 sec) 
Heartbeat CPU 2 instructions: 480000000 cycles: 255598654 heartbeat IPC: 1.19728 cumulative IPC: 1.18151 (Simulation time: 1 hr 32 min 34 sec) 
Heartbeat CPU 1 instructions: 400000000 cycles: 257957962 heartbeat IPC: 1.06789 cumulative IPC: 1.0692 (Simulation time: 1 hr 33 min 7 sec) 
Heartbeat CPU 3 instructions: 370000003 cycles: 261886614 heartbeat IPC: 1.01773 cumulative IPC: 1.01425 (Simulation time: 1 hr 34 min 2 sec) 
Heartbeat CPU 2 instructions: 490000001 cycles: 264011551 heartbeat IPC: 1.18865 cumulative IPC: 1.18203 (Simulation time: 1 hr 34 min 32 sec) 
Heartbeat CPU 1 instructions: 410000002 cycles: 267304315 heartbeat IPC: 1.06994 cumulative IPC: 1.06926 (Simulation time: 1 hr 35 min 18 sec) 
Heartbeat CPU 3 instructions: 380000000 cycles: 271766657 heartbeat IPC: 1.01214 cumulative IPC: 1.01409 (Simulation time: 1 hr 36 min 21 sec) 
Heartbeat CPU 2 instructions: 500000000 cycles: 272521284 heartbeat IPC: 1.17512 cumulative IPC: 1.18156 (Simulation time: 1 hr 36 min 33 sec) 
Heartbeat CPU 1 instructions: 420000000 cycles: 276652428 heartbeat IPC: 1.06973 cumulative IPC: 1.06929 (Simulation time: 1 hr 37 min 39 sec) 
Heartbeat CPU 2 instructions: 510000002 cycles: 280931061 heartbeat IPC: 1.18909 cumulative IPC: 1.18203 (Simulation time: 1 hr 38 min 43 sec) 
Heartbeat CPU 3 instructions: 390000003 cycles: 281757642 heartbeat IPC: 1.0009 cumulative IPC: 1.01311 (Simulation time: 1 hr 38 min 55 sec) 
Heartbeat CPU 1 instructions: 430000001 cycles: 286020548 heartbeat IPC: 1.06745 cumulative IPC: 1.06917 (Simulation time: 1 hr 40 min 4 sec) 
Heartbeat CPU 2 instructions: 520000000 cycles: 289344872 heartbeat IPC: 1.18852 cumulative IPC: 1.18242 (Simulation time: 1 hr 40 min 52 sec) 
Heartbeat CPU 3 instructions: 400000000 cycles: 291630049 heartbeat IPC: 1.01292 cumulative IPC: 1.0131 (Simulation time: 1 hr 41 min 27 sec) 
Heartbeat CPU 0 instructions: 230000002 cycles: 292928780 heartbeat IPC: 0.2082 cumulative IPC: 0.205835 (Simulation time: 1 hr 41 min 47 sec) 
Heartbeat CPU 1 instructions: 440000000 cycles: 295402026 heartbeat IPC: 1.06593 cumulative IPC: 1.06896 (Simulation time: 1 hr 42 min 21 sec) 
Heartbeat CPU 2 instructions: 530000001 cycles: 297759481 heartbeat IPC: 1.18841 cumulative IPC: 1.18275 (Simulation time: 1 hr 42 min 54 sec) 
Heartbeat CPU 3 instructions: 410000002 cycles: 301483016 heartbeat IPC: 1.01492 cumulative IPC: 1.01321 (Simulation time: 1 hr 43 min 46 sec) 
Heartbeat CPU 1 instructions: 450000000 cycles: 304705784 heartbeat IPC: 1.07483 cumulative IPC: 1.06931 (Simulation time: 1 hr 44 min 31 sec) 
Heartbeat CPU 2 instructions: 540000000 cycles: 306188338 heartbeat IPC: 1.1864 cumulative IPC: 1.18294 (Simulation time: 1 hr 44 min 52 sec) 
Heartbeat CPU 3 instructions: 420000000 cycles: 311311591 heartbeat IPC: 1.01744 cumulative IPC: 1.01346 (Simulation time: 1 hr 46 min 3 sec) 
Heartbeat CPU 1 instructions: 460000000 cycles: 314076358 heartbeat IPC: 1.06717 cumulative IPC: 1.06919 (Simulation time: 1 hr 46 min 45 sec) 
Heartbeat CPU 2 instructions: 550000003 cycles: 314653404 heartbeat IPC: 1.18133 cumulative IPC: 1.18286 (Simulation time: 1 hr 46 min 54 sec) 
Heartbeat CPU 3 instructions: 430000000 cycles: 321191867 heartbeat IPC: 1.01212 cumulative IPC: 1.01339 (Simulation time: 1 hr 48 min 29 sec) 
Heartbeat CPU 2 instructions: 560000000 cycles: 323054154 heartbeat IPC: 1.19037 cumulative IPC: 1.18322 (Simulation time: 1 hr 48 min 58 sec) 
Heartbeat CPU 1 instructions: 470000001 cycles: 323441824 heartbeat IPC: 1.06775 cumulative IPC: 1.06911 (Simulation time: 1 hr 49 min 4 sec) 
Heartbeat CPU 3 instructions: 440000000 cycles: 331035618 heartbeat IPC: 1.01587 cumulative IPC: 1.01352 (Simulation time: 1 hr 51 min 1 sec) 
Heartbeat CPU 2 instructions: 570000001 cycles: 331521640 heartbeat IPC: 1.18099 cumulative IPC: 1.18312 (Simulation time: 1 hr 51 min 8 sec) 
Heartbeat CPU 1 instructions: 480000000 cycles: 332748858 heartbeat IPC: 1.07446 cumulative IPC: 1.06938 (Simulation time: 1 hr 51 min 25 sec) 
Heartbeat CPU 2 instructions: 580000000 cycles: 339887172 heartbeat IPC: 1.19538 cumulative IPC: 1.18365 (Simulation time: 1 hr 53 min 18 sec) 
Heartbeat CPU 3 instructions: 450000001 cycles: 340898611 heartbeat IPC: 1.01389 cumulative IPC: 1.01354 (Simulation time: 1 hr 53 min 35 sec) 
Heartbeat CPU 0 instructions: 240000000 cycles: 341911872 heartbeat IPC: 0.204152 cumulative IPC: 0.205412 (Simulation time: 1 hr 53 min 53 sec) 
Heartbeat CPU 1 instructions: 490000001 cycles: 342107551 heartbeat IPC: 1.06853 cumulative IPC: 1.06934 (Simulation time: 1 hr 53 min 57 sec) 
Heartbeat CPU 2 instructions: 590000002 cycles: 348357604 heartbeat IPC: 1.18058 cumulative IPC: 1.18352 (Simulation time: 1 hr 55 min 36 sec) 
Heartbeat CPU 3 instructions: 460000000 cycles: 350763476 heartbeat IPC: 1.0137 cumulative IPC: 1.01355 (Simulation time: 1 hr 56 min 12 sec) 
Heartbeat CPU 1 instructions: 500000000 cycles: 351456588 heartbeat IPC: 1.06963 cumulative IPC: 1.06935 (Simulation time: 1 hr 56 min 23 sec) 
Heartbeat CPU 2 instructions: 600000000 cycles: 356926455 heartbeat IPC: 1.16702 cumulative IPC: 1.18285 (Simulation time: 1 hr 57 min 47 sec) 
Heartbeat CPU 3 instructions: 470000002 cycles: 360652319 heartbeat IPC: 1.01124 cumulative IPC: 1.01344 (Simulation time: 1 hr 58 min 43 sec) 
Heartbeat CPU 1 instructions: 510000001 cycles: 360824391 heartbeat IPC: 1.06749 cumulative IPC: 1.06927 (Simulation time: 1 hr 58 min 46 sec) 
Heartbeat CPU 2 instructions: 610000003 cycles: 365363186 heartbeat IPC: 1.18529 cumulative IPC: 1.18294 (Simulation time: 1 hr 59 min 49 sec) 
Heartbeat CPU 1 instructions: 520000000 cycles: 370176524 heartbeat IPC: 1.06927 cumulative IPC: 1.06927 (Simulation time: 2 hr 0 min 56 sec) 
Heartbeat CPU 3 instructions: 480000000 cycles: 370501512 heartbeat IPC: 1.01531 cumulative IPC: 1.01352 (Simulation time: 2 hr 1 min 1 sec) 
Heartbeat CPU 2 instructions: 620000000 cycles: 373844987 heartbeat IPC: 1.17899 cumulative IPC: 1.18279 (Simulation time: 2 hr 1 min 47 sec) 
Heartbeat CPU 1 instructions: 530000001 cycles: 379499777 heartbeat IPC: 1.07259 cumulative IPC: 1.06941 (Simulation time: 2 hr 3 min 6 sec) 
Heartbeat CPU 3 instructions: 490000003 cycles: 380403602 heartbeat IPC: 1.00989 cumulative IPC: 1.01337 (Simulation time: 2 hr 3 min 19 sec) 
Heartbeat CPU 2 instructions: 630000001 cycles: 382349278 heartbeat IPC: 1.17588 cumulative IPC: 1.18254 (Simulation time: 2 hr 3 min 46 sec) 
Heartbeat CPU 1 instructions: 540000000 cycles: 388889236 heartbeat IPC: 1.06502 cumulative IPC: 1.06924 (Simulation time: 2 hr 5 min 15 sec) 
Heartbeat CPU 3 instructions: 500000000 cycles: 390257602 heartbeat IPC: 1.01482 cumulative IPC: 1.01343 (Simulation time: 2 hr 5 min 33 sec) 
Heartbeat CPU 0 instructions: 250000000 cycles: 390444816 heartbeat IPC: 0.206046 cumulative IPC: 0.205538 (Simulation time: 2 hr 5 min 35 sec) 
Heartbeat CPU 2 instructions: 640000000 cycles: 390919678 heartbeat IPC: 1.16681 cumulative IPC: 1.18199 (Simulation time: 2 hr 5 min 42 sec) 
Heartbeat CPU 1 instructions: 550000000 cycles: 398215408 heartbeat IPC: 1.07225 cumulative IPC: 1.06935 (Simulation time: 2 hr 7 min 18 sec) 
Heartbeat CPU 2 instructions: 650000000 cycles: 399353601 heartbeat IPC: 1.18569 cumulative IPC: 1.18211 (Simulation time: 2 hr 7 min 33 sec) 
Heartbeat CPU 3 instructions: 510000002 cycles: 400137866 heartbeat IPC: 1.01212 cumulative IPC: 1.01338 (Simulation time: 2 hr 7 min 44 sec) 
Heartbeat CPU 1 instructions: 560000000 cycles: 407640045 heartbeat IPC: 1.06105 cumulative IPC: 1.06905 (Simulation time: 2 hr 9 min 24 sec) 
Heartbeat CPU 2 instructions: 660000000 cycles: 407910887 heartbeat IPC: 1.16859 cumulative IPC: 1.18167 (Simulation time: 2 hr 9 min 28 sec) 
Heartbeat CPU 3 instructions: 520000000 cycles: 409980992 heartbeat IPC: 1.01594 cumulative IPC: 1.01347 (Simulation time: 2 hr 9 min 56 sec) 
Heartbeat CPU 2 instructions: 670000001 cycles: 416365040 heartbeat IPC: 1.18285 cumulative IPC: 1.18171 (Simulation time: 2 hr 11 min 23 sec) 
Heartbeat CPU 1 instructions: 570000000 cycles: 416981200 heartbeat IPC: 1.07053 cumulative IPC: 1.0691 (Simulation time: 2 hr 11 min 31 sec) 
Heartbeat CPU 3 instructions: 530000000 cycles: 419833124 heartbeat IPC: 1.01501 cumulative IPC: 1.01353 (Simulation time: 2 hr 12 min 9 sec) 
Heartbeat CPU 2 instructions: 680000000 cycles: 424904247 heartbeat IPC: 1.17107 cumulative IPC: 1.18138 (Simulation time: 2 hr 13 min 15 sec) 
Heartbeat CPU 1 instructions: 580000000 cycles: 426329033 heartbeat IPC: 1.06977 cumulative IPC: 1.06912 (Simulation time: 2 hr 13 min 34 sec) 
Heartbeat CPU 3 instructions: 540000000 cycles: 429814493 heartbeat IPC: 1.00187 cumulative IPC: 1.01312 (Simulation time: 2 hr 14 min 20 sec) 
Heartbeat CPU 2 instructions: 690000002 cycles: 433404872 heartbeat IPC: 1.17638 cumulative IPC: 1.18123 (Simulation time: 2 hr 15 min 7 sec) 
Heartbeat CPU 1 instructions: 590000002 cycles: 435670841 heartbeat IPC: 1.07046 cumulative IPC: 1.06916 (Simulation time: 2 hr 15 min 37 sec) 
Heartbeat CPU 0 instructions: 260000000 cycles: 439028968 heartbeat IPC: 0.205828 cumulative IPC: 0.205587 (Simulation time: 2 hr 16 min 22 sec) 
Heartbeat CPU 3 instructions: 550000000 cycles: 439671331 heartbeat IPC: 1.01452 cumulative IPC: 1.01316 (Simulation time: 2 hr 16 min 30 sec) 
Heartbeat CPU 2 instructions: 700000000 cycles: 441874207 heartbeat IPC: 1.18073 cumulative IPC: 1.18122 (Simulation time: 2 hr 17 min 1 sec) 
Heartbeat CPU 1 instructions: 600000000 cycles: 445003187 heartbeat IPC: 1.07154 cumulative IPC: 1.06924 (Simulation time: 2 hr 17 min 44 sec) 
Heartbeat CPU 3 instructions: 560000000 cycles: 449503951 heartbeat IPC: 1.01702 cumulative IPC: 1.01329 (Simulation time: 2 hr 18 min 47 sec) 
Heartbeat CPU 2 instructions: 710000002 cycles: 450432863 heartbeat IPC: 1.16841 cumulative IPC: 1.18086 (Simulation time: 2 hr 19 min 0 sec) 
Heartbeat CPU 1 instructions: 610000002 cycles: 454363222 heartbeat IPC: 1.06837 cumulative IPC: 1.06921 (Simulation time: 2 hr 19 min 54 sec) 
Heartbeat CPU 2 instructions: 720000000 cycles: 458927020 heartbeat IPC: 1.17728 cumulative IPC: 1.18076 (Simulation time: 2 hr 20 min 58 sec) 
Heartbeat CPU 3 instructions: 570000000 cycles: 459355599 heartbeat IPC: 1.01506 cumulative IPC: 1.01335 (Simulation time: 2 hr 21 min 4 sec) 
Heartbeat CPU 1 instructions: 620000000 cycles: 463694757 heartbeat IPC: 1.07163 cumulative IPC: 1.06928 (Simulation time: 2 hr 22 min 4 sec) 
Heartbeat CPU 2 instructions: 730000003 cycles: 467394955 heartbeat IPC: 1.18093 cumulative IPC: 1.18076 (Simulation time: 2 hr 22 min 56 sec) 
Heartbeat CPU 3 instructions: 580000000 cycles: 469229426 heartbeat IPC: 1.01278 cumulative IPC: 1.01333 (Simulation time: 2 hr 23 min 24 sec) 
Heartbeat CPU 1 instructions: 630000000 cycles: 473044611 heartbeat IPC: 1.06954 cumulative IPC: 1.06929 (Simulation time: 2 hr 24 min 23 sec) 
Heartbeat CPU 2 instructions: 740000000 cycles: 475921909 heartbeat IPC: 1.17275 cumulative IPC: 1.18056 (Simulation time: 2 hr 25 min 5 sec) 
Heartbeat CPU 3 instructions: 590000003 cycles: 479075528 heartbeat IPC: 1.01563 cumulative IPC: 1.0134 (Simulation time: 2 hr 25 min 51 sec) 
Heartbeat CPU 1 instructions: 640000000 cycles: 482372557 heartbeat IPC: 1.07205 cumulative IPC: 1.06937 (Simulation time: 2 hr 26 min 47 sec) 
Heartbeat CPU 2 instructions: 750000000 cycles: 484442303 heartbeat IPC: 1.17365 cumulative IPC: 1.18038 (Simulation time: 2 hr 27 min 22 sec) 
Heartbeat CPU 0 instructions: 270000000 cycles: 488622204 heartbeat IPC: 0.20164 cumulative IPC: 0.205013 (Simulation time: 2 hr 28 min 23 sec) 
Heartbeat CPU 3 instructions: 600000000 cycles: 488961054 heartbeat IPC: 1.01158 cumulative IPC: 1.01334 (Simulation time: 2 hr 28 min 29 sec) 
Heartbeat CPU 1 instructions: 650000000 cycles: 491745284 heartbeat IPC: 1.06693 cumulative IPC: 1.0693 (Simulation time: 2 hr 29 min 13 sec) 
Heartbeat CPU 2 instructions: 760000000 cycles: 492958589 heartbeat IPC: 1.17422 cumulative IPC: 1.18023 (Simulation time: 2 hr 29 min 31 sec) 
Heartbeat CPU 3 instructions: 610000000 cycles: 498829073 heartbeat IPC: 1.01337 cumulative IPC: 1.01334 (Simulation time: 2 hr 31 min 8 sec) 
Heartbeat CPU 1 instructions: 660000000 cycles: 501083649 heartbeat IPC: 1.07085 cumulative IPC: 1.06934 (Simulation time: 2 hr 31 min 44 sec) 
Heartbeat CPU 2 instructions: 770000002 cycles: 501483116 heartbeat IPC: 1.17309 cumulative IPC: 1.18006 (Simulation time: 2 hr 31 min 51 sec) 
Heartbeat CPU 3 instructions: 620000000 cycles: 508669321 heartbeat IPC: 1.01623 cumulative IPC: 1.01342 (Simulation time: 2 hr 33 min 55 sec) 
Heartbeat CPU 2 instructions: 780000000 cycles: 509993082 heartbeat IPC: 1.17509 cumulative IPC: 1.17994 (Simulation time: 2 hr 34 min 17 sec) 
Heartbeat CPU 1 instructions: 670000001 cycles: 510392830 heartbeat IPC: 1.07421 cumulative IPC: 1.06947 (Simulation time: 2 hr 34 min 23 sec) 
Heartbeat CPU 2 instructions: 790000001 cycles: 518486268 heartbeat IPC: 1.17741 cumulative IPC: 1.17988 (Simulation time: 2 hr 36 min 19 sec) 
Heartbeat CPU 3 instructions: 630000003 cycles: 518502354 heartbeat IPC: 1.01698 cumulative IPC: 1.01352 (Simulation time: 2 hr 36 min 19 sec) 
Heartbeat CPU 1 instructions: 680000000 cycles: 519719085 heartbeat IPC: 1.07224 cumulative IPC: 1.06954 (Simulation time: 2 hr 36 min 37 sec) 
Heartbeat CPU 2 instructions: 800000000 cycles: 526980833 heartbeat IPC: 1.17722 cumulative IPC: 1.17982 (Simulation time: 2 hr 38 min 19 sec) 
Heartbeat CPU 3 instructions: 640000000 cycles: 528363913 heartbeat IPC: 1.01404 cumulative IPC: 1.01353 (Simulation time: 2 hr 38 min 38 sec) 
Heartbeat CPU 1 instructions: 690000002 cycles: 529063419 heartbeat IPC: 1.07017 cumulative IPC: 1.06955 (Simulation time: 2 hr 38 min 48 sec) 
Heartbeat CPU 2 instructions: 810000002 cycles: 535489045 heartbeat IPC: 1.17534 cumulative IPC: 1.17973 (Simulation time: 2 hr 40 min 18 sec) 
Heartbeat CPU 0 instructions: 280000000 cycles: 537844186 heartbeat IPC: 0.203161 cumulative IPC: 0.20478 (Simulation time: 2 hr 40 min 51 sec) 
Heartbeat CPU 3 instructions: 650000002 cycles: 538209335 heartbeat IPC: 1.0157 cumulative IPC: 1.01359 (Simulation time: 2 hr 40 min 56 sec) 
Heartbeat CPU 1 instructions: 700000000 cycles: 538412534 heartbeat IPC: 1.06962 cumulative IPC: 1.06955 (Simulation time: 2 hr 40 min 59 sec) 
Heartbeat CPU 2 instructions: 820000000 cycles: 543971022 heartbeat IPC: 1.17897 cumulative IPC: 1.17971 (Simulation time: 2 hr 42 min 18 sec) 
Heartbeat CPU 1 instructions: 710000001 cycles: 547775780 heartbeat IPC: 1.06801 cumulative IPC: 1.06952 (Simulation time: 2 hr 43 min 11 sec) 
Heartbeat CPU 3 instructions: 660000000 cycles: 548064307 heartbeat IPC: 1.01472 cumulative IPC: 1.01361 (Simulation time: 2 hr 43 min 15 sec) 
Heartbeat CPU 2 instructions: 830000003 cycles: 552458632 heartbeat IPC: 1.17819 cumulative IPC: 1.17968 (Simulation time: 2 hr 44 min 17 sec) 
Heartbeat CPU 1 instructions: 720000000 cycles: 557102273 heartbeat IPC: 1.07221 cumulative IPC: 1.06958 (Simulation time: 2 hr 45 min 21 sec) 
Heartbeat CPU 3 instructions: 670000003 cycles: 557951300 heartbeat IPC: 1.01143 cumulative IPC: 1.01356 (Simulation time: 2 hr 45 min 33 sec) 
Heartbeat CPU 2 instructions: 840000000 cycles: 560929188 heartbeat IPC: 1.18056 cumulative IPC: 1.1797 (Simulation time: 2 hr 46 min 15 sec) 
Heartbeat CPU 1 instructions: 730000001 cycles: 566429091 heartbeat IPC: 1.07218 cumulative IPC: 1.06964 (Simulation time: 2 hr 47 min 32 sec) 
Heartbeat CPU 3 instructions: 680000000 cycles: 567889834 heartbeat IPC: 1.00618 cumulative IPC: 1.01339 (Simulation time: 2 hr 47 min 52 sec) 
Heartbeat CPU 2 instructions: 850000000 cycles: 569425630 heartbeat IPC: 1.17696 cumulative IPC: 1.17964 (Simulation time: 2 hr 48 min 14 sec) 
Heartbeat CPU 1 instructions: 740000000 cycles: 575772617 heartbeat IPC: 1.07026 cumulative IPC: 1.06965 (Simulation time: 2 hr 49 min 42 sec) 
Heartbeat CPU 2 instructions: 860000000 cycles: 577829368 heartbeat IPC: 1.18995 cumulative IPC: 1.17984 (Simulation time: 2 hr 50 min 11 sec) 
Heartbeat CPU 3 instructions: 690000000 cycles: 577850808 heartbeat IPC: 1.00392 cumulative IPC: 1.01317 (Simulation time: 2 hr 50 min 11 sec) 
Heartbeat CPU 1 instructions: 750000003 cycles: 585127373 heartbeat IPC: 1.06898 cumulative IPC: 1.06964 (Simulation time: 2 hr 51 min 53 sec) 
Heartbeat CPU 2 instructions: 870000001 cycles: 586236911 heartbeat IPC: 1.18941 cumulative IPC: 1.18002 (Simulation time: 2 hr 52 min 8 sec) 
Heartbeat CPU 0 instructions: 290000000 cycles: 586865442 heartbeat IPC: 0.203993 cumulative IPC: 0.204692 (Simulation time: 2 hr 52 min 17 sec) 
Heartbeat CPU 3 instructions: 700000000 cycles: 587736146 heartbeat IPC: 1.0116 cumulative IPC: 1.01313 (Simulation time: 2 hr 52 min 29 sec) 
Heartbeat CPU 1 instructions: 760000000 cycles: 594526820 heartbeat IPC: 1.06389 cumulative IPC: 1.06951 (Simulation time: 2 hr 54 min 4 sec) 
Heartbeat CPU 2 instructions: 880000000 cycles: 594697613 heartbeat IPC: 1.18193 cumulative IPC: 1.18006 (Simulation time: 2 hr 54 min 6 sec) 
Heartbeat CPU 3 instructions: 710000000 cycles: 597607465 heartbeat IPC: 1.01304 cumulative IPC: 1.01313 (Simulation time: 2 hr 54 min 47 sec) 
Heartbeat CPU 2 instructions: 890000000 cycles: 603120448 heartbeat IPC: 1.18725 cumulative IPC: 1.18019 (Simulation time: 2 hr 56 min 4 sec) 
Heartbeat CPU 1 instructions: 770000001 cycles: 603871389 heartbeat IPC: 1.07014 cumulative IPC: 1.06953 (Simulation time: 2 hr 56 min 14 sec) 
Heartbeat CPU 3 instructions: 720000000 cycles: 607473869 heartbeat IPC: 1.01354 cumulative IPC: 1.01314 (Simulation time: 2 hr 57 min 5 sec) 
Heartbeat CPU 2 instructions: 900000000 cycles: 611539964 heartbeat IPC: 1.18772 cumulative IPC: 1.18033 (Simulation time: 2 hr 58 min 1 sec) 
Heartbeat CPU 1 instructions: 780000000 cycles: 613200441 heartbeat IPC: 1.07192 cumulative IPC: 1.06958 (Simulation time: 2 hr 58 min 25 sec) 
Heartbeat CPU 3 instructions: 730000003 cycles: 617333323 heartbeat IPC: 1.01426 cumulative IPC: 1.01316 (Simulation time: 2 hr 59 min 22 sec) 
Heartbeat CPU 2 instructions: 910000002 cycles: 620020909 heartbeat IPC: 1.17911 cumulative IPC: 1.18031 (Simulation time: 3 hr 0 min 0 sec) 
Heartbeat CPU 1 instructions: 790000003 cycles: 622564791 heartbeat IPC: 1.06788 cumulative IPC: 1.06954 (Simulation time: 3 hr 0 min 35 sec) 
Heartbeat CPU 3 instructions: 740000000 cycles: 627198297 heartbeat IPC: 1.01369 cumulative IPC: 1.01317 (Simulation time: 3 hr 1 min 40 sec) 
Heartbeat CPU 2 instructions: 920000000 cycles: 628519899 heartbeat IPC: 1.17661 cumulative IPC: 1.18024 (Simulation time: 3 hr 1 min 58 sec) 
Heartbeat CPU 1 instructions: 800000000 cycles: 631893045 heartbeat IPC: 1.07201 cumulative IPC: 1.06959 (Simulation time: 3 hr 2 min 46 sec) 
Heartbeat CPU 0 instructions: 300000000 cycles: 635690480 heartbeat IPC: 0.204813 cumulative IPC: 0.204704 (Simulation time: 3 hr 3 min 39 sec) 
Heartbeat CPU 2 instructions: 930000001 cycles: 636922968 heartbeat IPC: 1.19004 cumulative IPC: 1.18041 (Simulation time: 3 hr 3 min 56 sec) 
Heartbeat CPU 3 instructions: 750000003 cycles: 637049848 heartbeat IPC: 1.01507 cumulative IPC: 1.01321 (Simulation time: 3 hr 3 min 58 sec) 
Heartbeat CPU 1 instructions: 810000003 cycles: 641217455 heartbeat IPC: 1.07245 cumulative IPC: 1.06964 (Simulation time: 3 hr 4 min 56 sec) 
Heartbeat CPU 2 instructions: 940000000 cycles: 645357249 heartbeat IPC: 1.18564 cumulative IPC: 1.1805 (Simulation time: 3 hr 5 min 54 sec) 
Heartbeat CPU 3 instructions: 760000000 cycles: 646914238 heartbeat IPC: 1.01375 cumulative IPC: 1.01322 (Simulation time: 3 hr 6 min 16 sec) 
Heartbeat CPU 1 instructions: 820000000 cycles: 650554611 heartbeat IPC: 1.07099 cumulative IPC: 1.06967 (Simulation time: 3 hr 7 min 8 sec) 
Heartbeat CPU 2 instructions: 950000000 cycles: 653826017 heartbeat IPC: 1.18081 cumulative IPC: 1.1805 (Simulation time: 3 hr 7 min 55 sec) 
Heartbeat CPU 3 instructions: 770000002 cycles: 656771998 heartbeat IPC: 1.01443 cumulative IPC: 1.01325 (Simulation time: 3 hr 8 min 40 sec) 
Heartbeat CPU 1 instructions: 830000002 cycles: 659884642 heartbeat IPC: 1.07181 cumulative IPC: 1.06971 (Simulation time: 3 hr 9 min 27 sec) 
Heartbeat CPU 2 instructions: 960000000 cycles: 662322472 heartbeat IPC: 1.17696 cumulative IPC: 1.18045 (Simulation time: 3 hr 10 min 3 sec) 
Heartbeat CPU 3 instructions: 780000000 cycles: 666631357 heartbeat IPC: 1.01426 cumulative IPC: 1.01326 (Simulation time: 3 hr 11 min 8 sec) 
Heartbeat CPU 1 instructions: 840000000 cycles: 669185347 heartbeat IPC: 1.07519 cumulative IPC: 1.06981 (Simulation time: 3 hr 11 min 48 sec) 
Heartbeat CPU 2 instructions: 970000001 cycles: 670732798 heartbeat IPC: 1.18901 cumulative IPC: 1.18058 (Simulation time: 3 hr 12 min 15 sec) 
Heartbeat CPU 3 instructions: 790000001 cycles: 676497090 heartbeat IPC: 1.01361 cumulative IPC: 1.01327 (Simulation time: 3 hr 13 min 48 sec) 
Heartbeat CPU 1 instructions: 850000001 cycles: 678512604 heartbeat IPC: 1.07213 cumulative IPC: 1.06985 (Simulation time: 3 hr 14 min 22 sec) 
Heartbeat CPU 2 instructions: 980000000 cycles: 679166280 heartbeat IPC: 1.18575 cumulative IPC: 1.18067 (Simulation time: 3 hr 14 min 32 sec) 
Heartbeat CPU 0 instructions: 310000000 cycles: 683920427 heartbeat IPC: 0.20734 cumulative IPC: 0.204941 (Simulation time: 3 hr 15 min 45 sec) 
Heartbeat CPU 3 instructions: 800000000 cycles: 686346376 heartbeat IPC: 1.0153 cumulative IPC: 1.01331 (Simulation time: 3 hr 16 min 23 sec) 
Heartbeat CPU 2 instructions: 990000002 cycles: 687575929 heartbeat IPC: 1.18911 cumulative IPC: 1.1808 (Simulation time: 3 hr 16 min 42 sec) 
Heartbeat CPU 1 instructions: 860000000 cycles: 687893047 heartbeat IPC: 1.06605 cumulative IPC: 1.06978 (Simulation time: 3 hr 16 min 49 sec) 
Heartbeat CPU 2 instructions: 1000000000 cycles: 696113249 heartbeat IPC: 1.17133 cumulative IPC: 1.18065 (Simulation time: 3 hr 18 min 54 sec) 
Heartbeat CPU 3 instructions: 810000000 cycles: 696224738 heartbeat IPC: 1.01231 cumulative IPC: 1.01329 (Simulation time: 3 hr 18 min 56 sec) 
Heartbeat CPU 1 instructions: 870000001 cycles: 697237480 heartbeat IPC: 1.07016 cumulative IPC: 1.06979 (Simulation time: 3 hr 19 min 10 sec) 
Heartbeat CPU 2 instructions: 1010000002 cycles: 704558549 heartbeat IPC: 1.18409 cumulative IPC: 1.1807 (Simulation time: 3 hr 20 min 53 sec) 
Heartbeat CPU 3 instructions: 820000000 cycles: 706086104 heartbeat IPC: 1.01406 cumulative IPC: 1.0133 (Simulation time: 3 hr 21 min 14 sec) 
Heartbeat CPU 1 instructions: 880000000 cycles: 706621303 heartbeat IPC: 1.06566 cumulative IPC: 1.06972 (Simulation time: 3 hr 21 min 23 sec) 
Heartbeat CPU 2 instructions: 1020000000 cycles: 713001292 heartbeat IPC: 1.18445 cumulative IPC: 1.18076 (Simulation time: 3 hr 23 min 8 sec) 
Heartbeat CPU 1 instructions: 890000000 cycles: 715958657 heartbeat IPC: 1.07097 cumulative IPC: 1.06974 (Simulation time: 3 hr 23 min 51 sec) 
Heartbeat CPU 3 instructions: 830000000 cycles: 715991170 heartbeat IPC: 1.00958 cumulative IPC: 1.01324 (Simulation time: 3 hr 23 min 52 sec) 
Heartbeat CPU 2 instructions: 1030000003 cycles: 721444679 heartbeat IPC: 1.18436 cumulative IPC: 1.18081 (Simulation time: 3 hr 25 min 17 sec) 
Heartbeat CPU 1 instructions: 900000000 cycles: 725311662 heartbeat IPC: 1.06918 cumulative IPC: 1.06973 (Simulation time: 3 hr 26 min 23 sec) 
Heartbeat CPU 3 instructions: 840000000 cycles: 725986270 heartbeat IPC: 1.00049 cumulative IPC: 1.01302 (Simulation time: 3 hr 26 min 32 sec) 
Heartbeat CPU 2 instructions: 1040000000 cycles: 729891617 heartbeat IPC: 1.18386 cumulative IPC: 1.18086 (Simulation time: 3 hr 27 min 29 sec) 
Heartbeat CPU 0 instructions: 320000000 cycles: 732611784 heartbeat IPC: 0.205375 cumulative IPC: 0.204977 (Simulation time: 3 hr 28 min 10 sec) 
Heartbeat CPU 1 instructions: 910000000 cycles: 734697720 heartbeat IPC: 1.06541 cumulative IPC: 1.06966 (Simulation time: 3 hr 28 min 43 sec) 
Heartbeat CPU 3 instructions: 850000003 cycles: 735812207 heartbeat IPC: 1.01771 cumulative IPC: 1.0131 (Simulation time: 3 hr 29 min 0 sec) 
Heartbeat CPU 2 instructions: 1050000001 cycles: 738332370 heartbeat IPC: 1.18473 cumulative IPC: 1.18091 (Simulation time: 3 hr 29 min 36 sec) 
Heartbeat CPU 1 instructions: 920000000 cycles: 744013879 heartbeat IPC: 1.0734 cumulative IPC: 1.06972 (Simulation time: 3 hr 30 min 56 sec) 
Heartbeat CPU 3 instructions: 860000000 cycles: 745644321 heartbeat IPC: 1.01707 cumulative IPC: 1.01316 (Simulation time: 3 hr 31 min 19 sec) 
Heartbeat CPU 2 instructions: 1060000000 cycles: 746780379 heartbeat IPC: 1.18371 cumulative IPC: 1.18095 (Simulation time: 3 hr 31 min 35 sec) 
Heartbeat CPU 1 instructions: 930000000 cycles: 753352556 heartbeat IPC: 1.07082 cumulative IPC: 1.06974 (Simulation time: 3 hr 33 min 7 sec) 
Heartbeat CPU 2 instructions: 1070000001 cycles: 755246174 heartbeat IPC: 1.18122 cumulative IPC: 1.18095 (Simulation time: 3 hr 33 min 34 sec) 
Heartbeat CPU 3 instructions: 870000000 cycles: 755492647 heartbeat IPC: 1.0154 cumulative IPC: 1.0132 (Simulation time: 3 hr 33 min 37 sec) 
Heartbeat CPU 1 instructions: 940000000 cycles: 762713505 heartbeat IPC: 1.06827 cumulative IPC: 1.06971 (Simulation time: 3 hr 35 min 23 sec) 
Heartbeat CPU 2 instructions: 1080000000 cycles: 763765406 heartbeat IPC: 1.17381 cumulative IPC: 1.18086 (Simulation time: 3 hr 35 min 38 sec) 
Heartbeat CPU 3 instructions: 880000000 cycles: 765332233 heartbeat IPC: 1.0163 cumulative IPC: 1.01325 (Simulation time: 3 hr 36 min 1 sec) 
Heartbeat CPU 1 instructions: 950000000 cycles: 772104575 heartbeat IPC: 1.06484 cumulative IPC: 1.06964 (Simulation time: 3 hr 37 min 49 sec) 
Heartbeat CPU 2 instructions: 1090000000 cycles: 772274683 heartbeat IPC: 1.17519 cumulative IPC: 1.18078 (Simulation time: 3 hr 37 min 52 sec) 
Heartbeat CPU 3 instructions: 890000002 cycles: 775185579 heartbeat IPC: 1.01488 cumulative IPC: 1.01327 (Simulation time: 3 hr 38 min 37 sec) 
Heartbeat CPU 2 instructions: 1100000000 cycles: 780755767 heartbeat IPC: 1.17909 cumulative IPC: 1.18076 (Simulation time: 3 hr 40 min 4 sec) 
Heartbeat CPU 1 instructions: 960000000 cycles: 781576469 heartbeat IPC: 1.05576 cumulative IPC: 1.06943 (Simulation time: 3 hr 40 min 18 sec) 
Heartbeat CPU 0 instructions: 330000003 cycles: 781778040 heartbeat IPC: 0.203392 cumulative IPC: 0.204854 (Simulation time: 3 hr 40 min 20 sec) 
Heartbeat CPU 3 instructions: 900000000 cycles: 785023425 heartbeat IPC: 1.01648 cumulative IPC: 1.01332 (Simulation time: 3 hr 41 min 15 sec) 
Heartbeat CPU 2 instructions: 1110000000 cycles: 789247249 heartbeat IPC: 1.17765 cumulative IPC: 1.18071 (Simulation time: 3 hr 42 min 26 sec) 
Heartbeat CPU 1 instructions: 970000003 cycles: 790913082 heartbeat IPC: 1.07105 cumulative IPC: 1.06946 (Simulation time: 3 hr 42 min 54 sec) 
Heartbeat CPU 3 instructions: 910000001 cycles: 794888898 heartbeat IPC: 1.01364 cumulative IPC: 1.01333 (Simulation time: 3 hr 43 min 59 sec) 
Heartbeat CPU 2 instructions: 1120000000 cycles: 797779475 heartbeat IPC: 1.17203 cumulative IPC: 1.1806 (Simulation time: 3 hr 44 min 40 sec) 
Heartbeat CPU 1 instructions: 980000000 cycles: 800255410 heartbeat IPC: 1.0704 cumulative IPC: 1.06947 (Simulation time: 3 hr 45 min 15 sec) 
Heartbeat CPU 3 instructions: 920000000 cycles: 804771402 heartbeat IPC: 1.01189 cumulative IPC: 1.01331 (Simulation time: 3 hr 46 min 18 sec) 
Heartbeat CPU 2 instructions: 1130000001 cycles: 806263486 heartbeat IPC: 1.17869 cumulative IPC: 1.18058 (Simulation time: 3 hr 46 min 38 sec) 
Heartbeat CPU 1 instructions: 990000003 cycles: 809594792 heartbeat IPC: 1.07073 cumulative IPC: 1.06949 (Simulation time: 3 hr 47 min 27 sec) 
Heartbeat CPU 3 instructions: 930000003 cycles: 814636015 heartbeat IPC: 1.01372 cumulative IPC: 1.01331 (Simulation time: 3 hr 48 min 39 sec) 
Heartbeat CPU 2 instructions: 1140000000 cycles: 814788360 heartbeat IPC: 1.17304 cumulative IPC: 1.18048 (Simulation time: 3 hr 48 min 41 sec) 
Heartbeat CPU 1 instructions: 1000000000 cycles: 818925070 heartbeat IPC: 1.07178 cumulative IPC: 1.06952 (Simulation time: 3 hr 49 min 47 sec) 
Heartbeat CPU 2 instructions: 1150000001 cycles: 823294478 heartbeat IPC: 1.17562 cumulative IPC: 1.18042 (Simulation time: 3 hr 50 min 53 sec) 
Heartbeat CPU 3 instructions: 940000000 cycles: 824463147 heartbeat IPC: 1.01759 cumulative IPC: 1.01337 (Simulation time: 3 hr 51 min 9 sec) 
Heartbeat CPU 1 instructions: 1010000002 cycles: 828299266 heartbeat IPC: 1.06676 cumulative IPC: 1.06948 (Simulation time: 3 hr 52 min 1 sec) 
Heartbeat CPU 0 instructions: 340000000 cycles: 830834707 heartbeat IPC: 0.203846 cumulative IPC: 0.204782 (Simulation time: 3 hr 52 min 36 sec) 
Heartbeat CPU 2 instructions: 1160000000 cycles: 831847282 heartbeat IPC: 1.16921 cumulative IPC: 1.18028 (Simulation time: 3 hr 52 min 49 sec) 
Heartbeat CPU 3 instructions: 950000002 cycles: 834293828 heartbeat IPC: 1.01722 cumulative IPC: 1.01343 (Simulation time: 3 hr 53 min 23 sec) 
Heartbeat CPU 1 instructions: 1020000000 cycles: 837623275 heartbeat IPC: 1.0725 cumulative IPC: 1.06952 (Simulation time: 3 hr 54 min 9 sec) 
Heartbeat CPU 2 instructions: 1170000000 cycles: 840339660 heartbeat IPC: 1.17753 cumulative IPC: 1.18024 (Simulation time: 3 hr 54 min 46 sec) 
Heartbeat CPU 3 instructions: 960000000 cycles: 844151681 heartbeat IPC: 1.01442 cumulative IPC: 1.01344 (Simulation time: 3 hr 55 min 38 sec) 
Heartbeat CPU 1 instructions: 1030000003 cycles: 846966680 heartbeat IPC: 1.07027 cumulative IPC: 1.06953 (Simulation time: 3 hr 56 min 15 sec) 
Heartbeat CPU 2 instructions: 1180000000 cycles: 848864717 heartbeat IPC: 1.17301 cumulative IPC: 1.18016 (Simulation time: 3 hr 56 min 40 sec) 
Heartbeat CPU 3 instructions: 970000001 cycles: 854034288 heartbeat IPC: 1.01188 cumulative IPC: 1.01342 (Simulation time: 3 hr 57 min 48 sec) 
Heartbeat CPU 1 instructions: 1040000000 cycles: 856412289 heartbeat IPC: 1.05869 cumulative IPC: 1.06939 (Simulation time: 3 hr 58 min 20 sec) 
Heartbeat CPU 2 instructions: 1190000001 cycles: 857351149 heartbeat IPC: 1.17835 cumulative IPC: 1.18014 (Simulation time: 3 hr 58 min 33 sec) 
Heartbeat CPU 3 instructions: 980000000 cycles: 863864441 heartbeat IPC: 1.01728 cumulative IPC: 1.01347 (Simulation time: 4 hr 0 min 2 sec) 
Heartbeat CPU 2 instructions: 1200000000 cycles: 865827043 heartbeat IPC: 1.17982 cumulative IPC: 1.18013 (Simulation time: 4 hr 0 min 29 sec) 
Heartbeat CPU 1 instructions: 1050000001 cycles: 865895733 heartbeat IPC: 1.05447 cumulative IPC: 1.06919 (Simulation time: 4 hr 0 min 30 sec) 
Heartbeat CPU 3 instructions: 990000003 cycles: 873824155 heartbeat IPC: 1.00405 cumulative IPC: 1.01335 (Simulation time: 4 hr 2 min 18 sec) 
Heartbeat CPU 2 instructions: 1210000002 cycles: 874321656 heartbeat IPC: 1.17722 cumulative IPC: 1.1801 (Simulation time: 4 hr 2 min 25 sec) 
Heartbeat CPU 1 instructions: 1060000000 cycles: 875257917 heartbeat IPC: 1.06813 cumulative IPC: 1.06918 (Simulation time: 4 hr 2 min 38 sec) 
Heartbeat CPU 0 instructions: 350000001 cycles: 880332804 heartbeat IPC: 0.202028 cumulative IPC: 0.204596 (Simulation time: 4 hr 3 min 48 sec) 
Heartbeat CPU 2 instructions: 1220000000 cycles: 882782872 heartbeat IPC: 1.18186 cumulative IPC: 1.18012 (Simulation time: 4 hr 4 min 21 sec) 
Heartbeat CPU 3 instructions: 1000000000 cycles: 883688542 heartbeat IPC: 1.01375 cumulative IPC: 1.01335 (Simulation time: 4 hr 4 min 33 sec) 
Heartbeat CPU 1 instructions: 1070000002 cycles: 884588656 heartbeat IPC: 1.07173 cumulative IPC: 1.06921 (Simulation time: 4 hr 4 min 46 sec) 
Heartbeat CPU 2 instructions: 1230000001 cycles: 891219244 heartbeat IPC: 1.18534 cumulative IPC: 1.18018 (Simulation time: 4 hr 6 min 16 sec) 
Heartbeat CPU 3 instructions: 1010000002 cycles: 893560863 heartbeat IPC: 1.01293 cumulative IPC: 1.01335 (Simulation time: 4 hr 6 min 48 sec) 
Heartbeat CPU 1 instructions: 1080000000 cycles: 893933431 heartbeat IPC: 1.07012 cumulative IPC: 1.06922 (Simulation time: 4 hr 6 min 53 sec) 
Heartbeat CPU 2 instructions: 1240000000 cycles: 899717305 heartbeat IPC: 1.17674 cumulative IPC: 1.18014 (Simulation time: 4 hr 8 min 11 sec) 
Heartbeat CPU 1 instructions: 1090000002 cycles: 903268303 heartbeat IPC: 1.07125 cumulative IPC: 1.06925 (Simulation time: 4 hr 8 min 59 sec) 
Heartbeat CPU 3 instructions: 1020000000 cycles: 903423564 heartbeat IPC: 1.01392 cumulative IPC: 1.01335 (Simulation time: 4 hr 9 min 2 sec) 
Heartbeat CPU 2 instructions: 1250000003 cycles: 908179344 heartbeat IPC: 1.18175 cumulative IPC: 1.18016 (Simulation time: 4 hr 10 min 7 sec) 
Heartbeat CPU 1 instructions: 1100000000 cycles: 912695162 heartbeat IPC: 1.0608 cumulative IPC: 1.06914 (Simulation time: 4 hr 11 min 9 sec) 
Heartbeat CPU 3 instructions: 1030000002 cycles: 913260494 heartbeat IPC: 1.01658 cumulative IPC: 1.01339 (Simulation time: 4 hr 11 min 16 sec) 
Heartbeat CPU 2 instructions: 1260000000 cycles: 916658244 heartbeat IPC: 1.1794 cumulative IPC: 1.18015 (Simulation time: 4 hr 12 min 2 sec) 
Heartbeat CPU 1 instructions: 1110000003 cycles: 922042725 heartbeat IPC: 1.0698 cumulative IPC: 1.06915 (Simulation time: 4 hr 13 min 15 sec) 
Heartbeat CPU 3 instructions: 1040000000 cycles: 923128193 heartbeat IPC: 1.01341 cumulative IPC: 1.01339 (Simulation time: 4 hr 13 min 30 sec) 
Heartbeat CPU 2 instructions: 1270000003 cycles: 925126455 heartbeat IPC: 1.18089 cumulative IPC: 1.18016 (Simulation time: 4 hr 13 min 57 sec) 
Heartbeat CPU 0 instructions: 360000000 cycles: 929579631 heartbeat IPC: 0.203059 cumulative IPC: 0.204499 (Simulation time: 4 hr 14 min 59 sec) 
Heartbeat CPU 1 instructions: 1120000000 cycles: 931401584 heartbeat IPC: 1.06851 cumulative IPC: 1.06914 (Simulation time: 4 hr 15 min 23 sec) 
Heartbeat CPU 3 instructions: 1050000001 cycles: 932990114 heartbeat IPC: 1.014 cumulative IPC: 1.0134 (Simulation time: 4 hr 15 min 45 sec) 
Heartbeat CPU 2 instructions: 1280000000 cycles: 933606172 heartbeat IPC: 1.17928 cumulative IPC: 1.18015 (Simulation time: 4 hr 15 min 53 sec) 
Heartbeat CPU 1 instructions: 1130000002 cycles: 940742290 heartbeat IPC: 1.07058 cumulative IPC: 1.06916 (Simulation time: 4 hr 17 min 31 sec) 
Heartbeat CPU 2 instructions: 1290000001 cycles: 942058920 heartbeat IPC: 1.18305 cumulative IPC: 1.18018 (Simulation time: 4 hr 17 min 50 sec) 
Heartbeat CPU 3 instructions: 1060000000 cycles: 942841025 heartbeat IPC: 1.01513 cumulative IPC: 1.01342 (Simulation time: 4 hr 18 min 0 sec) 
Heartbeat CPU 1 instructions: 1140000000 cycles: 950063039 heartbeat IPC: 1.07287 cumulative IPC: 1.0692 (Simulation time: 4 hr 19 min 41 sec) 
Heartbeat CPU 2 instructions: 1300000000 cycles: 950563545 heartbeat IPC: 1.17583 cumulative IPC: 1.18013 (Simulation time: 4 hr 19 min 47 sec) 
Heartbeat CPU 3 instructions: 1070000003 cycles: 952704546 heartbeat IPC: 1.01384 cumulative IPC: 1.01343 (Simulation time: 4 hr 20 min 17 sec) 
Heartbeat CPU 2 instructions: 1310000000 cycles: 959018133 heartbeat IPC: 1.18279 cumulative IPC: 1.18016 (Simulation time: 4 hr 21 min 40 sec) 
Heartbeat CPU 1 instructions: 1150000003 cycles: 959406011 heartbeat IPC: 1.07032 cumulative IPC: 1.06921 (Simulation time: 4 hr 21 min 45 sec) 
Heartbeat CPU 3 instructions: 1080000000 cycles: 962566689 heartbeat IPC: 1.01398 cumulative IPC: 1.01344 (Simulation time: 4 hr 22 min 26 sec) 
Heartbeat CPU 2 instructions: 1320000000 cycles: 967413914 heartbeat IPC: 1.19107 cumulative IPC: 1.18027 (Simulation time: 4 hr 23 min 30 sec) 
Heartbeat CPU 1 instructions: 1160000000 cycles: 968760536 heartbeat IPC: 1.069 cumulative IPC: 1.06921 (Simulation time: 4 hr 23 min 47 sec) 
Heartbeat CPU 3 instructions: 1090000000 cycles: 972413716 heartbeat IPC: 1.01553 cumulative IPC: 1.01346 (Simulation time: 4 hr 24 min 35 sec) 
Heartbeat CPU 2 instructions: 1330000001 cycles: 975882387 heartbeat IPC: 1.18085 cumulative IPC: 1.18028 (Simulation time: 4 hr 25 min 20 sec) 
Heartbeat CPU 1 instructions: 1170000001 cycles: 978091896 heartbeat IPC: 1.07166 cumulative IPC: 1.06924 (Simulation time: 4 hr 25 min 49 sec) 
Heartbeat CPU 0 instructions: 370000001 cycles: 978236493 heartbeat IPC: 0.205521 cumulative IPC: 0.204559 (Simulation time: 4 hr 25 min 51 sec) 
Heartbeat CPU 3 instructions: 1100000000 cycles: 982242134 heartbeat IPC: 1.01746 cumulative IPC: 1.01351 (Simulation time: 4 hr 26 min 43 sec) 
Heartbeat CPU 2 instructions: 1340000000 cycles: 984435255 heartbeat IPC: 1.1692 cumulative IPC: 1.18016 (Simulation time: 4 hr 27 min 11 sec) 
Heartbeat CPU 1 instructions: 1180000000 cycles: 987417154 heartbeat IPC: 1.07236 cumulative IPC: 1.06927 (Simulation time: 4 hr 27 min 50 sec) 
Heartbeat CPU 3 instructions: 1110000001 cycles: 992135738 heartbeat IPC: 1.01075 cumulative IPC: 1.01348 (Simulation time: 4 hr 28 min 54 sec) 
Heartbeat CPU 2 instructions: 1350000002 cycles: 992903628 heartbeat IPC: 1.18086 cumulative IPC: 1.18017 (Simulation time: 4 hr 29 min 5 sec) 
Finished CPU 2 instructions: 1000000003 cycles: 847301994 cumulative IPC: 1.18022 (Simulation time: 4 hr 29 min 27 sec) 
Heartbeat CPU 1 instructions: 1190000002 cycles: 996834193 heartbeat IPC: 1.06191 cumulative IPC: 1.06919 (Simulation time: 4 hr 29 min 58 sec) 
Heartbeat CPU 2 instructions: 1360000000 cycles: 1001481421 heartbeat IPC: 1.1658 cumulative IPC: 1.18003 (Simulation time: 4 hr 31 min 2 sec) 
Heartbeat CPU 3 instructions: 1120000000 cycles: 1001979529 heartbeat IPC: 1.01587 cumulative IPC: 1.0135 (Simulation time: 4 hr 31 min 9 sec) 
Heartbeat CPU 1 instructions: 1200000000 cycles: 1006246236 heartbeat IPC: 1.06247 cumulative IPC: 1.06912 (Simulation time: 4 hr 32 min 8 sec) 
Heartbeat CPU 2 instructions: 1370000003 cycles: 1009957188 heartbeat IPC: 1.17983 cumulative IPC: 1.18002 (Simulation time: 4 hr 32 min 59 sec) 
Heartbeat CPU 3 instructions: 1130000002 cycles: 1011823990 heartbeat IPC: 1.0158 cumulative IPC: 1.01353 (Simulation time: 4 hr 33 min 24 sec) 
Heartbeat CPU 1 instructions: 1210000000 cycles: 1015559910 heartbeat IPC: 1.07369 cumulative IPC: 1.06917 (Simulation time: 4 hr 34 min 9 sec) 
Heartbeat CPU 3 instructions: 1140000000 cycles: 1021611622 heartbeat IPC: 1.0217 cumulative IPC: 1.01362 (Simulation time: 4 hr 35 min 19 sec) 
Heartbeat CPU 1 instructions: 1220000000 cycles: 1024887006 heartbeat IPC: 1.07215 cumulative IPC: 1.0692 (Simulation time: 4 hr 35 min 57 sec) 
Heartbeat CPU 0 instructions: 380000000 cycles: 1026077593 heartbeat IPC: 0.209025 cumulative IPC: 0.204802 (Simulation time: 4 hr 36 min 11 sec) 
Heartbeat CPU 2 instructions: 1380000000 cycles: 1029592427 heartbeat IPC: 0.509288 cumulative IPC: 1.1651 (Simulation time: 4 hr 36 min 52 sec) 
Heartbeat CPU 3 instructions: 1150000000 cycles: 1031531440 heartbeat IPC: 1.00808 cumulative IPC: 1.01356 (Simulation time: 4 hr 37 min 15 sec) 
Heartbeat CPU 1 instructions: 1230000001 cycles: 1034198413 heartbeat IPC: 1.07395 cumulative IPC: 1.06925 (Simulation time: 4 hr 37 min 46 sec) 
Heartbeat CPU 3 instructions: 1160000000 cycles: 1041315890 heartbeat IPC: 1.02203 cumulative IPC: 1.01365 (Simulation time: 4 hr 39 min 9 sec) 
Heartbeat CPU 1 instructions: 1240000000 cycles: 1043445528 heartbeat IPC: 1.08142 cumulative IPC: 1.06938 (Simulation time: 4 hr 39 min 34 sec) 
Heartbeat CPU 3 instructions: 1170000001 cycles: 1051127699 heartbeat IPC: 1.01918 cumulative IPC: 1.01371 (Simulation time: 4 hr 41 min 4 sec) 
Heartbeat CPU 1 instructions: 1250000000 cycles: 1052705829 heartbeat IPC: 1.07988 cumulative IPC: 1.06948 (Simulation time: 4 hr 41 min 22 sec) 
Heartbeat CPU 2 instructions: 1390000001 cycles: 1054099345 heartbeat IPC: 0.408048 cumulative IPC: 1.14464 (Simulation time: 4 hr 41 min 39 sec) 
Heartbeat CPU 3 instructions: 1180000000 cycles: 1060898526 heartbeat IPC: 1.02345 cumulative IPC: 1.01382 (Simulation time: 4 hr 42 min 58 sec) 
Heartbeat CPU 1 instructions: 1260000000 cycles: 1062017419 heartbeat IPC: 1.07393 cumulative IPC: 1.06953 (Simulation time: 4 hr 43 min 11 sec) 
Heartbeat CPU 3 instructions: 1190000003 cycles: 1070686028 heartbeat IPC: 1.02171 cumulative IPC: 1.0139 (Simulation time: 4 hr 44 min 53 sec) 
Heartbeat CPU 1 instructions: 1270000000 cycles: 1071324237 heartbeat IPC: 1.07448 cumulative IPC: 1.06958 (Simulation time: 4 hr 45 min 0 sec) 
Heartbeat CPU 0 instructions: 390000002 cycles: 1071614951 heartbeat IPC: 0.2196 cumulative IPC: 0.205531 (Simulation time: 4 hr 45 min 3 sec) 
Heartbeat CPU 2 instructions: 1400000000 cycles: 1078488323 heartbeat IPC: 0.410021 cumulative IPC: 1.1254 (Simulation time: 4 hr 46 min 24 sec) 
Heartbeat CPU 3 instructions: 1200000000 cycles: 1080467025 heartbeat IPC: 1.02239 cumulative IPC: 1.01399 (Simulation time: 4 hr 46 min 47 sec) 
Heartbeat CPU 1 instructions: 1280000000 cycles: 1080602203 heartbeat IPC: 1.07782 cumulative IPC: 1.06966 (Simulation time: 4 hr 46 min 48 sec) 
Finished CPU 1 instructions: 1000000000 cycles: 934863085 cumulative IPC: 1.06968 (Simulation time: 4 hr 47 min 5 sec) 
Heartbeat CPU 1 instructions: 1290000003 cycles: 1089905564 heartbeat IPC: 1.07488 cumulative IPC: 1.06971 (Simulation time: 4 hr 48 min 37 sec) 
Heartbeat CPU 3 instructions: 1210000000 cycles: 1090232384 heartbeat IPC: 1.02403 cumulative IPC: 1.01409 (Simulation time: 4 hr 48 min 41 sec) 
Heartbeat CPU 1 instructions: 1300000000 cycles: 1099190058 heartbeat IPC: 1.07706 cumulative IPC: 1.06978 (Simulation time: 4 hr 50 min 25 sec) 
Heartbeat CPU 3 instructions: 1220000000 cycles: 1100061899 heartbeat IPC: 1.01734 cumulative IPC: 1.01413 (Simulation time: 4 hr 50 min 35 sec) 
Heartbeat CPU 2 instructions: 1410000003 cycles: 1103214568 heartbeat IPC: 0.404429 cumulative IPC: 1.10676 (Simulation time: 4 hr 51 min 12 sec) 
Heartbeat CPU 1 instructions: 1310000000 cycles: 1108458449 heartbeat IPC: 1.07894 cumulative IPC: 1.06987 (Simulation time: 4 hr 52 min 13 sec) 
Heartbeat CPU 3 instructions: 1230000000 cycles: 1109890148 heartbeat IPC: 1.01748 cumulative IPC: 1.01416 (Simulation time: 4 hr 52 min 30 sec) 
Heartbeat CPU 1 instructions: 1320000000 cycles: 1117764139 heartbeat IPC: 1.07461 cumulative IPC: 1.06992 (Simulation time: 4 hr 54 min 0 sec) 
Heartbeat CPU 0 instructions: 400000000 cycles: 1117870170 heartbeat IPC: 0.216192 cumulative IPC: 0.206039 (Simulation time: 4 hr 54 min 2 sec) 
Heartbeat CPU 3 instructions: 1240000000 cycles: 1119678825 heartbeat IPC: 1.02159 cumulative IPC: 1.01423 (Simulation time: 4 hr 54 min 23 sec) 
Heartbeat CPU 1 instructions: 1330000000 cycles: 1127064010 heartbeat IPC: 1.07528 cumulative IPC: 1.06997 (Simulation time: 4 hr 55 min 49 sec) 
Heartbeat CPU 2 instructions: 1420000000 cycles: 1127538894 heartbeat IPC: 0.411111 cumulative IPC: 1.0895 (Simulation time: 4 hr 55 min 55 sec) 
Heartbeat CPU 3 instructions: 1250000000 cycles: 1129456351 heartbeat IPC: 1.02275 cumulative IPC: 1.01432 (Simulation time: 4 hr 56 min 17 sec) 
Finished CPU 3 instructions: 1000000000 cycles: 985846248 cumulative IPC: 1.01436 (Simulation time: 4 hr 56 min 59 sec) 
Heartbeat CPU 1 instructions: 1340000000 cycles: 1136357216 heartbeat IPC: 1.07605 cumulative IPC: 1.07002 (Simulation time: 4 hr 57 min 38 sec) 
Heartbeat CPU 3 instructions: 1260000000 cycles: 1139216187 heartbeat IPC: 1.02461 cumulative IPC: 1.01442 (Simulation time: 4 hr 58 min 11 sec) 
Heartbeat CPU 1 instructions: 1350000001 cycles: 1145629258 heartbeat IPC: 1.07851 cumulative IPC: 1.0701 (Simulation time: 4 hr 59 min 26 sec) 
Heartbeat CPU 3 instructions: 1270000000 cycles: 1149010185 heartbeat IPC: 1.02103 cumulative IPC: 1.01448 (Simulation time: 5 hr 0 min 6 sec) 
Heartbeat CPU 2 instructions: 1430000001 cycles: 1151996294 heartbeat IPC: 0.408874 cumulative IPC: 1.07293 (Simulation time: 5 hr 0 min 40 sec) 
Heartbeat CPU 1 instructions: 1360000000 cycles: 1154910753 heartbeat IPC: 1.07741 cumulative IPC: 1.07017 (Simulation time: 5 hr 1 min 15 sec) 
Heartbeat CPU 3 instructions: 1280000000 cycles: 1158831740 heartbeat IPC: 1.01817 cumulative IPC: 1.01452 (Simulation time: 5 hr 2 min 0 sec) 
Heartbeat CPU 0 instructions: 410000000 cycles: 1163907071 heartbeat IPC: 0.217217 cumulative IPC: 0.206545 (Simulation time: 5 hr 3 min 12 sec) 
Heartbeat CPU 1 instructions: 1370000000 cycles: 1164209850 heartbeat IPC: 1.07537 cumulative IPC: 1.07022 (Simulation time: 5 hr 3 min 16 sec) 
Heartbeat CPU 3 instructions: 1290000001 cycles: 1168649276 heartbeat IPC: 1.01859 cumulative IPC: 1.01456 (Simulation time: 5 hr 4 min 11 sec) 
Heartbeat CPU 1 instructions: 1380000000 cycles: 1173521791 heartbeat IPC: 1.07389 cumulative IPC: 1.07025 (Simulation time: 5 hr 5 min 8 sec) 
Heartbeat CPU 2 instructions: 1440000000 cycles: 1176411775 heartbeat IPC: 0.409576 cumulative IPC: 1.05719 (Simulation time: 5 hr 5 min 41 sec) 
Heartbeat CPU 3 instructions: 1300000000 cycles: 1178524992 heartbeat IPC: 1.01258 cumulative IPC: 1.01454 (Simulation time: 5 hr 6 min 6 sec) 
Heartbeat CPU 1 instructions: 1390000000 cycles: 1182767427 heartbeat IPC: 1.08159 cumulative IPC: 1.07035 (Simulation time: 5 hr 6 min 57 sec) 
Heartbeat CPU 3 instructions: 1310000000 cycles: 1188366942 heartbeat IPC: 1.01606 cumulative IPC: 1.01456 (Simulation time: 5 hr 8 min 7 sec) 
Heartbeat CPU 1 instructions: 1400000000 cycles: 1192052730 heartbeat IPC: 1.07697 cumulative IPC: 1.07041 (Simulation time: 5 hr 8 min 52 sec) 
Heartbeat CPU 3 instructions: 1320000000 cycles: 1198152064 heartbeat IPC: 1.02196 cumulative IPC: 1.01462 (Simulation time: 5 hr 10 min 3 sec) 
Heartbeat CPU 2 instructions: 1450000000 cycles: 1200841387 heartbeat IPC: 0.409339 cumulative IPC: 1.04217 (Simulation time: 5 hr 10 min 35 sec) 
Heartbeat CPU 1 instructions: 1410000002 cycles: 1201331508 heartbeat IPC: 1.07773 cumulative IPC: 1.07048 (Simulation time: 5 hr 10 min 41 sec) 
Heartbeat CPU 3 instructions: 1330000002 cycles: 1207931223 heartbeat IPC: 1.02258 cumulative IPC: 1.0147 (Simulation time: 5 hr 11 min 58 sec) 
Heartbeat CPU 0 instructions: 420000000 cycles: 1209392911 heartbeat IPC: 0.219849 cumulative IPC: 0.207115 (Simulation time: 5 hr 12 min 15 sec) 
Heartbeat CPU 1 instructions: 1420000000 cycles: 1210615460 heartbeat IPC: 1.07713 cumulative IPC: 1.07053 (Simulation time: 5 hr 12 min 29 sec) 
Heartbeat CPU 3 instructions: 1340000000 cycles: 1217708245 heartbeat IPC: 1.02281 cumulative IPC: 1.01477 (Simulation time: 5 hr 13 min 52 sec) 
Heartbeat CPU 1 instructions: 1430000002 cycles: 1219907375 heartbeat IPC: 1.0762 cumulative IPC: 1.07058 (Simulation time: 5 hr 14 min 18 sec) 
Heartbeat CPU 2 instructions: 1460000000 cycles: 1225254866 heartbeat IPC: 0.40961 cumulative IPC: 1.02785 (Simulation time: 5 hr 15 min 20 sec) 
Heartbeat CPU 3 instructions: 1350000001 cycles: 1227483136 heartbeat IPC: 1.02303 cumulative IPC: 1.01485 (Simulation time: 5 hr 15 min 46 sec) 
Heartbeat CPU 1 instructions: 1440000000 cycles: 1229198839 heartbeat IPC: 1.07626 cumulative IPC: 1.07063 (Simulation time: 5 hr 16 min 6 sec) 
Heartbeat CPU 3 instructions: 1360000000 cycles: 1237295367 heartbeat IPC: 1.01914 cumulative IPC: 1.01488 (Simulation time: 5 hr 17 min 40 sec) 
Heartbeat CPU 1 instructions: 1450000003 cycles: 1238492438 heartbeat IPC: 1.07601 cumulative IPC: 1.07068 (Simulation time: 5 hr 17 min 54 sec) 
Heartbeat CPU 3 instructions: 1370000003 cycles: 1247089532 heartbeat IPC: 1.02102 cumulative IPC: 1.01494 (Simulation time: 5 hr 19 min 35 sec) 
Heartbeat CPU 1 instructions: 1460000000 cycles: 1247744340 heartbeat IPC: 1.08086 cumulative IPC: 1.07076 (Simulation time: 5 hr 19 min 42 sec) 
Heartbeat CPU 2 instructions: 1470000000 cycles: 1249769966 heartbeat IPC: 0.407912 cumulative IPC: 1.01407 (Simulation time: 5 hr 20 min 6 sec) 
Heartbeat CPU 0 instructions: 430000000 cycles: 1255418590 heartbeat IPC: 0.21727 cumulative IPC: 0.207537 (Simulation time: 5 hr 21 min 12 sec) 
Heartbeat CPU 3 instructions: 1380000000 cycles: 1256903138 heartbeat IPC: 1.01899 cumulative IPC: 1.01498 (Simulation time: 5 hr 21 min 30 sec) 
Heartbeat CPU 1 instructions: 1470000000 cycles: 1257004994 heartbeat IPC: 1.07984 cumulative IPC: 1.07084 (Simulation time: 5 hr 21 min 31 sec) 
Heartbeat CPU 1 instructions: 1480000000 cycles: 1266294695 heartbeat IPC: 1.07646 cumulative IPC: 1.07089 (Simulation time: 5 hr 23 min 19 sec) 
Heartbeat CPU 3 instructions: 1390000003 cycles: 1266691823 heartbeat IPC: 1.02159 cumulative IPC: 1.01503 (Simulation time: 5 hr 23 min 24 sec) 
Heartbeat CPU 2 instructions: 1480000000 cycles: 1274208644 heartbeat IPC: 0.409187 cumulative IPC: 1.00095 (Simulation time: 5 hr 24 min 52 sec) 
Heartbeat CPU 1 instructions: 1490000001 cycles: 1275566747 heartbeat IPC: 1.07851 cumulative IPC: 1.07095 (Simulation time: 5 hr 25 min 8 sec) 
Heartbeat CPU 3 instructions: 1400000000 cycles: 1276496162 heartbeat IPC: 1.01996 cumulative IPC: 1.01508 (Simulation time: 5 hr 25 min 18 sec) 
Heartbeat CPU 1 instructions: 1500000000 cycles: 1284819348 heartbeat IPC: 1.08078 cumulative IPC: 1.07103 (Simulation time: 5 hr 26 min 56 sec) 
Heartbeat CPU 3 instructions: 1410000000 cycles: 1286294892 heartbeat IPC: 1.02054 cumulative IPC: 1.01512 (Simulation time: 5 hr 27 min 13 sec) 
Heartbeat CPU 1 instructions: 1510000000 cycles: 1294147214 heartbeat IPC: 1.07206 cumulative IPC: 1.07104 (Simulation time: 5 hr 28 min 44 sec) 
Heartbeat CPU 3 instructions: 1420000000 cycles: 1296091684 heartbeat IPC: 1.02074 cumulative IPC: 1.01517 (Simulation time: 5 hr 29 min 9 sec) 
Heartbeat CPU 2 instructions: 1490000003 cycles: 1298711010 heartbeat IPC: 0.408124 cumulative IPC: 0.988335 (Simulation time: 5 hr 29 min 43 sec) 
Heartbeat CPU 0 instructions: 440000000 cycles: 1300964321 heartbeat IPC: 0.21956 cumulative IPC: 0.208011 (Simulation time: 5 hr 30 min 13 sec) 
Heartbeat CPU 1 instructions: 1520000000 cycles: 1303407743 heartbeat IPC: 1.07985 cumulative IPC: 1.07111 (Simulation time: 5 hr 30 min 49 sec) 
Heartbeat CPU 3 instructions: 1430000001 cycles: 1305886980 heartbeat IPC: 1.0209 cumulative IPC: 1.01522 (Simulation time: 5 hr 31 min 22 sec) 
Heartbeat CPU 1 instructions: 1530000001 cycles: 1312700860 heartbeat IPC: 1.07607 cumulative IPC: 1.07115 (Simulation time: 5 hr 32 min 54 sec) 
Heartbeat CPU 3 instructions: 1440000000 cycles: 1315681149 heartbeat IPC: 1.02102 cumulative IPC: 1.01527 (Simulation time: 5 hr 33 min 33 sec) 
Heartbeat CPU 1 instructions: 1540000000 cycles: 1321993809 heartbeat IPC: 1.07608 cumulative IPC: 1.07119 (Simulation time: 5 hr 34 min 47 sec) 
Heartbeat CPU 2 instructions: 1500000000 cycles: 1323200859 heartbeat IPC: 0.408332 cumulative IPC: 0.976256 (Simulation time: 5 hr 35 min 1 sec) 
Heartbeat CPU 3 instructions: 1450000001 cycles: 1325605077 heartbeat IPC: 1.00767 cumulative IPC: 1.0152 (Simulation time: 5 hr 35 min 29 sec) 
Heartbeat CPU 1 instructions: 1550000003 cycles: 1331287732 heartbeat IPC: 1.07597 cumulative IPC: 1.07122 (Simulation time: 5 hr 36 min 36 sec) 
Heartbeat CPU 3 instructions: 1460000000 cycles: 1335407280 heartbeat IPC: 1.02018 cumulative IPC: 1.01524 (Simulation time: 5 hr 37 min 24 sec) 
Heartbeat CPU 1 instructions: 1560000000 cycles: 1340569663 heartbeat IPC: 1.07736 cumulative IPC: 1.07127 (Simulation time: 5 hr 38 min 24 sec) 
Heartbeat CPU 3 instructions: 1470000001 cycles: 1345211910 heartbeat IPC: 1.01993 cumulative IPC: 1.01528 (Simulation time: 5 hr 39 min 18 sec) 
Heartbeat CPU 0 instructions: 450000002 cycles: 1347094390 heartbeat IPC: 0.216778 cumulative IPC: 0.208348 (Simulation time: 5 hr 39 min 45 sec) 
Heartbeat CPU 2 instructions: 1510000003 cycles: 1347645476 heartbeat IPC: 0.409088 cumulative IPC: 0.964707 (Simulation time: 5 hr 39 min 53 sec) 
Heartbeat CPU 1 instructions: 1570000000 cycles: 1349859491 heartbeat IPC: 1.07645 cumulative IPC: 1.07131 (Simulation time: 5 hr 40 min 23 sec) 
Heartbeat CPU 3 instructions: 1480000000 cycles: 1355028509 heartbeat IPC: 1.01868 cumulative IPC: 1.01531 (Simulation time: 5 hr 41 min 24 sec) 
Heartbeat CPU 1 instructions: 1580000000 cycles: 1359142079 heartbeat IPC: 1.07729 cumulative IPC: 1.07136 (Simulation time: 5 hr 42 min 13 sec) 
Heartbeat CPU 3 instructions: 1490000001 cycles: 1364877087 heartbeat IPC: 1.01538 cumulative IPC: 1.01531 (Simulation time: 5 hr 43 min 20 sec) 
Heartbeat CPU 1 instructions: 1590000000 cycles: 1368403298 heartbeat IPC: 1.07977 cumulative IPC: 1.07142 (Simulation time: 5 hr 44 min 2 sec) 
Heartbeat CPU 2 instructions: 1520000000 cycles: 1372087890 heartbeat IPC: 0.409125 cumulative IPC: 0.953621 (Simulation time: 5 hr 44 min 45 sec) 
Heartbeat CPU 3 instructions: 1500000000 cycles: 1374673489 heartbeat IPC: 1.02078 cumulative IPC: 1.01535 (Simulation time: 5 hr 45 min 16 sec) 
Heartbeat CPU 1 instructions: 1600000000 cycles: 1377696190 heartbeat IPC: 1.07609 cumulative IPC: 1.07146 (Simulation time: 5 hr 45 min 51 sec) 
Heartbeat CPU 3 instructions: 1510000001 cycles: 1384473302 heartbeat IPC: 1.02043 cumulative IPC: 1.0154 (Simulation time: 5 hr 47 min 10 sec) 
Heartbeat CPU 1 instructions: 1610000001 cycles: 1386984214 heartbeat IPC: 1.07666 cumulative IPC: 1.0715 (Simulation time: 5 hr 47 min 40 sec) 
Heartbeat CPU 0 instructions: 460000000 cycles: 1392432700 heartbeat IPC: 0.220564 cumulative IPC: 0.208793 (Simulation time: 5 hr 48 min 42 sec) 
Heartbeat CPU 3 instructions: 1520000000 cycles: 1394257529 heartbeat IPC: 1.02205 cumulative IPC: 1.01545 (Simulation time: 5 hr 49 min 2 sec) 
Heartbeat CPU 1 instructions: 1620000000 cycles: 1396277127 heartbeat IPC: 1.07609 cumulative IPC: 1.07153 (Simulation time: 5 hr 49 min 25 sec) 
Heartbeat CPU 2 instructions: 1530000000 cycles: 1396568250 heartbeat IPC: 0.408491 cumulative IPC: 0.94294 (Simulation time: 5 hr 49 min 29 sec) 
Heartbeat CPU 3 instructions: 1530000000 cycles: 1404083681 heartbeat IPC: 1.01769 cumulative IPC: 1.01546 (Simulation time: 5 hr 50 min 57 sec) 
Heartbeat CPU 1 instructions: 1630000003 cycles: 1405564084 heartbeat IPC: 1.07678 cumulative IPC: 1.07157 (Simulation time: 5 hr 51 min 14 sec) 
Heartbeat CPU 3 instructions: 1540000000 cycles: 1413864696 heartbeat IPC: 1.02239 cumulative IPC: 1.01552 (Simulation time: 5 hr 52 min 52 sec) 
Heartbeat CPU 1 instructions: 1640000000 cycles: 1414860877 heartbeat IPC: 1.07564 cumulative IPC: 1.0716 (Simulation time: 5 hr 53 min 3 sec) 
Heartbeat CPU 2 instructions: 1540000000 cycles: 1421031911 heartbeat IPC: 0.40877 cumulative IPC: 0.932681 (Simulation time: 5 hr 54 min 16 sec) 
Heartbeat CPU 3 instructions: 1550000001 cycles: 1423685080 heartbeat IPC: 1.01829 cumulative IPC: 1.01554 (Simulation time: 5 hr 54 min 47 sec) 
Heartbeat CPU 1 instructions: 1650000003 cycles: 1424142968 heartbeat IPC: 1.07734 cumulative IPC: 1.07164 (Simulation time: 5 hr 54 min 52 sec) 
Heartbeat CPU 1 instructions: 1660000000 cycles: 1433430089 heartbeat IPC: 1.07676 cumulative IPC: 1.07168 (Simulation time: 5 hr 56 min 42 sec) 
Heartbeat CPU 3 instructions: 1560000000 cycles: 1433482128 heartbeat IPC: 1.02072 cumulative IPC: 1.01558 (Simulation time: 5 hr 56 min 42 sec) 
Heartbeat CPU 0 instructions: 470000001 cycles: 1438194547 heartbeat IPC: 0.218523 cumulative IPC: 0.209138 (Simulation time: 5 hr 57 min 38 sec) 
Heartbeat CPU 1 instructions: 1670000000 cycles: 1442721357 heartbeat IPC: 1.07628 cumulative IPC: 1.07171 (Simulation time: 5 hr 58 min 31 sec) 
Heartbeat CPU 3 instructions: 1570000002 cycles: 1443307581 heartbeat IPC: 1.01776 cumulative IPC: 1.0156 (Simulation time: 5 hr 58 min 38 sec) 
Heartbeat CPU 2 instructions: 1550000003 cycles: 1445492069 heartbeat IPC: 0.408828 cumulative IPC: 0.922812 (Simulation time: 5 hr 59 min 4 sec) 
Heartbeat CPU 1 instructions: 1680000000 cycles: 1452004583 heartbeat IPC: 1.07721 cumulative IPC: 1.07175 (Simulation time: 6 hr 0 min 22 sec) 
Heartbeat CPU 3 instructions: 1580000000 cycles: 1453103708 heartbeat IPC: 1.02081 cumulative IPC: 1.01563 (Simulation time: 6 hr 0 min 34 sec) 
Heartbeat CPU 1 instructions: 1690000002 cycles: 1461319811 heartbeat IPC: 1.07351 cumulative IPC: 1.07176 (Simulation time: 6 hr 2 min 11 sec) 
Heartbeat CPU 3 instructions: 1590000003 cycles: 1462889035 heartbeat IPC: 1.02194 cumulative IPC: 1.01568 (Simulation time: 6 hr 2 min 29 sec) 
Heartbeat CPU 2 instructions: 1560000000 cycles: 1470176800 heartbeat IPC: 0.405109 cumulative IPC: 0.913152 (Simulation time: 6 hr 3 min 55 sec) 
Heartbeat CPU 1 instructions: 1700000000 cycles: 1470600230 heartbeat IPC: 1.07754 cumulative IPC: 1.0718 (Simulation time: 6 hr 4 min 0 sec) 
Heartbeat CPU 3 instructions: 1600000000 cycles: 1472817316 heartbeat IPC: 1.00722 cumulative IPC: 1.01562 (Simulation time: 6 hr 4 min 26 sec) 
Heartbeat CPU 1 instructions: 1710000001 cycles: 1479884040 heartbeat IPC: 1.07714 cumulative IPC: 1.07184 (Simulation time: 6 hr 5 min 49 sec) 
Heartbeat CPU 3 instructions: 1610000003 cycles: 1482626676 heartbeat IPC: 1.01943 cumulative IPC: 1.01565 (Simulation time: 6 hr 6 min 21 sec) 
Heartbeat CPU 0 instructions: 480000000 cycles: 1483988187 heartbeat IPC: 0.218371 cumulative IPC: 0.209454 (Simulation time: 6 hr 6 min 37 sec) 
Heartbeat CPU 1 instructions: 1720000000 cycles: 1489167116 heartbeat IPC: 1.07723 cumulative IPC: 1.07188 (Simulation time: 6 hr 7 min 38 sec) 
Heartbeat CPU 3 instructions: 1620000000 cycles: 1492427537 heartbeat IPC: 1.02032 cumulative IPC: 1.01568 (Simulation time: 6 hr 8 min 16 sec) 
Heartbeat CPU 2 instructions: 1570000003 cycles: 1494574523 heartbeat IPC: 0.409874 cumulative IPC: 0.904039 (Simulation time: 6 hr 8 min 42 sec) 
Heartbeat CPU 1 instructions: 1730000000 cycles: 1498456116 heartbeat IPC: 1.07654 cumulative IPC: 1.07191 (Simulation time: 6 hr 9 min 27 sec) 
Heartbeat CPU 3 instructions: 1630000001 cycles: 1502208442 heartbeat IPC: 1.0224 cumulative IPC: 1.01573 (Simulation time: 6 hr 10 min 12 sec) 
Heartbeat CPU 1 instructions: 1740000000 cycles: 1507724458 heartbeat IPC: 1.07894 cumulative IPC: 1.07196 (Simulation time: 6 hr 11 min 16 sec) 
Heartbeat CPU 3 instructions: 1640000000 cycles: 1512021323 heartbeat IPC: 1.01907 cumulative IPC: 1.01575 (Simulation time: 6 hr 12 min 7 sec) 
Heartbeat CPU 1 instructions: 1750000002 cycles: 1516998325 heartbeat IPC: 1.0783 cumulative IPC: 1.072 (Simulation time: 6 hr 13 min 6 sec) 
[...]
Heartbeat CPU 0 instructions: 1170000000 cycles: 4739335513 heartbeat IPC: 0.219638 cumulative IPC: 0.21123 (Simulation time: 16 hr 20 min 30 sec) 
Heartbeat CPU 1 instructions: 5180000000 cycles: 4739978436 heartbeat IPC: 1.07334 cumulative IPC: 1.06655 (Simulation time: 16 hr 20 min 37 sec) 
Heartbeat CPU 3 instructions: 4930000003 cycles: 4747624274 heartbeat IPC: 1.0205 cumulative IPC: 1.0165 (Simulation time: 16 hr 21 min 58 sec) 
Heartbeat CPU 1 instructions: 5190000002 cycles: 4749328608 heartbeat IPC: 1.0695 cumulative IPC: 1.06655 (Simulation time: 16 hr 22 min 16 sec) 
Heartbeat CPU 3 instructions: 4940000000 cycles: 4757401818 heartbeat IPC: 1.02275 cumulative IPC: 1.01651 (Simulation time: 16 hr 23 min 42 sec) 
Heartbeat CPU 2 instructions: 3710000001 cycles: 4757410952 heartbeat IPC: 0.396303 cumulative IPC: 0.728401 (Simulation time: 16 hr 23 min 42 sec) 
Heartbeat CPU 1 instructions: 5200000000 cycles: 4758703211 heartbeat IPC: 1.06671 cumulative IPC: 1.06656 (Simulation time: 16 hr 23 min 55 sec) 
Heartbeat CPU 3 instructions: 4950000002 cycles: 4767166207 heartbeat IPC: 1.02413 cumulative IPC: 1.01653 (Simulation time: 16 hr 25 min 25 sec) 
Heartbeat CPU 1 instructions: 5210000000 cycles: 4768002000 heartbeat IPC: 1.07541 cumulative IPC: 1.06657 (Simulation time: 16 hr 25 min 34 sec) 
Heartbeat CPU 3 instructions: 4960000000 cycles: 4776943847 heartbeat IPC: 1.02274 cumulative IPC: 1.01654 (Simulation time: 16 hr 27 min 9 sec) 
Heartbeat CPU 1 instructions: 5220000000 cycles: 4777381419 heartbeat IPC: 1.06616 cumulative IPC: 1.06657 (Simulation time: 16 hr 27 min 13 sec) 
Heartbeat CPU 2 instructions: 3720000000 cycles: 4782612617 heartbeat IPC: 0.396799 cumulative IPC: 0.726598 (Simulation time: 16 hr 28 min 9 sec) 
Heartbeat CPU 0 instructions: 1180000000 cycles: 4785365677 heartbeat IPC: 0.217249 cumulative IPC: 0.21129 (Simulation time: 16 hr 28 min 38 sec) 
Heartbeat CPU 3 instructions: 4970000001 cycles: 4786768133 heartbeat IPC: 1.01789 cumulative IPC: 1.01654 (Simulation time: 16 hr 28 min 52 sec) 
Heartbeat CPU 1 instructions: 5230000001 cycles: 4786770162 heartbeat IPC: 1.06511 cumulative IPC: 1.06657 (Simulation time: 16 hr 28 min 52 sec) 
Heartbeat CPU 1 instructions: 5240000000 cycles: 4796106866 heartbeat IPC: 1.07104 cumulative IPC: 1.06658 (Simulation time: 16 hr 30 min 31 sec) 
Heartbeat CPU 3 instructions: 4980000000 cycles: 4796542572 heartbeat IPC: 1.02308 cumulative IPC: 1.01656 (Simulation time: 16 hr 30 min 36 sec) 
Heartbeat CPU 1 instructions: 5250000000 cycles: 4805458960 heartbeat IPC: 1.06928 cumulative IPC: 1.06658 (Simulation time: 16 hr 32 min 10 sec) 
Heartbeat CPU 3 instructions: 4990000003 cycles: 4806415655 heartbeat IPC: 1.01286 cumulative IPC: 1.01655 (Simulation time: 16 hr 32 min 20 sec) 
Heartbeat CPU 2 instructions: 3730000000 cycles: 4807966781 heartbeat IPC: 0.394413 cumulative IPC: 0.724791 (Simulation time: 16 hr 32 min 37 sec) 
Heartbeat CPU 1 instructions: 5260000000 cycles: 4814849428 heartbeat IPC: 1.06491 cumulative IPC: 1.06658 (Simulation time: 16 hr 33 min 50 sec) 
Heartbeat CPU 3 instructions: 5000000000 cycles: 4816208568 heartbeat IPC: 1.02115 cumulative IPC: 1.01656 (Simulation time: 16 hr 34 min 4 sec) 
Heartbeat CPU 1 instructions: 5270000000 cycles: 4824247077 heartbeat IPC: 1.0641 cumulative IPC: 1.06658 (Simulation time: 16 hr 35 min 29 sec) 
Heartbeat CPU 3 instructions: 5010000002 cycles: 4826021394 heartbeat IPC: 1.01907 cumulative IPC: 1.01656 (Simulation time: 16 hr 35 min 48 sec) 
Heartbeat CPU 0 instructions: 1190000001 cycles: 4831069926 heartbeat IPC: 0.218798 cumulative IPC: 0.211363 (Simulation time: 16 hr 36 min 41 sec) 
Heartbeat CPU 2 instructions: 3740000000 cycles: 4833073086 heartbeat IPC: 0.398306 cumulative IPC: 0.723042 (Simulation time: 16 hr 37 min 2 sec) 
Heartbeat CPU 1 instructions: 5280000000 cycles: 4833586453 heartbeat IPC: 1.07074 cumulative IPC: 1.06658 (Simulation time: 16 hr 37 min 8 sec) 
Heartbeat CPU 3 instructions: 5020000000 cycles: 4835824003 heartbeat IPC: 1.02014 cumulative IPC: 1.01657 (Simulation time: 16 hr 37 min 31 sec) 
Heartbeat CPU 1 instructions: 5290000003 cycles: 4842965408 heartbeat IPC: 1.06622 cumulative IPC: 1.06658 (Simulation time: 16 hr 38 min 47 sec) 
Heartbeat CPU 3 instructions: 5030000002 cycles: 4845584216 heartbeat IPC: 1.02457 cumulative IPC: 1.01659 (Simulation time: 16 hr 39 min 15 sec) 
Heartbeat CPU 1 instructions: 5300000000 cycles: 4852344149 heartbeat IPC: 1.06624 cumulative IPC: 1.06658 (Simulation time: 16 hr 40 min 26 sec) 
Heartbeat CPU 3 instructions: 5040000000 cycles: 4855367876 heartbeat IPC: 1.02211 cumulative IPC: 1.0166 (Simulation time: 16 hr 40 min 59 sec) 
Heartbeat CPU 2 instructions: 3750000003 cycles: 4858137677 heartbeat IPC: 0.398969 cumulative IPC: 0.721318 (Simulation time: 16 hr 41 min 28 sec) 
Heartbeat CPU 1 instructions: 5310000001 cycles: 4861694522 heartbeat IPC: 1.06948 cumulative IPC: 1.06659 (Simulation time: 16 hr 42 min 6 sec) 
Heartbeat CPU 3 instructions: 5050000001 cycles: 4865160587 heartbeat IPC: 1.02117 cumulative IPC: 1.01661 (Simulation time: 16 hr 42 min 43 sec) 
Heartbeat CPU 1 instructions: 5320000000 cycles: 4871049009 heartbeat IPC: 1.06901 cumulative IPC: 1.06659 (Simulation time: 16 hr 43 min 45 sec) 
Heartbeat CPU 3 instructions: 5060000000 cycles: 4874942479 heartbeat IPC: 1.0223 cumulative IPC: 1.01662 (Simulation time: 16 hr 44 min 26 sec) 
Heartbeat CPU 0 instructions: 1200000000 cycles: 4877472150 heartbeat IPC: 0.215507 cumulative IPC: 0.211403 (Simulation time: 16 hr 44 min 53 sec) 
Finished CPU 0 instructions: 1000000000 cycles: 4730291001 cumulative IPC: 0.211403 (Simulation time: 16 hr 44 min 53 sec) 

CPU 0 Branch Prediction Accuracy: 96.7197% MPKI: 4.86726

CPU 1 Branch Prediction Accuracy: 96.3969% MPKI: 0.299262

CPU 2 Branch Prediction Accuracy: 99.4631% MPKI: 0.0383153

CPU 3 Branch Prediction Accuracy: 99.9807% MPKI: 0.00128286

ChampSim completed all CPUs

Total Simulation Statistics (not including warmup)

CPU 0 cumulative IPC: 0.211403 instructions: 1000000000 cycles: 4730291001
L1D TOTAL     ACCESS:  442076280  HIT:  422060667  MISS:   20015613
L1D LOAD      ACCESS:  261501540  HIT:  244003106  MISS:   17498434
L1D RFO       ACCESS:  180574740  HIT:  178057561  MISS:    2517179
L1D PREFETCH  ACCESS:          0  HIT:          0  MISS:          0
L1D WRITEBACK ACCESS:          0  HIT:          0  MISS:          0
L1I TOTAL     ACCESS:  354387701  HIT:  354007560  MISS:     380141
L1I LOAD      ACCESS:  354387701  HIT:  354007560  MISS:     380141
L1I RFO       ACCESS:          0  HIT:          0  MISS:          0
L1I PREFETCH  ACCESS:          0  HIT:          0  MISS:          0
L1I WRITEBACK ACCESS:          0  HIT:          0  MISS:          0
L2C TOTAL     ACCESS:   33800507  HIT:   16491404  MISS:   17309103
L2C LOAD      ACCESS:   17877982  HIT:    5916273  MISS:   11961709
L2C RFO       ACCESS:    2517050  HIT:     467107  MISS:    2049943
L2C PREFETCH  ACCESS:    3733132  HIT:     473252  MISS:    3259880
L2C WRITEBACK ACCESS:    9672343  HIT:    9634772  MISS:      37571

L2C DA-AMPM prefetcher final stats
LLC TOTAL     ACCESS:   24703501  HIT:   11321106  MISS:   13382395
LLC LOAD      ACCESS:   11922361  HIT:    2714973  MISS:    9207388
LLC RFO       ACCESS:    2047582  HIT:     681657  MISS:    1365925
LLC PREFETCH  ACCESS:    3301556  HIT:     644100  MISS:    2657456
LLC WRITEBACK ACCESS:    7432002  HIT:    7280376  MISS:     151626

CPU 1 cumulative IPC: 1.06659 instructions: 5045281099 cycles: 4730291002
L1D TOTAL     ACCESS: 1746168947  HIT: 1540821967  MISS:  205346980
L1D LOAD      ACCESS:  904933997  HIT:  793454054  MISS:  111479943
L1D RFO       ACCESS:  841234950  HIT:  747367913  MISS:   93867037
L1D PREFETCH  ACCESS:          0  HIT:          0  MISS:          0
L1D WRITEBACK ACCESS:          0  HIT:          0  MISS:          0
L1I TOTAL     ACCESS: 1224614917  HIT: 1224614917  MISS:          0
L1I LOAD      ACCESS: 1224614917  HIT: 1224614917  MISS:          0
L1I RFO       ACCESS:          0  HIT:          0  MISS:          0
L1I PREFETCH  ACCESS:          0  HIT:          0  MISS:          0
L1I WRITEBACK ACCESS:          0  HIT:          0  MISS:          0
L2C TOTAL     ACCESS:  326052347  HIT:  248649786  MISS:   77402561
L2C LOAD      ACCESS:  111420972  HIT:  100860332  MISS:   10560640
L2C RFO       ACCESS:   83373631  HIT:   53334745  MISS:   30038886
L2C PREFETCH  ACCESS:   36771690  HIT:          0  MISS:   36771690
L2C WRITEBACK ACCESS:   94486054  HIT:   94454709  MISS:      31345

L2C DA-AMPM prefetcher final stats
LLC TOTAL     ACCESS:  107454433  HIT:   38684477  MISS:   68769956
LLC LOAD      ACCESS:   10534258  HIT:    8605730  MISS:    1928528
LLC RFO       ACCESS:   30038838  HIT:         12  MISS:   30038826
LLC PREFETCH  ACCESS:   36798053  HIT:          0  MISS:   36798053
LLC WRITEBACK ACCESS:   30083284  HIT:   30078735  MISS:       4549

CPU 2 cumulative IPC: 0.720012 instructions: 3405865893 cycles: 4730291002
L1D TOTAL     ACCESS: 1200523783  HIT: 1141481209  MISS:   59042574
L1D LOAD      ACCESS: 1008574688  HIT:  949532171  MISS:   59042517
L1D RFO       ACCESS:  191949095  HIT:  191949038  MISS:         57
L1D PREFETCH  ACCESS:          0  HIT:          0  MISS:          0
L1D WRITEBACK ACCESS:          0  HIT:          0  MISS:          0
L1I TOTAL     ACCESS:  797512439  HIT:  797512139  MISS:        300
L1I LOAD      ACCESS:  797512439  HIT:  797512139  MISS:        300
L1I RFO       ACCESS:          0  HIT:          0  MISS:          0
L1I PREFETCH  ACCESS:          0  HIT:          0  MISS:          0
L1I WRITEBACK ACCESS:          0  HIT:          0  MISS:          0
L2C TOTAL     ACCESS:  125395721  HIT:   63099726  MISS:   62295995
L2C LOAD      ACCESS:   59042818  HIT:   41808191  MISS:   17234627
L2C RFO       ACCESS:         57  HIT:         11  MISS:         46
L2C PREFETCH  ACCESS:   45066710  HIT:      12721  MISS:   45053989
L2C WRITEBACK ACCESS:   21286136  HIT:   21278803  MISS:       7333

L2C DA-AMPM prefetcher final stats
LLC TOTAL     ACCESS:   83511724  HIT:   24590152  MISS:   58921572
LLC LOAD      ACCESS:   16902895  HIT:    2706790  MISS:   14196105
LLC RFO       ACCESS:         46  HIT:         35  MISS:         11
LLC PREFETCH  ACCESS:   45385718  HIT:     662047  MISS:   44723671
LLC WRITEBACK ACCESS:   21223065  HIT:   21221280  MISS:       1785

CPU 3 cumulative IPC: 1.01662 instructions: 4808919745 cycles: 4730291002
L1D TOTAL     ACCESS: 1928907783  HIT: 1543313631  MISS:  385594152
L1D LOAD      ACCESS: 1544084498  HIT: 1190073794  MISS:  354010704
L1D RFO       ACCESS:  384823285  HIT:  353239837  MISS:   31583448
L1D PREFETCH  ACCESS:          0  HIT:          0  MISS:          0
L1D WRITEBACK ACCESS:          0  HIT:          0  MISS:          0
L1I TOTAL     ACCESS: 1149084713  HIT: 1024054872  MISS:  125029841
L1I LOAD      ACCESS: 1149084713  HIT: 1024054872  MISS:  125029841
L1I RFO       ACCESS:          0  HIT:          0  MISS:          0
L1I PREFETCH  ACCESS:          0  HIT:          0  MISS:          0
L1I WRITEBACK ACCESS:          0  HIT:          0  MISS:          0
L2C TOTAL     ACCESS:  555449642  HIT:  501551854  MISS:   53897788
L2C LOAD      ACCESS:  479013101  HIT:  439482136  MISS:   39530965
L2C RFO       ACCESS:   31554265  HIT:   26652071  MISS:    4902194
L2C PREFETCH  ACCESS:    9429515  HIT:        103  MISS:    9429412
L2C WRITEBACK ACCESS:   35452761  HIT:   35417544  MISS:      35217

L2C DA-AMPM prefetcher final stats
LLC TOTAL     ACCESS:   58470266  HIT:   45580462  MISS:   12889804
LLC LOAD      ACCESS:   39529243  HIT:   38916079  MISS:     613164
LLC RFO       ACCESS:    4544313  HIT:    1713672  MISS:    2830641
LLC PREFETCH  ACCESS:    9429613  HIT:        524  MISS:    9429089
LLC WRITEBACK ACCESS:    4967097  HIT:    4950187  MISS:      16910

Region of Interest Statistics

CPU 0 cumulative IPC: 0.211403 instructions: 1000000000 cycles: 4730291001
L1D TOTAL     ACCESS:  442076280  HIT:  422060667  MISS:   20015613
L1D LOAD      ACCESS:  261501540  HIT:  244003106  MISS:   17498434
L1D RFO       ACCESS:  180574740  HIT:  178057561  MISS:    2517179
L1D PREFETCH  ACCESS:          0  HIT:          0  MISS:          0
L1D WRITEBACK ACCESS:          0  HIT:          0  MISS:          0
L1D PREFETCH  REQUESTED:          0  ISSUED:          0  USEFUL:          0  USELESS:          0
L1I TOTAL     ACCESS:  354387701  HIT:  354007560  MISS:     380141
L1I LOAD      ACCESS:  354387701  HIT:  354007560  MISS:     380141
L1I RFO       ACCESS:          0  HIT:          0  MISS:          0
L1I PREFETCH  ACCESS:          0  HIT:          0  MISS:          0
L1I WRITEBACK ACCESS:          0  HIT:          0  MISS:          0
L1I PREFETCH  REQUESTED:          0  ISSUED:          0  USEFUL:          0  USELESS:          0
L2C TOTAL     ACCESS:   33800507  HIT:   16491404  MISS:   17309103
L2C LOAD      ACCESS:   17877982  HIT:    5916273  MISS:   11961709
L2C RFO       ACCESS:    2517050  HIT:     467107  MISS:    2049943
L2C PREFETCH  ACCESS:    3733132  HIT:     473252  MISS:    3259880
L2C WRITEBACK ACCESS:    9672343  HIT:    9634772  MISS:      37571
L2C PREFETCH  REQUESTED:    5071334  ISSUED:    5071334  USEFUL:     982433  USELESS:    2938357
LLC TOTAL     ACCESS:   24703501  HIT:   11321106  MISS:   13382395
LLC LOAD      ACCESS:   11922361  HIT:    2714973  MISS:    9207388
LLC RFO       ACCESS:    2047582  HIT:     681657  MISS:    1365925
LLC PREFETCH  ACCESS:    3301556  HIT:     644100  MISS:    2657456
LLC WRITEBACK ACCESS:    7432002  HIT:    7280376  MISS:     151626
LLC PREFETCH  REQUESTED:          0  ISSUED:          0  USEFUL:   17499499  USELESS:   84892247
Major fault: 0 Minor fault: 52120

CPU 1 cumulative IPC: 1.06968 instructions: 1000000000 cycles: 934863085
L1D TOTAL     ACCESS:  346054284  HIT:  305576036  MISS:   40478248
L1D LOAD      ACCESS:  179386168  HIT:  157384873  MISS:   22001295
L1D RFO       ACCESS:  166668116  HIT:  148191163  MISS:   18476953
L1D PREFETCH  ACCESS:          0  HIT:          0  MISS:          0
L1D WRITEBACK ACCESS:          0  HIT:          0  MISS:          0
L1D PREFETCH  REQUESTED:          0  ISSUED:          0  USEFUL:          0  USELESS:          0
L1I TOTAL     ACCESS:  243320698  HIT:  243320698  MISS:          0
L1I LOAD      ACCESS:  243320698  HIT:  243320698  MISS:          0
L1I RFO       ACCESS:          0  HIT:          0  MISS:          0
L1I PREFETCH  ACCESS:          0  HIT:          0  MISS:          0
L1I WRITEBACK ACCESS:          0  HIT:          0  MISS:          0
L1I PREFETCH  REQUESTED:          0  ISSUED:          0  USEFUL:          0  USELESS:          0
L2C TOTAL     ACCESS:   64287211  HIT:   48951192  MISS:   15336019
L2C LOAD      ACCESS:   21989772  HIT:   19900088  MISS:    2089684
L2C RFO       ACCESS:   16411615  HIT:   10457764  MISS:    5953851
L2C PREFETCH  ACCESS:    7286157  HIT:          0  MISS:    7286157
L2C WRITEBACK ACCESS:   18599667  HIT:   18593340  MISS:       6327
L2C PREFETCH  REQUESTED:   38853208  ISSUED:   38853208  USEFUL:   38797654  USELESS:      29022
LLC TOTAL     ACCESS:   21292356  HIT:    7662558  MISS:   13629798
LLC LOAD      ACCESS:    2083967  HIT:    1700949  MISS:     383018
LLC RFO       ACCESS:    5953845  HIT:          2  MISS:    5953843
LLC PREFETCH  ACCESS:    7291868  HIT:          0  MISS:    7291868
LLC WRITEBACK ACCESS:    5962676  HIT:    5961607  MISS:       1069
LLC PREFETCH  REQUESTED:          0  ISSUED:          0  USEFUL:   17499499  USELESS:   84892247
Major fault: 0 Minor fault: 374239

CPU 2 cumulative IPC: 1.18022 instructions: 1000000003 cycles: 847301994
L1D TOTAL     ACCESS:  282827010  HIT:  265997280  MISS:   16829730
L1D LOAD      ACCESS:  233654872  HIT:  216825142  MISS:   16829730
L1D RFO       ACCESS:   49172138  HIT:   49172138  MISS:          0
L1D PREFETCH  ACCESS:          0  HIT:          0  MISS:          0
L1D WRITEBACK ACCESS:          0  HIT:          0  MISS:          0
L1D PREFETCH  REQUESTED:          0  ISSUED:          0  USEFUL:          0  USELESS:          0
L1I TOTAL     ACCESS:  212317603  HIT:  212317603  MISS:          0
L1I LOAD      ACCESS:  212317603  HIT:  212317603  MISS:          0
L1I RFO       ACCESS:          0  HIT:          0  MISS:          0
L1I PREFETCH  ACCESS:          0  HIT:          0  MISS:          0
L1I WRITEBACK ACCESS:          0  HIT:          0  MISS:          0
L1I PREFETCH  REQUESTED:          0  ISSUED:          0  USEFUL:          0  USELESS:          0
L2C TOTAL     ACCESS:   38290822  HIT:   20925143  MISS:   17365679
L2C LOAD      ACCESS:   16829730  HIT:   15706805  MISS:    1122925
L2C RFO       ACCESS:          0  HIT:          0  MISS:          0
L2C PREFETCH  ACCESS:   16239666  HIT:          5  MISS:   16239661
L2C WRITEBACK ACCESS:    5221426  HIT:    5218333  MISS:       3093
L2C PREFETCH  REQUESTED:   51165875  ISSUED:   51165039  USEFUL:   46088973  USELESS:    4725171
LLC TOTAL     ACCESS:   22558030  HIT:    5197386  MISS:   17360644
LLC LOAD      ACCESS:     992302  HIT:       2676  MISS:     989626
LLC RFO       ACCESS:          0  HIT:          0  MISS:          0
LLC PREFETCH  ACCESS:   16370282  HIT:          0  MISS:   16370282
LLC WRITEBACK ACCESS:    5195446  HIT:    5194710  MISS:        736
LLC PREFETCH  REQUESTED:          0  ISSUED:          0  USEFUL:   17499499  USELESS:   84892247
Major fault: 0 Minor fault: 876298

CPU 3 cumulative IPC: 1.01436 instructions: 1000000000 cycles: 985846248
L1D TOTAL     ACCESS:  401104263  HIT:  320924392  MISS:   80179871
L1D LOAD      ACCESS:  321081400  HIT:  247469012  MISS:   73612388
L1D RFO       ACCESS:   80022863  HIT:   73455380  MISS:    6567483
L1D PREFETCH  ACCESS:          0  HIT:          0  MISS:          0
L1D WRITEBACK ACCESS:          0  HIT:          0  MISS:          0
L1D PREFETCH  REQUESTED:          0  ISSUED:          0  USEFUL:          0  USELESS:          0
L1I TOTAL     ACCESS:  238957217  HIT:  212957519  MISS:   25999698
L1I LOAD      ACCESS:  238957217  HIT:  212957519  MISS:   25999698
L1I RFO       ACCESS:          0  HIT:          0  MISS:          0
L1I PREFETCH  ACCESS:          0  HIT:          0  MISS:          0
L1I WRITEBACK ACCESS:          0  HIT:          0  MISS:          0
L1I PREFETCH  REQUESTED:          0  ISSUED:          0  USEFUL:          0  USELESS:          0
L2C TOTAL     ACCESS:  115497404  HIT:  104315963  MISS:   11181441
L2C LOAD      ACCESS:   99606381  HIT:   91401521  MISS:    8204860
L2C RFO       ACCESS:    6561434  HIT:    5549338  MISS:    1012096
L2C PREFETCH  ACCESS:    1957271  HIT:         12  MISS:    1957259
L2C WRITEBACK ACCESS:    7372318  HIT:    7365092  MISS:       7226
L2C PREFETCH  REQUESTED:   10007726  ISSUED:    9933640  USEFUL:    4171917  USELESS:    5760460
LLC TOTAL     ACCESS:   12125505  HIT:    9445777  MISS:    2679728
LLC LOAD      ACCESS:    8204470  HIT:    8074537  MISS:     129933
LLC RFO       ACCESS:     938346  HIT:     349650  MISS:     588696
LLC PREFETCH  ACCESS:    1957292  HIT:         97  MISS:    1957195
LLC WRITEBACK ACCESS:    1025397  HIT:    1021493  MISS:       3904
LLC PREFETCH  REQUESTED:          0  ISSUED:          0  USEFUL:   17499499  USELESS:   84892247
Major fault: 0 Minor fault: 41931

L2C DA-AMPM prefetcher final stats

L2C DA-AMPM prefetcher final stats

L2C DA-AMPM prefetcher final stats

L2C DA-AMPM prefetcher final stats

DRAM Statistics
 CHANNEL 0
 RQ ROW_BUFFER_HIT:   38395684  ROW_BUFFER_MISS:   38477747
 DBUS_CONGESTED:  122210907
 WQ ROW_BUFFER_HIT:    3646140  ROW_BUFFER_MISS:   26205715  FULL:          0

 CHANNEL 1
 RQ ROW_BUFFER_HIT:   38423788  ROW_BUFFER_MISS:   38489243
 DBUS_CONGESTED:  122210907
 WQ ROW_BUFFER_HIT:    3647744  ROW_BUFFER_MISS:   26199941  FULL:          0

 AVG_CONGESTED_CYCLE: 13
