
*** ChampSim Multicore Out-of-Order Simulator ***

Warmup Instructions: 200000000
Simulation Instructions: 1000000000
Number of CPUs: 4
LLC sets: 8192
LLC ways: 16
Off-chip DRAM Size: 8192 MB Channels: 2 Width: 64-bit Data Rate: 1600 MT/s

CPU 0 runs /scratch/user/djimenez/champsim-traces/speccpu2017/xz/605.mcf_s/605.mcf_s-484B.champsimtrace.xz
CPU 1 runs /scratch/user/djimenez/champsim-traces/speccpu2017/xz/654.roms_s/654.roms_s-523B.champsimtrace.xz
CPU 2 runs /scratch/user/djimenez/champsim-traces/speccpu2017/xz/654.roms_s/654.roms_s-1390B.champsimtrace.xz
CPU 3 runs /scratch/user/djimenez/champsim-traces/speccpu2017/xz/602.gcc_s/602.gcc_s-2375B.champsimtrace.xz
L2C DA-AMPM prefetcher
L2C DA-AMPM prefetcher
L2C DA-AMPM prefetcher
L2C DA-AMPM prefetcher
Heartbeat CPU 1 instructions: 10000000 cycles: 4684793 heartbeat IPC: 2.13457 cumulative IPC: 2.13457 (Simulation time: 0 hr 1 min 29 sec) 
Heartbeat CPU 2 instructions: 10000001 cycles: 6744585 heartbeat IPC: 1.48267 cumulative IPC: 1.48267 (Simulation time: 0 hr 2 min 8 sec) 
Heartbeat CPU 3 instructions: 10000002 cycles: 6788858 heartbeat IPC: 1.473 cumulative IPC: 1.473 (Simulation time: 0 hr 2 min 8 sec) 
Heartbeat CPU 0 instructions: 10000000 cycles: 6853307 heartbeat IPC: 1.45915 cumulative IPC: 1.45915 (Simulation time: 0 hr 2 min 10 sec) 
Heartbeat CPU 1 instructions: 20000000 cycles: 9156690 heartbeat IPC: 2.23619 cumulative IPC: 2.1842 (Simulation time: 0 hr 2 min 56 sec) 
Heartbeat CPU 2 instructions: 20000000 cycles: 11880909 heartbeat IPC: 1.94692 cumulative IPC: 1.68337 (Simulation time: 0 hr 3 min 54 sec) 
Heartbeat CPU 3 instructions: 20000000 cycles: 13339464 heartbeat IPC: 1.52658 cumulative IPC: 1.49931 (Simulation time: 0 hr 4 min 25 sec) 
Heartbeat CPU 0 instructions: 20000000 cycles: 13616661 heartbeat IPC: 1.47856 cumulative IPC: 1.46879 (Simulation time: 0 hr 4 min 30 sec) 
Heartbeat CPU 1 instructions: 30000002 cycles: 14857557 heartbeat IPC: 1.75412 cumulative IPC: 2.01917 (Simulation time: 0 hr 4 min 57 sec) 
Heartbeat CPU 2 instructions: 30000003 cycles: 16404134 heartbeat IPC: 2.21081 cumulative IPC: 1.82881 (Simulation time: 0 hr 5 min 31 sec) 
Heartbeat CPU 1 instructions: 40000000 cycles: 19605479 heartbeat IPC: 2.10618 cumulative IPC: 2.04025 (Simulation time: 0 hr 6 min 40 sec) 
Heartbeat CPU 3 instructions: 30000001 cycles: 20197284 heartbeat IPC: 1.45819 cumulative IPC: 1.48535 (Simulation time: 0 hr 6 min 53 sec) 
Heartbeat CPU 0 instructions: 30000000 cycles: 20312426 heartbeat IPC: 1.49348 cumulative IPC: 1.47693 (Simulation time: 0 hr 6 min 56 sec) 
Heartbeat CPU 2 instructions: 40000000 cycles: 22614062 heartbeat IPC: 1.61032 cumulative IPC: 1.76881 (Simulation time: 0 hr 7 min 44 sec) 
Heartbeat CPU 1 instructions: 50000001 cycles: 24925592 heartbeat IPC: 1.87966 cumulative IPC: 2.00597 (Simulation time: 0 hr 8 min 33 sec) 
Heartbeat CPU 3 instructions: 40000000 cycles: 26366413 heartbeat IPC: 1.62097 cumulative IPC: 1.51708 (Simulation time: 0 hr 9 min 4 sec) 
Heartbeat CPU 0 instructions: 40000000 cycles: 27166894 heartbeat IPC: 1.4589 cumulative IPC: 1.47238 (Simulation time: 0 hr 9 min 21 sec) 
Heartbeat CPU 2 instructions: 50000001 cycles: 29637967 heartbeat IPC: 1.42371 cumulative IPC: 1.68703 (Simulation time: 0 hr 10 min 14 sec) 
Heartbeat CPU 1 instructions: 60000000 cycles: 30138684 heartbeat IPC: 1.91825 cumulative IPC: 1.9908 (Simulation time: 0 hr 10 min 26 sec) 
Heartbeat CPU 3 instructions: 50000001 cycles: 32239312 heartbeat IPC: 1.70274 cumulative IPC: 1.5509 (Simulation time: 0 hr 11 min 14 sec) 
Heartbeat CPU 2 instructions: 60000000 cycles: 33063440 heartbeat IPC: 2.9193 cumulative IPC: 1.81469 (Simulation time: 0 hr 11 min 32 sec) 
Heartbeat CPU 0 instructions: 50000003 cycles: 33922720 heartbeat IPC: 1.4802 cumulative IPC: 1.47394 (Simulation time: 0 hr 11 min 52 sec) 
Heartbeat CPU 1 instructions: 70000002 cycles: 35187604 heartbeat IPC: 1.98062 cumulative IPC: 1.98934 (Simulation time: 0 hr 12 min 21 sec) 
Heartbeat CPU 2 instructions: 70000002 cycles: 36459522 heartbeat IPC: 2.94457 cumulative IPC: 1.91994 (Simulation time: 0 hr 12 min 50 sec) 
Heartbeat CPU 3 instructions: 60000000 cycles: 37913871 heartbeat IPC: 1.76225 cumulative IPC: 1.58253 (Simulation time: 0 hr 13 min 21 sec) 
Heartbeat CPU 2 instructions: 80000000 cycles: 39854688 heartbeat IPC: 2.94536 cumulative IPC: 2.00729 (Simulation time: 0 hr 14 min 4 sec) 
Heartbeat CPU 1 instructions: 80000000 cycles: 40309092 heartbeat IPC: 1.95256 cumulative IPC: 1.98466 (Simulation time: 0 hr 14 min 15 sec) 
Heartbeat CPU 0 instructions: 60000000 cycles: 40699737 heartbeat IPC: 1.47557 cumulative IPC: 1.47421 (Simulation time: 0 hr 14 min 24 sec) 
Heartbeat CPU 3 instructions: 70000001 cycles: 44535502 heartbeat IPC: 1.5102 cumulative IPC: 1.57178 (Simulation time: 0 hr 15 min 45 sec) 
Heartbeat CPU 1 instructions: 90000002 cycles: 45024258 heartbeat IPC: 2.12082 cumulative IPC: 1.99892 (Simulation time: 0 hr 15 min 58 sec) 
Heartbeat CPU 2 instructions: 90000003 cycles: 45358525 heartbeat IPC: 1.81691 cumulative IPC: 1.98419 (Simulation time: 0 hr 16 min 9 sec) 
Heartbeat CPU 0 instructions: 70000002 cycles: 47278511 heartbeat IPC: 1.52004 cumulative IPC: 1.48059 (Simulation time: 0 hr 16 min 53 sec) 
Heartbeat CPU 1 instructions: 100000000 cycles: 49432175 heartbeat IPC: 2.26864 cumulative IPC: 2.02297 (Simulation time: 0 hr 17 min 39 sec) 
Heartbeat CPU 2 instructions: 100000000 cycles: 50179807 heartbeat IPC: 2.07414 cumulative IPC: 1.99283 (Simulation time: 0 hr 17 min 58 sec) 
Heartbeat CPU 3 instructions: 80000000 cycles: 50319874 heartbeat IPC: 1.7288 cumulative IPC: 1.58983 (Simulation time: 0 hr 18 min 2 sec) 
Heartbeat CPU 0 instructions: 80000000 cycles: 54054649 heartbeat IPC: 1.47577 cumulative IPC: 1.47998 (Simulation time: 0 hr 19 min 27 sec) 
Heartbeat CPU 2 instructions: 110000001 cycles: 54207361 heartbeat IPC: 2.4829 cumulative IPC: 2.02924 (Simulation time: 0 hr 19 min 31 sec) 
Heartbeat CPU 1 instructions: 110000002 cycles: 55107019 heartbeat IPC: 1.76216 cumulative IPC: 1.99612 (Simulation time: 0 hr 19 min 50 sec) 
Heartbeat CPU 3 instructions: 90000003 cycles: 55912740 heartbeat IPC: 1.78799 cumulative IPC: 1.60965 (Simulation time: 0 hr 20 min 7 sec) 
Heartbeat CPU 2 instructions: 120000000 cycles: 57529191 heartbeat IPC: 3.01039 cumulative IPC: 2.0859 (Simulation time: 0 hr 20 min 44 sec) 
Heartbeat CPU 1 instructions: 120000000 cycles: 59881713 heartbeat IPC: 2.09437 cumulative IPC: 2.00395 (Simulation time: 0 hr 21 min 36 sec) 
Heartbeat CPU 0 instructions: 90000000 cycles: 60718651 heartbeat IPC: 1.5006 cumulative IPC: 1.48225 (Simulation time: 0 hr 21 min 55 sec) 
Heartbeat CPU 2 instructions: 130000003 cycles: 61182461 heartbeat IPC: 2.73727 cumulative IPC: 2.12479 (Simulation time: 0 hr 22 min 6 sec) 
Heartbeat CPU 3 instructions: 100000000 cycles: 62326653 heartbeat IPC: 1.55911 cumulative IPC: 1.60445 (Simulation time: 0 hr 22 min 33 sec) 
Heartbeat CPU 1 instructions: 130000001 cycles: 65185257 heartbeat IPC: 1.88553 cumulative IPC: 1.99432 (Simulation time: 0 hr 23 min 35 sec) 
Heartbeat CPU 2 instructions: 140000000 cycles: 67035913 heartbeat IPC: 1.70839 cumulative IPC: 2.08843 (Simulation time: 0 hr 24 min 15 sec) 
Heartbeat CPU 0 instructions: 100000000 cycles: 67470594 heartbeat IPC: 1.48106 cumulative IPC: 1.48213 (Simulation time: 0 hr 24 min 25 sec) 
Heartbeat CPU 3 instructions: 110000003 cycles: 68818620 heartbeat IPC: 1.54037 cumulative IPC: 1.5984 (Simulation time: 0 hr 24 min 55 sec) 
Heartbeat CPU 1 instructions: 140000000 cycles: 70381750 heartbeat IPC: 1.92437 cumulative IPC: 1.98915 (Simulation time: 0 hr 25 min 29 sec) 
Heartbeat CPU 2 instructions: 150000000 cycles: 72330653 heartbeat IPC: 1.88867 cumulative IPC: 2.07381 (Simulation time: 0 hr 26 min 10 sec) 
Heartbeat CPU 0 instructions: 110000001 cycles: 74163354 heartbeat IPC: 1.49415 cumulative IPC: 1.48321 (Simulation time: 0 hr 26 min 45 sec) 
Heartbeat CPU 1 instructions: 150000003 cycles: 75469050 heartbeat IPC: 1.96568 cumulative IPC: 1.98757 (Simulation time: 0 hr 27 min 11 sec) 
Heartbeat CPU 3 instructions: 120000000 cycles: 75568920 heartbeat IPC: 1.48142 cumulative IPC: 1.58795 (Simulation time: 0 hr 27 min 13 sec) 
Heartbeat CPU 1 instructions: 160000000 cycles: 80575974 heartbeat IPC: 1.95813 cumulative IPC: 1.9857 (Simulation time: 0 hr 28 min 52 sec) 
Heartbeat CPU 2 instructions: 160000000 cycles: 80621628 heartbeat IPC: 1.20613 cumulative IPC: 1.98458 (Simulation time: 0 hr 28 min 53 sec) 
Heartbeat CPU 0 instructions: 120000000 cycles: 81002862 heartbeat IPC: 1.46209 cumulative IPC: 1.48143 (Simulation time: 0 hr 29 min 0 sec) 
Heartbeat CPU 3 instructions: 130000002 cycles: 81695272 heartbeat IPC: 1.63229 cumulative IPC: 1.59128 (Simulation time: 0 hr 29 min 14 sec) 
Heartbeat CPU 1 instructions: 170000002 cycles: 85290314 heartbeat IPC: 2.12119 cumulative IPC: 1.99319 (Simulation time: 0 hr 30 min 21 sec) 
Heartbeat CPU 0 instructions: 130000000 cycles: 87845234 heartbeat IPC: 1.46148 cumulative IPC: 1.47988 (Simulation time: 0 hr 31 min 6 sec) 
Heartbeat CPU 3 instructions: 140000000 cycles: 88242272 heartbeat IPC: 1.52742 cumulative IPC: 1.58654 (Simulation time: 0 hr 31 min 13 sec) 
Heartbeat CPU 2 instructions: 170000003 cycles: 89219996 heartbeat IPC: 1.16301 cumulative IPC: 1.9054 (Simulation time: 0 hr 31 min 32 sec) 
Heartbeat CPU 1 instructions: 180000000 cycles: 89609106 heartbeat IPC: 2.31546 cumulative IPC: 2.00872 (Simulation time: 0 hr 31 min 40 sec) 
Heartbeat CPU 0 instructions: 140000000 cycles: 94531265 heartbeat IPC: 1.49566 cumulative IPC: 1.48099 (Simulation time: 0 hr 33 min 19 sec) 
Heartbeat CPU 3 instructions: 150000000 cycles: 94781358 heartbeat IPC: 1.52927 cumulative IPC: 1.58259 (Simulation time: 0 hr 33 min 24 sec) 
Heartbeat CPU 1 instructions: 190000001 cycles: 95294788 heartbeat IPC: 1.7588 cumulative IPC: 1.99381 (Simulation time: 0 hr 33 min 34 sec) 
Heartbeat CPU 2 instructions: 180000000 cycles: 97861034 heartbeat IPC: 1.15727 cumulative IPC: 1.83934 (Simulation time: 0 hr 34 min 28 sec) 
Heartbeat CPU 1 instructions: 200000000 cycles: 100103640 heartbeat IPC: 2.0795 cumulative IPC: 1.99793 (Simulation time: 0 hr 35 min 18 sec) 
Heartbeat CPU 3 instructions: 160000000 cycles: 100521875 heartbeat IPC: 1.742 cumulative IPC: 1.59169 (Simulation time: 0 hr 35 min 27 sec) 
Heartbeat CPU 0 instructions: 150000000 cycles: 101377067 heartbeat IPC: 1.46075 cumulative IPC: 1.47962 (Simulation time: 0 hr 35 min 44 sec) 
Heartbeat CPU 2 instructions: 190000001 cycles: 102920345 heartbeat IPC: 1.97655 cumulative IPC: 1.84609 (Simulation time: 0 hr 36 min 19 sec) 
Heartbeat CPU 1 instructions: 210000000 cycles: 105393533 heartbeat IPC: 1.8904 cumulative IPC: 0.0948825 (Simulation time: 0 hr 37 min 14 sec) 
Heartbeat CPU 2 instructions: 200000000 cycles: 106691371 heartbeat IPC: 2.6518 cumulative IPC: 1.87457 (Simulation time: 0 hr 37 min 42 sec) 
Heartbeat CPU 3 instructions: 170000000 cycles: 107411016 heartbeat IPC: 1.45156 cumulative IPC: 1.58271 (Simulation time: 0 hr 37 min 56 sec) 
Heartbeat CPU 0 instructions: 160000000 cycles: 108229564 heartbeat IPC: 1.45932 cumulative IPC: 1.47834 (Simulation time: 0 hr 38 min 13 sec) 
Heartbeat CPU 1 instructions: 220000000 cycles: 110572569 heartbeat IPC: 1.93086 cumulative IPC: 0.180877 (Simulation time: 0 hr 39 min 2 sec) 
Heartbeat CPU 2 instructions: 210000000 cycles: 113272785 heartbeat IPC: 1.51943 cumulative IPC: 0.0882825 (Simulation time: 0 hr 40 min 1 sec) 
Heartbeat CPU 3 instructions: 180000000 cycles: 113636571 heartbeat IPC: 1.60628 cumulative IPC: 1.584 (Simulation time: 0 hr 40 min 9 sec) 
Heartbeat CPU 0 instructions: 170000000 cycles: 114924520 heartbeat IPC: 1.49366 cumulative IPC: 1.47923 (Simulation time: 0 hr 40 min 36 sec) 
Heartbeat CPU 1 instructions: 230000003 cycles: 115681192 heartbeat IPC: 1.95748 cumulative IPC: 0.259333 (Simulation time: 0 hr 40 min 52 sec) 
Heartbeat CPU 2 instructions: 220000000 cycles: 119273063 heartbeat IPC: 1.66659 cumulative IPC: 0.167682 (Simulation time: 0 hr 42 min 7 sec) 
Heartbeat CPU 3 instructions: 190000001 cycles: 120562860 heartbeat IPC: 1.44377 cumulative IPC: 1.57594 (Simulation time: 0 hr 42 min 35 sec) 
Heartbeat CPU 1 instructions: 240000000 cycles: 120767020 heartbeat IPC: 1.96625 cumulative IPC: 0.331216 (Simulation time: 0 hr 42 min 40 sec) 
Heartbeat CPU 0 instructions: 180000000 cycles: 121686934 heartbeat IPC: 1.47876 cumulative IPC: 1.47921 (Simulation time: 0 hr 42 min 59 sec) 
Heartbeat CPU 2 instructions: 230000001 cycles: 123819448 heartbeat IPC: 2.19955 cumulative IPC: 0.242288 (Simulation time: 0 hr 43 min 44 sec) 
Heartbeat CPU 1 instructions: 250000000 cycles: 125511414 heartbeat IPC: 2.10775 cumulative IPC: 0.39837 (Simulation time: 0 hr 44 min 19 sec) 
Heartbeat CPU 3 instructions: 200000000 cycles: 127328493 heartbeat IPC: 1.47806 cumulative IPC: 1.57074 (Simulation time: 0 hr 44 min 54 sec) 
Heartbeat CPU 0 instructions: 190000002 cycles: 128442569 heartbeat IPC: 1.48025 cumulative IPC: 1.47926 (Simulation time: 0 hr 45 min 15 sec) 
Heartbeat CPU 1 instructions: 260000000 cycles: 129777937 heartbeat IPC: 2.34383 cumulative IPC: 0.462328 (Simulation time: 0 hr 45 min 43 sec) 
Heartbeat CPU 2 instructions: 240000000 cycles: 129787760 heartbeat IPC: 1.67552 cumulative IPC: 0.308195 (Simulation time: 0 hr 45 min 43 sec) 
Heartbeat CPU 3 instructions: 210000000 cycles: 133936894 heartbeat IPC: 1.51323 cumulative IPC: 0.074662 (Simulation time: 0 hr 47 min 12 sec) 
Heartbeat CPU 0 instructions: 200000000 cycles: 134913508 heartbeat IPC: 1.54537 cumulative IPC: 1.48243 (Simulation time: 0 hr 47 min 33 sec) 

Warmup complete CPU 0 instructions: 200000003 cycles: 134913509 (Simulation time: 0 hr 47 min 33 sec) 
Warmup complete CPU 1 instructions: 269123844 cycles: 134913508 (Simulation time: 0 hr 47 min 33 sec) 
Warmup complete CPU 2 instructions: 247192754 cycles: 134913508 (Simulation time: 0 hr 47 min 33 sec) 
Warmup complete CPU 3 instructions: 211543202 cycles: 134913508 (Simulation time: 0 hr 47 min 33 sec) 

Heartbeat CPU 1 instructions: 270000000 cycles: 136273125 heartbeat IPC: 1.5396 cumulative IPC: 0.644414 (Simulation time: 0 hr 47 min 46 sec) 
Heartbeat CPU 2 instructions: 250000003 cycles: 138837404 heartbeat IPC: 1.10502 cumulative IPC: 0.715424 (Simulation time: 0 hr 48 min 12 sec) 
Heartbeat CPU 2 instructions: 260000000 cycles: 151685150 heartbeat IPC: 0.778346 cumulative IPC: 0.763625 (Simulation time: 0 hr 50 min 7 sec) 
Heartbeat CPU 1 instructions: 280000000 cycles: 151840194 heartbeat IPC: 0.642382 cumulative IPC: 0.642545 (Simulation time: 0 hr 50 min 9 sec) 
Heartbeat CPU 2 instructions: 270000000 cycles: 160501196 heartbeat IPC: 1.1343 cumulative IPC: 0.891337 (Simulation time: 0 hr 51 min 33 sec) 
Heartbeat CPU 3 instructions: 220000000 cycles: 161617151 heartbeat IPC: 0.361268 cumulative IPC: 0.316691 (Simulation time: 0 hr 51 min 44 sec) 
Heartbeat CPU 1 instructions: 290000002 cycles: 163899494 heartbeat IPC: 0.829236 cumulative IPC: 0.720216 (Simulation time: 0 hr 52 min 7 sec) 
Heartbeat CPU 0 instructions: 210000001 cycles: 168862655 heartbeat IPC: 0.294558 cumulative IPC: 0.294558 (Simulation time: 0 hr 52 min 56 sec) 
Heartbeat CPU 2 instructions: 280000000 cycles: 169012259 heartbeat IPC: 1.17494 cumulative IPC: 0.962125 (Simulation time: 0 hr 52 min 57 sec) 
Heartbeat CPU 1 instructions: 300000000 cycles: 176197680 heartbeat IPC: 0.813128 cumulative IPC: 0.747893 (Simulation time: 0 hr 54 min 15 sec) 
Heartbeat CPU 2 instructions: 290000003 cycles: 178468208 heartbeat IPC: 1.05754 cumulative IPC: 0.982839 (Simulation time: 0 hr 54 min 38 sec) 
Heartbeat CPU 1 instructions: 310000001 cycles: 189510353 heartbeat IPC: 0.751164 cumulative IPC: 0.748691 (Simulation time: 0 hr 56 min 27 sec) 
Heartbeat CPU 3 instructions: 230000003 cycles: 192955891 heartbeat IPC: 0.319094 cumulative IPC: 0.317988 (Simulation time: 0 hr 57 min 4 sec) 
Heartbeat CPU 2 instructions: 300000000 cycles: 193333188 heartbeat IPC: 0.672722 cumulative IPC: 0.903929 (Simulation time: 0 hr 57 min 8 sec) 
Heartbeat CPU 0 instructions: 220000000 cycles: 193662223 heartbeat IPC: 0.403233 cumulative IPC: 0.340433 (Simulation time: 0 hr 57 min 10 sec) 
Heartbeat CPU 1 instructions: 320000000 cycles: 200808556 heartbeat IPC: 0.885096 cumulative IPC: 0.772079 (Simulation time: 0 hr 58 min 19 sec) 
Heartbeat CPU 2 instructions: 310000002 cycles: 205550044 heartbeat IPC: 0.818541 cumulative IPC: 0.889161 (Simulation time: 0 hr 59 min 2 sec) 
Heartbeat CPU 1 instructions: 330000002 cycles: 212089391 heartbeat IPC: 0.886459 cumulative IPC: 0.788798 (Simulation time: 0 hr 59 min 59 sec) 
Heartbeat CPU 2 instructions: 320000000 cycles: 217471692 heartbeat IPC: 0.83881 cumulative IPC: 0.88189 (Simulation time: 1 hr 0 min 52 sec) 
Heartbeat CPU 0 instructions: 230000001 cycles: 220031232 heartbeat IPC: 0.379233 cumulative IPC: 0.352453 (Simulation time: 1 hr 1 min 18 sec) 
Heartbeat CPU 1 instructions: 340000000 cycles: 221697465 heartbeat IPC: 1.04079 cumulative IPC: 0.816697 (Simulation time: 1 hr 1 min 34 sec) 
Heartbeat CPU 3 instructions: 240000000 cycles: 225521886 heartbeat IPC: 0.307069 cumulative IPC: 0.314064 (Simulation time: 1 hr 2 min 5 sec) 
Heartbeat CPU 2 instructions: 330000003 cycles: 227334450 heartbeat IPC: 1.01392 cumulative IPC: 0.895979 (Simulation time: 1 hr 2 min 22 sec) 
Heartbeat CPU 1 instructions: 350000001 cycles: 237690853 heartbeat IPC: 0.625258 cumulative IPC: 0.786906 (Simulation time: 1 hr 3 min 54 sec) 
Heartbeat CPU 2 instructions: 340000000 cycles: 241270487 heartbeat IPC: 0.717564 cumulative IPC: 0.872601 (Simulation time: 1 hr 4 min 25 sec) 
Heartbeat CPU 0 instructions: 240000000 cycles: 247463964 heartbeat IPC: 0.364528 cumulative IPC: 0.355396 (Simulation time: 1 hr 5 min 17 sec) 
Heartbeat CPU 1 instructions: 360000000 cycles: 253362366 heartbeat IPC: 0.6381 cumulative IPC: 0.767219 (Simulation time: 1 hr 6 min 14 sec) 
Heartbeat CPU 3 instructions: 250000001 cycles: 256219708 heartbeat IPC: 0.325756 cumulative IPC: 0.317023 (Simulation time: 1 hr 6 min 45 sec) 
Heartbeat CPU 2 instructions: 350000003 cycles: 257927259 heartbeat IPC: 0.600357 cumulative IPC: 0.835738 (Simulation time: 1 hr 7 min 2 sec) 
Heartbeat CPU 1 instructions: 370000000 cycles: 266163268 heartbeat IPC: 0.781195 cumulative IPC: 0.768582 (Simulation time: 1 hr 8 min 18 sec) 
Heartbeat CPU 2 instructions: 360000000 cycles: 272446465 heartbeat IPC: 0.688743 cumulative IPC: 0.82022 (Simulation time: 1 hr 9 min 15 sec) 
Heartbeat CPU 0 instructions: 250000000 cycles: 278058217 heartbeat IPC: 0.326859 cumulative IPC: 0.349297 (Simulation time: 1 hr 10 min 11 sec) 
Heartbeat CPU 1 instructions: 380000000 cycles: 278812727 heartbeat IPC: 0.790548 cumulative IPC: 0.770513 (Simulation time: 1 hr 10 min 18 sec) 
Heartbeat CPU 3 instructions: 260000000 cycles: 285362302 heartbeat IPC: 0.34314 cumulative IPC: 0.322082 (Simulation time: 1 hr 11 min 28 sec) 
Heartbeat CPU 2 instructions: 370000000 cycles: 286882707 heartbeat IPC: 0.692701 cumulative IPC: 0.808106 (Simulation time: 1 hr 11 min 41 sec) 
Heartbeat CPU 1 instructions: 390000001 cycles: 291076458 heartbeat IPC: 0.815413 cumulative IPC: 0.774039 (Simulation time: 1 hr 12 min 23 sec) 
Heartbeat CPU 0 instructions: 260000000 cycles: 299517832 heartbeat IPC: 0.465992 cumulative IPC: 0.36451 (Simulation time: 1 hr 13 min 50 sec) 
Heartbeat CPU 2 instructions: 380000000 cycles: 301203323 heartbeat IPC: 0.698294 cumulative IPC: 0.798649 (Simulation time: 1 hr 14 min 6 sec) 
Heartbeat CPU 1 instructions: 400000000 cycles: 301915117 heartbeat IPC: 0.922623 cumulative IPC: 0.783682 (Simulation time: 1 hr 14 min 13 sec) 
Heartbeat CPU 1 instructions: 410000002 cycles: 312975211 heartbeat IPC: 0.904152 cumulative IPC: 0.791165 (Simulation time: 1 hr 15 min 54 sec) 
Heartbeat CPU 2 instructions: 390000000 cycles: 316252511 heartbeat IPC: 0.664488 cumulative IPC: 0.787515 (Simulation time: 1 hr 16 min 23 sec) 
Heartbeat CPU 3 instructions: 270000000 cycles: 317636624 heartbeat IPC: 0.309844 cumulative IPC: 0.31992 (Simulation time: 1 hr 16 min 36 sec) 
Heartbeat CPU 1 instructions: 420000000 cycles: 322389240 heartbeat IPC: 1.06224 cumulative IPC: 0.804777 (Simulation time: 1 hr 17 min 21 sec) 
Heartbeat CPU 2 instructions: 400000000 cycles: 327755345 heartbeat IPC: 0.869351 cumulative IPC: 0.792397 (Simulation time: 1 hr 18 min 5 sec) 
Heartbeat CPU 0 instructions: 270000000 cycles: 329528635 heartbeat IPC: 0.333213 cumulative IPC: 0.359684 (Simulation time: 1 hr 18 min 19 sec) 
Heartbeat CPU 1 instructions: 430000001 cycles: 338077007 heartbeat IPC: 0.637439 cumulative IPC: 0.791856 (Simulation time: 1 hr 19 min 29 sec) 
Heartbeat CPU 2 instructions: 410000000 cycles: 344012375 heartbeat IPC: 0.615119 cumulative IPC: 0.778614 (Simulation time: 1 hr 20 min 22 sec) 
Heartbeat CPU 3 instructions: 280000000 cycles: 350226976 heartbeat IPC: 0.306839 cumulative IPC: 0.31794 (Simulation time: 1 hr 21 min 17 sec) 
Heartbeat CPU 1 instructions: 440000000 cycles: 353366896 heartbeat IPC: 0.654027 cumulative IPC: 0.782209 (Simulation time: 1 hr 21 min 48 sec) 
Heartbeat CPU 0 instructions: 280000000 cycles: 356394069 heartbeat IPC: 0.372226 cumulative IPC: 0.361205 (Simulation time: 1 hr 22 min 17 sec) 
Heartbeat CPU 2 instructions: 420000000 cycles: 356440236 heartbeat IPC: 0.804644 cumulative IPC: 0.780074 (Simulation time: 1 hr 22 min 17 sec) 
Heartbeat CPU 1 instructions: 450000001 cycles: 365518643 heartbeat IPC: 0.822927 cumulative IPC: 0.784354 (Simulation time: 1 hr 23 min 47 sec) 
Heartbeat CPU 2 instructions: 430000003 cycles: 369930512 heartbeat IPC: 0.741275 cumulative IPC: 0.777847 (Simulation time: 1 hr 24 min 24 sec) 
Heartbeat CPU 1 instructions: 460000000 cycles: 379223120 heartbeat IPC: 0.729688 cumulative IPC: 0.781288 (Simulation time: 1 hr 25 min 37 sec) 
Heartbeat CPU 3 instructions: 290000001 cycles: 382750214 heartbeat IPC: 0.307472 cumulative IPC: 0.316566 (Simulation time: 1 hr 26 min 11 sec) 
Heartbeat CPU 2 instructions: 440000000 cycles: 387016319 heartbeat IPC: 0.585281 cumulative IPC: 0.764796 (Simulation time: 1 hr 26 min 49 sec) 
Heartbeat CPU 0 instructions: 290000000 cycles: 387360611 heartbeat IPC: 0.322929 cumulative IPC: 0.35651 (Simulation time: 1 hr 26 min 52 sec) 
Heartbeat CPU 1 instructions: 470000003 cycles: 391951554 heartbeat IPC: 0.785643 cumulative IPC: 0.781504 (Simulation time: 1 hr 27 min 29 sec) 
Heartbeat CPU 2 instructions: 450000000 cycles: 402094490 heartbeat IPC: 0.66321 cumulative IPC: 0.759063 (Simulation time: 1 hr 29 min 8 sec) 
Heartbeat CPU 1 instructions: 480000000 cycles: 403430839 heartbeat IPC: 0.871134 cumulative IPC: 0.785335 (Simulation time: 1 hr 29 min 21 sec) 
Heartbeat CPU 3 instructions: 300000000 cycles: 413957361 heartbeat IPC: 0.320439 cumulative IPC: 0.317 (Simulation time: 1 hr 31 min 9 sec) 
Heartbeat CPU 0 instructions: 300000000 cycles: 414788944 heartbeat IPC: 0.364587 cumulative IPC: 0.357302 (Simulation time: 1 hr 31 min 17 sec) 
Heartbeat CPU 1 instructions: 490000003 cycles: 414969065 heartbeat IPC: 0.866685 cumulative IPC: 0.788687 (Simulation time: 1 hr 31 min 18 sec) 
Heartbeat CPU 2 instructions: 460000000 cycles: 416027997 heartbeat IPC: 0.717694 cumulative IPC: 0.757013 (Simulation time: 1 hr 31 min 28 sec) 
Heartbeat CPU 1 instructions: 500000000 cycles: 424459802 heartbeat IPC: 1.05366 cumulative IPC: 0.797372 (Simulation time: 1 hr 32 min 54 sec) 
Heartbeat CPU 2 instructions: 470000002 cycles: 427911636 heartbeat IPC: 0.841493 cumulative IPC: 0.760439 (Simulation time: 1 hr 33 min 27 sec) 
Heartbeat CPU 2 instructions: 480000000 cycles: 436683536 heartbeat IPC: 1.14 cumulative IPC: 0.771472 (Simulation time: 1 hr 34 min 55 sec) 
Heartbeat CPU 1 instructions: 510000002 cycles: 439723713 heartbeat IPC: 0.65514 cumulative IPC: 0.79025 (Simulation time: 1 hr 35 min 28 sec) 
Heartbeat CPU 0 instructions: 310000003 cycles: 441442349 heartbeat IPC: 0.375187 cumulative IPC: 0.358857 (Simulation time: 1 hr 35 min 47 sec) 
Heartbeat CPU 3 instructions: 310000000 cycles: 442505419 heartbeat IPC: 0.350287 cumulative IPC: 0.320089 (Simulation time: 1 hr 35 min 58 sec) 
Heartbeat CPU 2 instructions: 490000003 cycles: 445278659 heartbeat IPC: 1.16345 cumulative IPC: 0.782328 (Simulation time: 1 hr 36 min 26 sec) 
Heartbeat CPU 1 instructions: 520000000 cycles: 454565154 heartbeat IPC: 0.673789 cumulative IPC: 0.784842 (Simulation time: 1 hr 37 min 47 sec) 
Heartbeat CPU 2 instructions: 500000000 cycles: 456240562 heartbeat IPC: 0.91225 cumulative IPC: 0.78676 (Simulation time: 1 hr 38 min 0 sec) 
Heartbeat CPU 1 instructions: 530000000 cycles: 467527800 heartbeat IPC: 0.771447 cumulative IPC: 0.78432 (Simulation time: 1 hr 39 min 39 sec) 
Heartbeat CPU 2 instructions: 510000001 cycles: 470928145 heartbeat IPC: 0.680847 cumulative IPC: 0.78213 (Simulation time: 1 hr 40 min 10 sec) 
Heartbeat CPU 0 instructions: 320000000 cycles: 474629096 heartbeat IPC: 0.301325 cumulative IPC: 0.353237 (Simulation time: 1 hr 40 min 45 sec) 
Heartbeat CPU 3 instructions: 320000000 cycles: 475850926 heartbeat IPC: 0.29989 cumulative IPC: 0.318114 (Simulation time: 1 hr 40 min 56 sec) 
Heartbeat CPU 1 instructions: 540000000 cycles: 480656871 heartbeat IPC: 0.761669 cumulative IPC: 0.78346 (Simulation time: 1 hr 41 min 47 sec) 
Heartbeat CPU 2 instructions: 520000000 cycles: 483237507 heartbeat IPC: 0.81239 cumulative IPC: 0.7832 (Simulation time: 1 hr 42 min 15 sec) 
Heartbeat CPU 1 instructions: 550000003 cycles: 493171197 heartbeat IPC: 0.799084 cumulative IPC: 0.784006 (Simulation time: 1 hr 43 min 48 sec) 
Heartbeat CPU 2 instructions: 530000001 cycles: 494800596 heartbeat IPC: 0.864821 cumulative IPC: 0.785822 (Simulation time: 1 hr 44 min 4 sec) 
Heartbeat CPU 0 instructions: 330000000 cycles: 499093763 heartbeat IPC: 0.408753 cumulative IPC: 0.356966 (Simulation time: 1 hr 44 min 49 sec) 
Heartbeat CPU 1 instructions: 560000000 cycles: 504594959 heartbeat IPC: 0.875368 cumulative IPC: 0.786829 (Simulation time: 1 hr 45 min 37 sec) 
Heartbeat CPU 2 instructions: 540000000 cycles: 505113935 heartbeat IPC: 0.969618 cumulative IPC: 0.790942 (Simulation time: 1 hr 45 min 42 sec) 
Heartbeat CPU 3 instructions: 330000002 cycles: 508448250 heartbeat IPC: 0.306774 cumulative IPC: 0.317124 (Simulation time: 1 hr 46 min 9 sec) 
Heartbeat CPU 1 instructions: 570000000 cycles: 516287298 heartbeat IPC: 0.855261 cumulative IPC: 0.788927 (Simulation time: 1 hr 47 min 14 sec) 
Heartbeat CPU 2 instructions: 550000002 cycles: 519651028 heartbeat IPC: 0.687896 cumulative IPC: 0.787049 (Simulation time: 1 hr 47 min 42 sec) 
Heartbeat CPU 1 instructions: 580000000 cycles: 525586406 heartbeat IPC: 1.07537 cumulative IPC: 0.795745 (Simulation time: 1 hr 48 min 37 sec) 
Heartbeat CPU 0 instructions: 340000000 cycles: 531995360 heartbeat IPC: 0.303937 cumulative IPC: 0.352572 (Simulation time: 1 hr 49 min 28 sec) 
Heartbeat CPU 2 instructions: 560000000 cycles: 536646655 heartbeat IPC: 0.588387 cumulative IPC: 0.778644 (Simulation time: 1 hr 50 min 1 sec) 
Heartbeat CPU 3 instructions: 340000000 cycles: 541760836 heartbeat IPC: 0.300187 cumulative IPC: 0.315737 (Simulation time: 1 hr 50 min 44 sec) 
Heartbeat CPU 1 instructions: 590000003 cycles: 542103245 heartbeat IPC: 0.605443 cumulative IPC: 0.788026 (Simulation time: 1 hr 50 min 47 sec) 
Heartbeat CPU 2 instructions: 570000000 cycles: 550076863 heartbeat IPC: 0.74459 cumulative IPC: 0.777543 (Simulation time: 1 hr 51 min 59 sec) 
Heartbeat CPU 1 instructions: 600000000 cycles: 557111593 heartbeat IPC: 0.666296 cumulative IPC: 0.783699 (Simulation time: 1 hr 52 min 59 sec) 
Heartbeat CPU 0 instructions: 350000002 cycles: 562767639 heartbeat IPC: 0.324968 cumulative IPC: 0.350587 (Simulation time: 1 hr 53 min 50 sec) 
Heartbeat CPU 2 instructions: 580000000 cycles: 564769202 heartbeat IPC: 0.680627 cumulative IPC: 0.77423 (Simulation time: 1 hr 54 min 9 sec) 
Heartbeat CPU 1 instructions: 610000003 cycles: 569311885 heartbeat IPC: 0.819653 cumulative IPC: 0.784709 (Simulation time: 1 hr 54 min 53 sec) 
Heartbeat CPU 3 instructions: 350000000 cycles: 572947205 heartbeat IPC: 0.320653 cumulative IPC: 0.316087 (Simulation time: 1 hr 55 min 28 sec) 
Heartbeat CPU 2 instructions: 590000000 cycles: 579281479 heartbeat IPC: 0.689072 cumulative IPC: 0.771449 (Simulation time: 1 hr 56 min 19 sec) 
Heartbeat CPU 1 instructions: 620000000 cycles: 582406377 heartbeat IPC: 0.76368 cumulative IPC: 0.784093 (Simulation time: 1 hr 56 min 47 sec) 
Heartbeat CPU 0 instructions: 360000000 cycles: 591446788 heartbeat IPC: 0.348685 cumulative IPC: 0.350467 (Simulation time: 1 hr 58 min 15 sec) 
Heartbeat CPU 1 instructions: 630000003 cycles: 594217920 heartbeat IPC: 0.84663 cumulative IPC: 0.785702 (Simulation time: 1 hr 58 min 39 sec) 
Heartbeat CPU 2 instructions: 600000000 cycles: 594471492 heartbeat IPC: 0.658327 cumulative IPC: 0.76771 (Simulation time: 1 hr 58 min 41 sec) 
Heartbeat CPU 1 instructions: 640000000 cycles: 605400859 heartbeat IPC: 0.894219 cumulative IPC: 0.788281 (Simulation time: 2 hr 0 min 22 sec) 
Heartbeat CPU 2 instructions: 610000000 cycles: 605591551 heartbeat IPC: 0.899276 cumulative IPC: 0.770818 (Simulation time: 2 hr 0 min 24 sec) 
Heartbeat CPU 3 instructions: 360000000 cycles: 606494447 heartbeat IPC: 0.298087 cumulative IPC: 0.314807 (Simulation time: 2 hr 0 min 31 sec) 
Heartbeat CPU 1 instructions: 650000001 cycles: 617234552 heartbeat IPC: 0.845045 cumulative IPC: 0.789674 (Simulation time: 2 hr 1 min 55 sec) 
Heartbeat CPU 0 instructions: 370000000 cycles: 617579501 heartbeat IPC: 0.382662 cumulative IPC: 0.35221 (Simulation time: 2 hr 1 min 58 sec) 
Heartbeat CPU 2 instructions: 620000000 cycles: 621873633 heartbeat IPC: 0.614172 cumulative IPC: 0.765581 (Simulation time: 2 hr 2 min 38 sec) 
Heartbeat CPU 1 instructions: 660000000 cycles: 626316155 heartbeat IPC: 1.10113 cumulative IPC: 0.795429 (Simulation time: 2 hr 3 min 23 sec) 
Heartbeat CPU 2 instructions: 630000000 cycles: 633583820 heartbeat IPC: 0.853957 cumulative IPC: 0.767656 (Simulation time: 2 hr 4 min 31 sec) 
Heartbeat CPU 3 instructions: 370000000 cycles: 638019881 heartbeat IPC: 0.317204 cumulative IPC: 0.314957 (Simulation time: 2 hr 5 min 10 sec) 
Heartbeat CPU 1 instructions: 670000001 cycles: 641736550 heartbeat IPC: 0.648492 cumulative IPC: 0.790959 (Simulation time: 2 hr 5 min 43 sec) 
Heartbeat CPU 0 instructions: 380000000 cycles: 644463418 heartbeat IPC: 0.37197 cumulative IPC: 0.353253 (Simulation time: 2 hr 6 min 7 sec) 
Heartbeat CPU 2 instructions: 640000000 cycles: 647516194 heartbeat IPC: 0.717753 cumulative IPC: 0.7663 (Simulation time: 2 hr 6 min 33 sec) 
Heartbeat CPU 1 instructions: 680000000 cycles: 656840680 heartbeat IPC: 0.662071 cumulative IPC: 0.787229 (Simulation time: 2 hr 7 min 47 sec) 
Heartbeat CPU 2 instructions: 650000002 cycles: 664859318 heartbeat IPC: 0.576598 cumulative IPC: 0.760091 (Simulation time: 2 hr 8 min 48 sec) 
Heartbeat CPU 3 instructions: 380000000 cycles: 665194956 heartbeat IPC: 0.367984 cumulative IPC: 0.317674 (Simulation time: 2 hr 8 min 51 sec) 
Heartbeat CPU 1 instructions: 690000003 cycles: 669644051 heartbeat IPC: 0.781045 cumulative IPC: 0.787081 (Simulation time: 2 hr 9 min 32 sec) 
Heartbeat CPU 0 instructions: 390000002 cycles: 672338141 heartbeat IPC: 0.358748 cumulative IPC: 0.353538 (Simulation time: 2 hr 9 min 58 sec) 
Heartbeat CPU 2 instructions: 660000000 cycles: 679149849 heartbeat IPC: 0.699764 cumulative IPC: 0.758507 (Simulation time: 2 hr 10 min 59 sec) 
Heartbeat CPU 1 instructions: 700000000 cycles: 682843092 heartbeat IPC: 0.757631 cumulative IPC: 0.786371 (Simulation time: 2 hr 11 min 35 sec) 
Heartbeat CPU 3 instructions: 390000000 cycles: 690697439 heartbeat IPC: 0.392119 cumulative IPC: 0.32109 (Simulation time: 2 hr 12 min 58 sec) 
Heartbeat CPU 2 instructions: 670000002 cycles: 692783261 heartbeat IPC: 0.733492 cumulative IPC: 0.757896 (Simulation time: 2 hr 13 min 19 sec) 
Heartbeat CPU 1 instructions: 710000002 cycles: 695182915 heartbeat IPC: 0.810385 cumulative IPC: 0.7869 (Simulation time: 2 hr 13 min 41 sec) 
Heartbeat CPU 0 instructions: 400000000 cycles: 701873925 heartbeat IPC: 0.338572 cumulative IPC: 0.352758 (Simulation time: 2 hr 14 min 40 sec) 
Heartbeat CPU 2 instructions: 680000000 cycles: 704688091 heartbeat IPC: 0.839995 cumulative IPC: 0.759611 (Simulation time: 2 hr 15 min 8 sec) 
Heartbeat CPU 1 instructions: 720000000 cycles: 707055328 heartbeat IPC: 0.842289 cumulative IPC: 0.78805 (Simulation time: 2 hr 15 min 34 sec) 
Heartbeat CPU 2 instructions: 690000001 cycles: 713160078 heartbeat IPC: 1.18036 cumulative IPC: 0.765776 (Simulation time: 2 hr 16 min 38 sec) 
Heartbeat CPU 1 instructions: 730000003 cycles: 718233400 heartbeat IPC: 0.894609 cumulative IPC: 0.790092 (Simulation time: 2 hr 17 min 32 sec) 
Heartbeat CPU 2 instructions: 700000000 cycles: 721751669 heartbeat IPC: 1.16393 cumulative IPC: 0.771605 (Simulation time: 2 hr 18 min 7 sec) 
Heartbeat CPU 3 instructions: 400000000 cycles: 722384181 heartbeat IPC: 0.315589 cumulative IPC: 0.320794 (Simulation time: 2 hr 18 min 13 sec) 
Heartbeat CPU 0 instructions: 410000000 cycles: 725141571 heartbeat IPC: 0.429781 cumulative IPC: 0.355795 (Simulation time: 2 hr 18 min 43 sec) 
Heartbeat CPU 1 instructions: 740000000 cycles: 727215911 heartbeat IPC: 1.11327 cumulative IPC: 0.794993 (Simulation time: 2 hr 19 min 4 sec) 
Heartbeat CPU 2 instructions: 710000000 cycles: 732947322 heartbeat IPC: 0.893204 cumulative IPC: 0.773881 (Simulation time: 2 hr 19 min 56 sec) 
Heartbeat CPU 1 instructions: 750000000 cycles: 742565094 heartbeat IPC: 0.6515 cumulative IPC: 0.791368 (Simulation time: 2 hr 21 min 25 sec) 
Heartbeat CPU 2 instructions: 720000000 cycles: 747355420 heartbeat IPC: 0.694054 cumulative IPC: 0.772003 (Simulation time: 2 hr 22 min 8 sec) 
Heartbeat CPU 0 instructions: 420000000 cycles: 752101458 heartbeat IPC: 0.370921 cumulative IPC: 0.356455 (Simulation time: 2 hr 22 min 48 sec) 
Heartbeat CPU 3 instructions: 410000000 cycles: 754323929 heartbeat IPC: 0.31309 cumulative IPC: 0.320396 (Simulation time: 2 hr 23 min 6 sec) 
Heartbeat CPU 1 instructions: 760000000 cycles: 757911070 heartbeat IPC: 0.651637 cumulative IPC: 0.787926 (Simulation time: 2 hr 23 min 35 sec) 
Heartbeat CPU 2 instructions: 730000003 cycles: 760279147 heartbeat IPC: 0.773771 cumulative IPC: 0.77204 (Simulation time: 2 hr 23 min 56 sec) 
Heartbeat CPU 1 instructions: 770000002 cycles: 770641929 heartbeat IPC: 0.785493 cumulative IPC: 0.787878 (Simulation time: 2 hr 25 min 39 sec) 
Heartbeat CPU 2 instructions: 740000000 cycles: 771110766 heartbeat IPC: 0.923223 cumulative IPC: 0.774614 (Simulation time: 2 hr 25 min 44 sec) 
Heartbeat CPU 0 instructions: 430000001 cycles: 776870544 heartbeat IPC: 0.403729 cumulative IPC: 0.358279 (Simulation time: 2 hr 26 min 44 sec) 
Heartbeat CPU 2 instructions: 750000002 cycles: 781446132 heartbeat IPC: 0.967552 cumulative IPC: 0.777698 (Simulation time: 2 hr 27 min 22 sec) 
Heartbeat CPU 3 instructions: 420000000 cycles: 783379046 heartbeat IPC: 0.344173 cumulative IPC: 0.321462 (Simulation time: 2 hr 27 min 40 sec) 
Heartbeat CPU 1 instructions: 780000000 cycles: 783820396 heartbeat IPC: 0.758813 cumulative IPC: 0.787287 (Simulation time: 2 hr 27 min 44 sec) 
Heartbeat CPU 2 instructions: 760000000 cycles: 796423836 heartbeat IPC: 0.667659 cumulative IPC: 0.775207 (Simulation time: 2 hr 29 min 32 sec) 
Heartbeat CPU 1 instructions: 790000002 cycles: 796494406 heartbeat IPC: 0.789016 cumulative IPC: 0.78732 (Simulation time: 2 hr 29 min 32 sec) 
Heartbeat CPU 0 instructions: 440000000 cycles: 805801360 heartbeat IPC: 0.345652 cumulative IPC: 0.357735 (Simulation time: 2 hr 31 min 1 sec) 
Heartbeat CPU 1 instructions: 800000000 cycles: 808300188 heartbeat IPC: 0.847042 cumulative IPC: 0.788367 (Simulation time: 2 hr 31 min 23 sec) 
Heartbeat CPU 2 instructions: 770000001 cycles: 812751191 heartbeat IPC: 0.612469 cumulative IPC: 0.771287 (Simulation time: 2 hr 31 min 58 sec) 
Heartbeat CPU 3 instructions: 430000000 cycles: 816510972 heartbeat IPC: 0.301824 cumulative IPC: 0.320507 (Simulation time: 2 hr 32 min 31 sec) 
Heartbeat CPU 1 instructions: 810000000 cycles: 820338339 heartbeat IPC: 0.830692 cumulative IPC: 0.789111 (Simulation time: 2 hr 33 min 8 sec) 
Heartbeat CPU 2 instructions: 780000000 cycles: 826616723 heartbeat IPC: 0.721213 cumulative IPC: 0.770283 (Simulation time: 2 hr 34 min 14 sec) 
Heartbeat CPU 1 instructions: 820000000 cycles: 829334204 heartbeat IPC: 1.11162 cumulative IPC: 0.793289 (Simulation time: 2 hr 34 min 43 sec) 
Heartbeat CPU 0 instructions: 450000001 cycles: 835686828 heartbeat IPC: 0.334611 cumulative IPC: 0.356749 (Simulation time: 2 hr 35 min 42 sec) 
Heartbeat CPU 2 instructions: 790000003 cycles: 841141787 heartbeat IPC: 0.688465 cumulative IPC: 0.7686 (Simulation time: 2 hr 36 min 32 sec) 
Heartbeat CPU 1 instructions: 830000000 cycles: 843853800 heartbeat IPC: 0.688724 cumulative IPC: 0.791147 (Simulation time: 2 hr 36 min 59 sec) 
Heartbeat CPU 3 instructions: 440000000 cycles: 845018315 heartbeat IPC: 0.350787 cumulative IPC: 0.321723 (Simulation time: 2 hr 37 min 10 sec) 
Heartbeat CPU 2 instructions: 800000000 cycles: 855765536 heartbeat IPC: 0.683819 cumulative IPC: 0.76688 (Simulation time: 2 hr 38 min 48 sec) 
Heartbeat CPU 1 instructions: 840000000 cycles: 858697465 heartbeat IPC: 0.673688 cumulative IPC: 0.788738 (Simulation time: 2 hr 39 min 17 sec) 
Heartbeat CPU 0 instructions: 460000000 cycles: 865127571 heartbeat IPC: 0.339665 cumulative IPC: 0.35606 (Simulation time: 2 hr 40 min 15 sec) 
Heartbeat CPU 2 instructions: 810000000 cycles: 870994375 heartbeat IPC: 0.656649 cumulative IPC: 0.7646 (Simulation time: 2 hr 41 min 11 sec) 
Heartbeat CPU 1 instructions: 850000001 cycles: 871165474 heartbeat IPC: 0.802053 cumulative IPC: 0.788964 (Simulation time: 2 hr 41 min 12 sec) 
Heartbeat CPU 3 instructions: 450000000 cycles: 875591193 heartbeat IPC: 0.327087 cumulative IPC: 0.321944 (Simulation time: 2 hr 41 min 54 sec) 
Heartbeat CPU 2 instructions: 820000000 cycles: 883074424 heartbeat IPC: 0.827811 cumulative IPC: 0.76562 (Simulation time: 2 hr 43 min 2 sec) 
Heartbeat CPU 1 instructions: 860000000 cycles: 883664035 heartbeat IPC: 0.800092 cumulative IPC: 0.78915 (Simulation time: 2 hr 43 min 7 sec) 
Heartbeat CPU 0 instructions: 470000001 cycles: 892596811 heartbeat IPC: 0.364044 cumulative IPC: 0.356349 (Simulation time: 2 hr 44 min 24 sec) 
Heartbeat CPU 1 instructions: 870000003 cycles: 896100814 heartbeat IPC: 0.804067 cumulative IPC: 0.789393 (Simulation time: 2 hr 44 min 59 sec) 
Heartbeat CPU 2 instructions: 830000002 cycles: 898364105 heartbeat IPC: 0.654036 cumulative IPC: 0.763386 (Simulation time: 2 hr 45 min 23 sec) 
Heartbeat CPU 3 instructions: 460000000 cycles: 903384316 heartbeat IPC: 0.359801 cumulative IPC: 0.323313 (Simulation time: 2 hr 46 min 16 sec) 
Heartbeat CPU 1 instructions: 880000000 cycles: 907738460 heartbeat IPC: 0.85928 cumulative IPC: 0.790446 (Simulation time: 2 hr 47 min 2 sec) 
Heartbeat CPU 2 instructions: 840000000 cycles: 910457812 heartbeat IPC: 0.826876 cumulative IPC: 0.764376 (Simulation time: 2 hr 47 min 29 sec) 
Heartbeat CPU 0 instructions: 480000000 cycles: 917183328 heartbeat IPC: 0.406727 cumulative IPC: 0.357933 (Simulation time: 2 hr 48 min 36 sec) 
Heartbeat CPU 1 instructions: 890000002 cycles: 919348787 heartbeat IPC: 0.861302 cumulative IPC: 0.791494 (Simulation time: 2 hr 48 min 57 sec) 
Heartbeat CPU 2 instructions: 850000001 cycles: 924677611 heartbeat IPC: 0.703245 cumulative IPC: 0.763275 (Simulation time: 2 hr 49 min 41 sec) 
Heartbeat CPU 1 instructions: 900000000 cycles: 928726405 heartbeat IPC: 1.06637 cumulative IPC: 0.794742 (Simulation time: 2 hr 50 min 19 sec) 
Heartbeat CPU 3 instructions: 470000000 cycles: 934875328 heartbeat IPC: 0.317551 cumulative IPC: 0.323086 (Simulation time: 2 hr 51 min 8 sec) 
Heartbeat CPU 2 instructions: 860000000 cycles: 941850586 heartbeat IPC: 0.58231 cumulative IPC: 0.759424 (Simulation time: 2 hr 52 min 10 sec) 
Heartbeat CPU 0 instructions: 490000001 cycles: 942399965 heartbeat IPC: 0.396564 cumulative IPC: 0.359139 (Simulation time: 2 hr 52 min 19 sec) 
Heartbeat CPU 1 instructions: 910000001 cycles: 943646674 heartbeat IPC: 0.670229 cumulative IPC: 0.792445 (Simulation time: 2 hr 52 min 35 sec) 
Heartbeat CPU 2 instructions: 870000002 cycles: 955795109 heartbeat IPC: 0.717128 cumulative IPC: 0.758705 (Simulation time: 2 hr 54 min 43 sec) 
Heartbeat CPU 1 instructions: 920000000 cycles: 958724318 heartbeat IPC: 0.663234 cumulative IPC: 0.79008 (Simulation time: 2 hr 55 min 10 sec) 
Heartbeat CPU 3 instructions: 480000000 cycles: 967454660 heartbeat IPC: 0.306943 cumulative IPC: 0.322455 (Simulation time: 2 hr 56 min 33 sec) 
Heartbeat CPU 2 instructions: 880000000 cycles: 969864799 heartbeat IPC: 0.710748 cumulative IPC: 0.757897 (Simulation time: 2 hr 57 min 2 sec) 
Heartbeat CPU 0 instructions: 500000000 cycles: 970380853 heartbeat IPC: 0.357387 cumulative IPC: 0.35908 (Simulation time: 2 hr 57 min 8 sec) 
Heartbeat CPU 1 instructions: 930000000 cycles: 971928569 heartbeat IPC: 0.757332 cumulative IPC: 0.789563 (Simulation time: 2 hr 57 min 29 sec) 
Heartbeat CPU 2 instructions: 890000000 cycles: 980534251 heartbeat IPC: 0.937255 cumulative IPC: 0.76016 (Simulation time: 2 hr 59 min 1 sec) 
Heartbeat CPU 1 instructions: 940000000 cycles: 984880574 heartbeat IPC: 0.772081 cumulative IPC: 0.789297 (Simulation time: 2 hr 59 min 46 sec) 
Heartbeat CPU 2 instructions: 900000000 cycles: 989171906 heartbeat IPC: 1.15772 cumulative IPC: 0.76418 (Simulation time: 3 hr 0 min 32 sec) 
Heartbeat CPU 0 instructions: 510000001 cycles: 993954855 heartbeat IPC: 0.424196 cumulative IPC: 0.360867 (Simulation time: 3 hr 1 min 21 sec) 
Heartbeat CPU 1 instructions: 950000000 cycles: 996413317 heartbeat IPC: 0.867096 cumulative IPC: 0.790338 (Simulation time: 3 hr 1 min 46 sec) 
Heartbeat CPU 2 instructions: 910000003 cycles: 997700205 heartbeat IPC: 1.17257 cumulative IPC: 0.768217 (Simulation time: 3 hr 1 min 59 sec) 
Heartbeat CPU 3 instructions: 490000000 cycles: 998428342 heartbeat IPC: 0.322855 cumulative IPC: 0.322469 (Simulation time: 3 hr 2 min 6 sec) 
Heartbeat CPU 1 instructions: 960000000 cycles: 1008723407 heartbeat IPC: 0.812342 cumulative IPC: 0.790648 (Simulation time: 3 hr 3 min 39 sec) 
Heartbeat CPU 2 instructions: 920000000 cycles: 1010172206 heartbeat IPC: 0.801796 cumulative IPC: 0.768695 (Simulation time: 3 hr 3 min 52 sec) 
Heartbeat CPU 1 instructions: 970000002 cycles: 1020347399 heartbeat IPC: 0.86029 cumulative IPC: 0.791562 (Simulation time: 3 hr 5 min 26 sec) 
Heartbeat CPU 2 instructions: 930000000 cycles: 1023894422 heartbeat IPC: 0.728745 cumulative IPC: 0.768079 (Simulation time: 3 hr 5 min 57 sec) 
Heartbeat CPU 0 instructions: 520000000 cycles: 1025653915 heartbeat IPC: 0.315467 cumulative IPC: 0.359252 (Simulation time: 3 hr 6 min 14 sec) 
Heartbeat CPU 1 instructions: 980000000 cycles: 1029880584 heartbeat IPC: 1.04897 cumulative IPC: 0.794304 (Simulation time: 3 hr 6 min 53 sec) 
Heartbeat CPU 3 instructions: 500000000 cycles: 1030308465 heartbeat IPC: 0.313675 cumulative IPC: 0.322156 (Simulation time: 3 hr 6 min 57 sec) 
Heartbeat CPU 2 instructions: 940000000 cycles: 1036594104 heartbeat IPC: 0.787421 cumulative IPC: 0.768351 (Simulation time: 3 hr 7 min 53 sec) 
Heartbeat CPU 1 instructions: 990000000 cycles: 1044744214 heartbeat IPC: 0.672783 cumulative IPC: 0.792319 (Simulation time: 3 hr 9 min 6 sec) 
Heartbeat CPU 2 instructions: 950000003 cycles: 1046686380 heartbeat IPC: 0.990857 cumulative IPC: 0.770814 (Simulation time: 3 hr 9 min 26 sec) 
Heartbeat CPU 0 instructions: 530000001 cycles: 1049634756 heartbeat IPC: 0.417 cumulative IPC: 0.360766 (Simulation time: 3 hr 9 min 56 sec) 
Heartbeat CPU 2 instructions: 960000000 cycles: 1057225987 heartbeat IPC: 0.948802 cumulative IPC: 0.772848 (Simulation time: 3 hr 11 min 4 sec) 
Heartbeat CPU 3 instructions: 510000000 cycles: 1057688364 heartbeat IPC: 0.365231 cumulative IPC: 0.323434 (Simulation time: 3 hr 11 min 8 sec) 
Heartbeat CPU 1 instructions: 1000000000 cycles: 1059866382 heartbeat IPC: 0.661281 cumulative IPC: 0.790177 (Simulation time: 3 hr 11 min 28 sec) 
Heartbeat CPU 1 instructions: 1010000000 cycles: 1073712353 heartbeat IPC: 0.722232 cumulative IPC: 0.789175 (Simulation time: 3 hr 13 min 21 sec) 
Heartbeat CPU 2 instructions: 970000002 cycles: 1074202373 heartbeat IPC: 0.589054 cumulative IPC: 0.769526 (Simulation time: 3 hr 13 min 26 sec) 
Heartbeat CPU 0 instructions: 540000000 cycles: 1080841153 heartbeat IPC: 0.320447 cumulative IPC: 0.359436 (Simulation time: 3 hr 14 min 34 sec) 
Heartbeat CPU 3 instructions: 520000000 cycles: 1085407967 heartbeat IPC: 0.360756 cumulative IPC: 0.324522 (Simulation time: 3 hr 15 min 10 sec) 
Heartbeat CPU 1 instructions: 1020000000 cycles: 1086603816 heartbeat IPC: 0.775707 cumulative IPC: 0.788992 (Simulation time: 3 hr 15 min 21 sec) 
Heartbeat CPU 2 instructions: 980000000 cycles: 1089789489 heartbeat IPC: 0.641555 cumulative IPC: 0.767437 (Simulation time: 3 hr 15 min 50 sec) 
Heartbeat CPU 1 instructions: 1030000003 cycles: 1098666015 heartbeat IPC: 0.829036 cumulative IPC: 0.789493 (Simulation time: 3 hr 17 min 20 sec) 
Heartbeat CPU 2 instructions: 990000000 cycles: 1104052862 heartbeat IPC: 0.701096 cumulative IPC: 0.766461 (Simulation time: 3 hr 18 min 12 sec) 
Heartbeat CPU 0 instructions: 550000000 cycles: 1104525426 heartbeat IPC: 0.422221 cumulative IPC: 0.360969 (Simulation time: 3 hr 18 min 17 sec) 
Heartbeat CPU 1 instructions: 1040000000 cycles: 1110587899 heartbeat IPC: 0.838793 cumulative IPC: 0.790096 (Simulation time: 3 hr 19 min 16 sec) 
Heartbeat CPU 3 instructions: 530000001 cycles: 1117043495 heartbeat IPC: 0.3161 cumulative IPC: 0.324251 (Simulation time: 3 hr 20 min 17 sec) 
Heartbeat CPU 2 instructions: 1000000000 cycles: 1118727112 heartbeat IPC: 0.681466 cumulative IPC: 0.765193 (Simulation time: 3 hr 20 min 34 sec) 
Heartbeat CPU 1 instructions: 1050000000 cycles: 1122117788 heartbeat IPC: 0.867311 cumulative IPC: 0.790998 (Simulation time: 3 hr 21 min 7 sec) 
Heartbeat CPU 1 instructions: 1060000000 cycles: 1131111491 heartbeat IPC: 1.11189 cumulative IPC: 0.793895 (Simulation time: 3 hr 22 min 42 sec) 
Heartbeat CPU 2 instructions: 1010000003 cycles: 1132883393 heartbeat IPC: 0.7064 cumulative IPC: 0.764359 (Simulation time: 3 hr 23 min 0 sec) 
Heartbeat CPU 0 instructions: 560000000 cycles: 1135025026 heartbeat IPC: 0.327873 cumulative IPC: 0.35996 (Simulation time: 3 hr 23 min 19 sec) 
Heartbeat CPU 1 instructions: 1070000002 cycles: 1145436790 heartbeat IPC: 0.698066 cumulative IPC: 0.792536 (Simulation time: 3 hr 24 min 52 sec) 
Heartbeat CPU 3 instructions: 540000000 cycles: 1146224922 heartbeat IPC: 0.342684 cumulative IPC: 0.324783 (Simulation time: 3 hr 25 min 0 sec) 
Heartbeat CPU 2 instructions: 1020000000 cycles: 1147597960 heartbeat IPC: 0.679598 cumulative IPC: 0.763127 (Simulation time: 3 hr 25 min 14 sec) 
Heartbeat CPU 0 instructions: 570000000 cycles: 1159961915 heartbeat IPC: 0.401012 cumulative IPC: 0.360959 (Simulation time: 3 hr 27 min 0 sec) 
Heartbeat CPU 1 instructions: 1080000000 cycles: 1160119476 heartbeat IPC: 0.681074 cumulative IPC: 0.79094 (Simulation time: 3 hr 27 min 1 sec) 
Heartbeat CPU 2 instructions: 1030000003 cycles: 1160840717 heartbeat IPC: 0.75513 cumulative IPC: 0.763024 (Simulation time: 3 hr 27 min 6 sec) 
Heartbeat CPU 1 instructions: 1090000000 cycles: 1173392508 heartbeat IPC: 0.753407 cumulative IPC: 0.79046 (Simulation time: 3 hr 28 min 54 sec) 
Heartbeat CPU 2 instructions: 1040000000 cycles: 1175884739 heartbeat IPC: 0.664716 cumulative IPC: 0.761603 (Simulation time: 3 hr 29 min 18 sec) 
Heartbeat CPU 3 instructions: 550000000 cycles: 1178417197 heartbeat IPC: 0.310634 cumulative IPC: 0.324347 (Simulation time: 3 hr 29 min 41 sec) 
Heartbeat CPU 1 instructions: 1100000000 cycles: 1185982938 heartbeat IPC: 0.794254 cumulative IPC: 0.790505 (Simulation time: 3 hr 30 min 47 sec) 
Heartbeat CPU 2 instructions: 1050000001 cycles: 1188335082 heartbeat IPC: 0.803191 cumulative IPC: 0.762095 (Simulation time: 3 hr 31 min 12 sec) 
Heartbeat CPU 0 instructions: 580000000 cycles: 1190978357 heartbeat IPC: 0.32241 cumulative IPC: 0.359826 (Simulation time: 3 hr 31 min 39 sec) 
Heartbeat CPU 1 instructions: 1110000000 cycles: 1198017965 heartbeat IPC: 0.830908 cumulative IPC: 0.790963 (Simulation time: 3 hr 32 min 38 sec) 
Heartbeat CPU 3 instructions: 560000000 cycles: 1202205628 heartbeat IPC: 0.420372 cumulative IPC: 0.326487 (Simulation time: 3 hr 33 min 13 sec) 
Heartbeat CPU 2 instructions: 1060000000 cycles: 1204232580 heartbeat IPC: 0.62903 cumulative IPC: 0.760117 (Simulation time: 3 hr 33 min 30 sec) 
Heartbeat CPU 1 instructions: 1120000000 cycles: 1209714165 heartbeat IPC: 0.854979 cumulative IPC: 0.79166 (Simulation time: 3 hr 34 min 16 sec) 
Heartbeat CPU 0 instructions: 590000003 cycles: 1216862102 heartbeat IPC: 0.386343 cumulative IPC: 0.360461 (Simulation time: 3 hr 35 min 13 sec) 
Heartbeat CPU 1 instructions: 1130000003 cycles: 1222075326 heartbeat IPC: 0.808986 cumulative IPC: 0.791857 (Simulation time: 3 hr 35 min 51 sec) 
Heartbeat CPU 2 instructions: 1070000002 cycles: 1222992998 heartbeat IPC: 0.533037 cumulative IPC: 0.756201 (Simulation time: 3 hr 35 min 57 sec) 
Heartbeat CPU 1 instructions: 1140000000 cycles: 1231546698 heartbeat IPC: 1.05581 cumulative IPC: 0.794136 (Simulation time: 3 hr 37 min 12 sec) 
Heartbeat CPU 3 instructions: 570000001 cycles: 1232319771 heartbeat IPC: 0.33207 cumulative IPC: 0.32664 (Simulation time: 3 hr 37 min 19 sec) 
Heartbeat CPU 2 instructions: 1080000000 cycles: 1238720539 heartbeat IPC: 0.635827 cumulative IPC: 0.754486 (Simulation time: 3 hr 38 min 16 sec) 
Heartbeat CPU 0 instructions: 600000000 cycles: 1245977477 heartbeat IPC: 0.343461 cumulative IPC: 0.360015 (Simulation time: 3 hr 39 min 17 sec) 
Heartbeat CPU 1 instructions: 1150000000 cycles: 1247266456 heartbeat IPC: 0.636142 cumulative IPC: 0.791903 (Simulation time: 3 hr 39 min 29 sec) 
Heartbeat CPU 2 instructions: 1090000000 cycles: 1254057942 heartbeat IPC: 0.652001 cumulative IPC: 0.753082 (Simulation time: 3 hr 40 min 26 sec) 
Heartbeat CPU 1 instructions: 1160000000 cycles: 1262671913 heartbeat IPC: 0.649121 cumulative IPC: 0.789953 (Simulation time: 3 hr 41 min 46 sec) 
Heartbeat CPU 2 instructions: 1100000000 cycles: 1262885099 heartbeat IPC: 1.13287 cumulative IPC: 0.756054 (Simulation time: 3 hr 41 min 48 sec) 
Heartbeat CPU 3 instructions: 580000000 cycles: 1267105223 heartbeat IPC: 0.287476 cumulative IPC: 0.325437 (Simulation time: 3 hr 42 min 29 sec) 
Heartbeat CPU 0 instructions: 610000001 cycles: 1270248276 heartbeat IPC: 0.412018 cumulative IPC: 0.361127 (Simulation time: 3 hr 43 min 6 sec) 
Heartbeat CPU 2 instructions: 1110000001 cycles: 1271585302 heartbeat IPC: 1.1494 cumulative IPC: 0.759065 (Simulation time: 3 hr 43 min 21 sec) 
Heartbeat CPU 1 instructions: 1170000001 cycles: 1275077625 heartbeat IPC: 0.80608 cumulative IPC: 0.790128 (Simulation time: 3 hr 43 min 58 sec) 
Heartbeat CPU 2 instructions: 1120000000 cycles: 1280271010 heartbeat IPC: 1.15132 cumulative IPC: 0.762039 (Simulation time: 3 hr 44 min 51 sec) 
Heartbeat CPU 1 instructions: 1180000000 cycles: 1287995531 heartbeat IPC: 0.774119 cumulative IPC: 0.789949 (Simulation time: 3 hr 45 min 54 sec) 
Heartbeat CPU 2 instructions: 1130000002 cycles: 1295100189 heartbeat IPC: 0.674346 cumulative IPC: 0.760918 (Simulation time: 3 hr 47 min 6 sec) 
Heartbeat CPU 0 instructions: 620000000 cycles: 1297030806 heartbeat IPC: 0.373378 cumulative IPC: 0.361409 (Simulation time: 3 hr 47 min 26 sec) 
Heartbeat CPU 3 instructions: 590000000 cycles: 1299410010 heartbeat IPC: 0.309552 cumulative IPC: 0.324996 (Simulation time: 3 hr 47 min 48 sec) 
Heartbeat CPU 1 instructions: 1190000001 cycles: 1299819146 heartbeat IPC: 0.845765 cumulative IPC: 0.790516 (Simulation time: 3 hr 47 min 51 sec) 
Heartbeat CPU 2 instructions: 1140000000 cycles: 1308247845 heartbeat IPC: 0.760592 cumulative IPC: 0.760915 (Simulation time: 3 hr 49 min 7 sec) 
Heartbeat CPU 1 instructions: 1200000000 cycles: 1312034580 heartbeat IPC: 0.818636 cumulative IPC: 0.790807 (Simulation time: 3 hr 49 min 46 sec) 
Heartbeat CPU 2 instructions: 1150000002 cycles: 1320983579 heartbeat IPC: 0.785192 cumulative IPC: 0.761175 (Simulation time: 3 hr 51 min 5 sec) 
Heartbeat CPU 0 instructions: 630000003 cycles: 1323645638 heartbeat IPC: 0.37573 cumulative IPC: 0.36173 (Simulation time: 3 hr 51 min 29 sec) 
Heartbeat CPU 1 instructions: 1210000002 cycles: 1324245751 heartbeat IPC: 0.818922 cumulative IPC: 0.791096 (Simulation time: 3 hr 51 min 34 sec) 
Heartbeat CPU 2 instructions: 1160000000 cycles: 1330653611 heartbeat IPC: 1.03412 cumulative IPC: 0.763383 (Simulation time: 3 hr 52 min 37 sec) 
Heartbeat CPU 3 instructions: 600000000 cycles: 1331573537 heartbeat IPC: 0.310911 cumulative IPC: 0.324618 (Simulation time: 3 hr 52 min 46 sec) 
Heartbeat CPU 1 instructions: 1220000000 cycles: 1333362145 heartbeat IPC: 1.09692 cumulative IPC: 0.793423 (Simulation time: 3 hr 53 min 3 sec) 
Heartbeat CPU 2 instructions: 1170000002 cycles: 1343287839 heartbeat IPC: 0.791501 cumulative IPC: 0.763677 (Simulation time: 3 hr 54 min 32 sec) 
Heartbeat CPU 1 instructions: 1230000003 cycles: 1348009879 heartbeat IPC: 0.6827 cumulative IPC: 0.792086 (Simulation time: 3 hr 55 min 15 sec) 
Heartbeat CPU 0 instructions: 640000000 cycles: 1348384937 heartbeat IPC: 0.404215 cumulative IPC: 0.362596 (Simulation time: 3 hr 55 min 19 sec) 
Heartbeat CPU 2 instructions: 1180000000 cycles: 1359651786 heartbeat IPC: 0.611099 cumulative IPC: 0.761638 (Simulation time: 3 hr 57 min 7 sec) 
Heartbeat CPU 1 instructions: 1240000000 cycles: 1363400097 heartbeat IPC: 0.649763 cumulative IPC: 0.790303 (Simulation time: 3 hr 57 min 36 sec) 
Heartbeat CPU 3 instructions: 610000000 cycles: 1364907365 heartbeat IPC: 0.299996 cumulative IPC: 0.32395 (Simulation time: 3 hr 57 min 48 sec) 
Heartbeat CPU 0 instructions: 650000001 cycles: 1372659217 heartbeat IPC: 0.411959 cumulative IPC: 0.363564 (Simulation time: 3 hr 58 min 57 sec) 
Heartbeat CPU 2 instructions: 1190000002 cycles: 1375024088 heartbeat IPC: 0.650521 cumulative IPC: 0.760261 (Simulation time: 3 hr 59 min 21 sec) 
Heartbeat CPU 1 instructions: 1250000001 cycles: 1376959964 heartbeat IPC: 0.73747 cumulative IPC: 0.789726 (Simulation time: 3 hr 59 min 42 sec) 
Heartbeat CPU 1 instructions: 1260000000 cycles: 1389121131 heartbeat IPC: 0.822289 cumulative IPC: 0.790042 (Simulation time: 4 hr 1 min 47 sec) 
Heartbeat CPU 2 instructions: 1200000000 cycles: 1391024393 heartbeat IPC: 0.624988 cumulative IPC: 0.758538 (Simulation time: 4 hr 2 min 7 sec) 
Heartbeat CPU 3 instructions: 620000000 cycles: 1392390327 heartbeat IPC: 0.363862 cumulative IPC: 0.324823 (Simulation time: 4 hr 2 min 20 sec) 
Heartbeat CPU 0 instructions: 660000000 cycles: 1395045219 heartbeat IPC: 0.446708 cumulative IPC: 0.365041 (Simulation time: 4 hr 2 min 45 sec) 
Finished CPU 1 instructions: 1000000003 cycles: 1264555813 cumulative IPC: 0.790792 (Simulation time: 4 hr 3 min 29 sec) 
Heartbeat CPU 1 instructions: 1270000003 cycles: 1400598412 heartbeat IPC: 0.871287 cumulative IPC: 0.790778 (Simulation time: 4 hr 3 min 40 sec) 
Heartbeat CPU 2 instructions: 1210000002 cycles: 1406585257 heartbeat IPC: 0.642638 cumulative IPC: 0.757119 (Simulation time: 4 hr 4 min 37 sec) 
Heartbeat CPU 1 instructions: 1280000000 cycles: 1412510090 heartbeat IPC: 0.839512 cumulative IPC: 0.791233 (Simulation time: 4 hr 5 min 37 sec) 
Heartbeat CPU 3 instructions: 630000000 cycles: 1419349060 heartbeat IPC: 0.370937 cumulative IPC: 0.32579 (Simulation time: 4 hr 6 min 44 sec) 
Heartbeat CPU 2 instructions: 1220000000 cycles: 1422173716 heartbeat IPC: 0.6415 cumulative IPC: 0.755719 (Simulation time: 4 hr 7 min 10 sec) 
Heartbeat CPU 0 instructions: 670000000 cycles: 1422845408 heartbeat IPC: 0.35971 cumulative IPC: 0.364926 (Simulation time: 4 hr 7 min 16 sec) 
Heartbeat CPU 1 instructions: 1290000001 cycles: 1424116226 heartbeat IPC: 0.861613 cumulative IPC: 0.791866 (Simulation time: 4 hr 7 min 29 sec) 
Heartbeat CPU 1 instructions: 1300000000 cycles: 1432957483 heartbeat IPC: 1.13106 cumulative IPC: 0.794177 (Simulation time: 4 hr 8 min 51 sec) 
Heartbeat CPU 2 instructions: 1230000001 cycles: 1434576980 heartbeat IPC: 0.806239 cumulative IPC: 0.756201 (Simulation time: 4 hr 9 min 5 sec) 
Heartbeat CPU 1 instructions: 1310000002 cycles: 1447293423 heartbeat IPC: 0.697548 cumulative IPC: 0.793121 (Simulation time: 4 hr 10 min 41 sec) 
Heartbeat CPU 0 instructions: 680000000 cycles: 1450383586 heartbeat IPC: 0.363132 cumulative IPC: 0.364889 (Simulation time: 4 hr 11 min 9 sec) 
Heartbeat CPU 2 instructions: 1240000000 cycles: 1451058182 heartbeat IPC: 0.606752 cumulative IPC: 0.75433 (Simulation time: 4 hr 11 min 16 sec) 
Heartbeat CPU 3 instructions: 640000000 cycles: 1453544748 heartbeat IPC: 0.292435 cumulative IPC: 0.324925 (Simulation time: 4 hr 11 min 38 sec) 
Finished CPU 2 instructions: 1000000003 cycles: 1325843604 cumulative IPC: 0.754237 (Simulation time: 4 hr 12 min 42 sec) 
Heartbeat CPU 1 instructions: 1320000000 cycles: 1462508804 heartbeat IPC: 0.65723 cumulative IPC: 0.791564 (Simulation time: 4 hr 12 min 56 sec) 
Heartbeat CPU 2 instructions: 1250000003 cycles: 1464923245 heartbeat IPC: 0.721237 cumulative IPC: 0.753985 (Simulation time: 4 hr 13 min 17 sec) 
Heartbeat CPU 1 instructions: 1330000000 cycles: 1475716335 heartbeat IPC: 0.757144 cumulative IPC: 0.791225 (Simulation time: 4 hr 14 min 56 sec) 
Heartbeat CPU 0 instructions: 690000002 cycles: 1478318519 heartbeat IPC: 0.357975 cumulative IPC: 0.364745 (Simulation time: 4 hr 15 min 18 sec) 
Heartbeat CPU 2 instructions: 1260000000 cycles: 1481348504 heartbeat IPC: 0.608818 cumulative IPC: 0.752214 (Simulation time: 4 hr 15 min 40 sec) 
Heartbeat CPU 3 instructions: 650000002 cycles: 1482683529 heartbeat IPC: 0.343185 cumulative IPC: 0.32532 (Simulation time: 4 hr 15 min 50 sec) 
Heartbeat CPU 1 instructions: 1340000000 cycles: 1489314014 heartbeat IPC: 0.73542 cumulative IPC: 0.790664 (Simulation time: 4 hr 16 min 35 sec) 
Heartbeat CPU 2 instructions: 1270000000 cycles: 1499917450 heartbeat IPC: 0.538534 cumulative IPC: 0.749307 (Simulation time: 4 hr 18 min 7 sec) 
Heartbeat CPU 1 instructions: 1350000003 cycles: 1500963049 heartbeat IPC: 0.85844 cumulative IPC: 0.791242 (Simulation time: 4 hr 18 min 16 sec) 
Heartbeat CPU 0 instructions: 700000000 cycles: 1512544708 heartbeat IPC: 0.292174 cumulative IPC: 0.362942 (Simulation time: 4 hr 19 min 49 sec) 
Heartbeat CPU 1 instructions: 1360000000 cycles: 1514654751 heartbeat IPC: 0.730369 cumulative IPC: 0.790638 (Simulation time: 4 hr 20 min 7 sec) 
Heartbeat CPU 2 instructions: 1280000000 cycles: 1517558256 heartbeat IPC: 0.566868 cumulative IPC: 0.746979 (Simulation time: 4 hr 20 min 34 sec) 
Heartbeat CPU 3 instructions: 660000000 cycles: 1517904645 heartbeat IPC: 0.283921 cumulative IPC: 0.324266 (Simulation time: 4 hr 20 min 37 sec) 
Heartbeat CPU 1 instructions: 1370000002 cycles: 1527450794 heartbeat IPC: 0.781492 cumulative IPC: 0.790554 (Simulation time: 4 hr 22 min 5 sec) 
Heartbeat CPU 2 instructions: 1290000003 cycles: 1533096022 heartbeat IPC: 0.643593 cumulative IPC: 0.745831 (Simulation time: 4 hr 23 min 2 sec) 
Heartbeat CPU 1 instructions: 1380000000 cycles: 1537012326 heartbeat IPC: 1.04586 cumulative IPC: 0.792295 (Simulation time: 4 hr 23 min 35 sec) 
Heartbeat CPU 0 instructions: 710000002 cycles: 1541974425 heartbeat IPC: 0.339793 cumulative IPC: 0.362458 (Simulation time: 4 hr 24 min 23 sec) 
Heartbeat CPU 2 instructions: 1300000000 cycles: 1543463985 heartbeat IPC: 0.964509 cumulative IPC: 0.74744 (Simulation time: 4 hr 24 min 37 sec) 
Heartbeat CPU 3 instructions: 670000000 cycles: 1549549606 heartbeat IPC: 0.316006 cumulative IPC: 0.324081 (Simulation time: 4 hr 25 min 36 sec) 
Heartbeat CPU 1 instructions: 1390000001 cycles: 1550377373 heartbeat IPC: 0.74822 cumulative IPC: 0.791879 (Simulation time: 4 hr 25 min 44 sec) 
Heartbeat CPU 2 instructions: 1310000002 cycles: 1552074781 heartbeat IPC: 1.16133 cumulative IPC: 0.749955 (Simulation time: 4 hr 26 min 0 sec) 
Heartbeat CPU 2 instructions: 1320000000 cycles: 1560789598 heartbeat IPC: 1.14747 cumulative IPC: 0.752385 (Simulation time: 4 hr 27 min 23 sec) 
Heartbeat CPU 1 instructions: 1400000000 cycles: 1564844676 heartbeat IPC: 0.691214 cumulative IPC: 0.790861 (Simulation time: 4 hr 28 min 0 sec) 
Heartbeat CPU 0 instructions: 720000000 cycles: 1568007753 heartbeat IPC: 0.384123 cumulative IPC: 0.362851 (Simulation time: 4 hr 28 min 27 sec) 
Heartbeat CPU 2 instructions: 1330000002 cycles: 1574300329 heartbeat IPC: 0.740153 cumulative IPC: 0.75227 (Simulation time: 4 hr 29 min 21 sec) 
Heartbeat CPU 1 instructions: 1410000002 cycles: 1578960436 heartbeat IPC: 0.708428 cumulative IPC: 0.790055 (Simulation time: 4 hr 30 min 3 sec) 
Heartbeat CPU 3 instructions: 680000000 cycles: 1581457184 heartbeat IPC: 0.313405 cumulative IPC: 0.323846 (Simulation time: 4 hr 30 min 24 sec) 
Heartbeat CPU 2 instructions: 1340000000 cycles: 1588223745 heartbeat IPC: 0.718214 cumulative IPC: 0.751944 (Simulation time: 4 hr 31 min 24 sec) 
Heartbeat CPU 1 instructions: 1420000000 cycles: 1591787135 heartbeat IPC: 0.779624 cumulative IPC: 0.789963 (Simulation time: 4 hr 31 min 53 sec) 
Heartbeat CPU 0 instructions: 730000000 cycles: 1594984748 heartbeat IPC: 0.370686 cumulative IPC: 0.362996 (Simulation time: 4 hr 32 min 26 sec) 
Heartbeat CPU 2 instructions: 1350000003 cycles: 1601745554 heartbeat IPC: 0.739546 cumulative IPC: 0.751829 (Simulation time: 4 hr 33 min 25 sec) 
Heartbeat CPU 1 instructions: 1430000003 cycles: 1603599856 heartbeat IPC: 0.846545 cumulative IPC: 0.790418 (Simulation time: 4 hr 33 min 43 sec) 
Heartbeat CPU 2 instructions: 1360000000 cycles: 1611763966 heartbeat IPC: 0.998162 cumulative IPC: 0.7535 (Simulation time: 4 hr 34 min 57 sec) 
Heartbeat CPU 1 instructions: 1440000000 cycles: 1615992057 heartbeat IPC: 0.806959 cumulative IPC: 0.790556 (Simulation time: 4 hr 35 min 37 sec) 
Heartbeat CPU 3 instructions: 690000002 cycles: 1616558763 heartbeat IPC: 0.284888 cumulative IPC: 0.322923 (Simulation time: 4 hr 35 min 43 sec) 
Heartbeat CPU 2 instructions: 1370000003 cycles: 1622761199 heartbeat IPC: 0.90932 cumulative IPC: 0.754652 (Simulation time: 4 hr 36 min 41 sec) 
Heartbeat CPU 0 instructions: 740000000 cycles: 1626123881 heartbeat IPC: 0.321139 cumulative IPC: 0.362122 (Simulation time: 4 hr 37 min 10 sec) 
Heartbeat CPU 1 instructions: 1450000001 cycles: 1628372396 heartbeat IPC: 0.807732 cumulative IPC: 0.790699 (Simulation time: 4 hr 37 min 28 sec) 
Heartbeat CPU 1 instructions: 1460000000 cycles: 1637612919 heartbeat IPC: 1.08219 cumulative IPC: 0.792491 (Simulation time: 4 hr 38 min 55 sec) 
Heartbeat CPU 2 instructions: 1380000000 cycles: 1638741413 heartbeat IPC: 0.625774 cumulative IPC: 0.753282 (Simulation time: 4 hr 39 min 5 sec) 
Heartbeat CPU 3 instructions: 700000000 cycles: 1649049521 heartbeat IPC: 0.30778 cumulative IPC: 0.322598 (Simulation time: 4 hr 40 min 32 sec) 
Heartbeat CPU 0 instructions: 750000003 cycles: 1651428089 heartbeat IPC: 0.395191 cumulative IPC: 0.362674 (Simulation time: 4 hr 40 min 54 sec) 
Heartbeat CPU 1 instructions: 1470000001 cycles: 1651667667 heartbeat IPC: 0.711503 cumulative IPC: 0.791741 (Simulation time: 4 hr 40 min 56 sec) 
Heartbeat CPU 2 instructions: 1390000002 cycles: 1653734692 heartbeat IPC: 0.666966 cumulative IPC: 0.75243 (Simulation time: 4 hr 41 min 16 sec) 
Heartbeat CPU 1 instructions: 1480000000 cycles: 1666359373 heartbeat IPC: 0.680656 cumulative IPC: 0.790675 (Simulation time: 4 hr 43 min 21 sec) 
Heartbeat CPU 2 instructions: 1400000000 cycles: 1669760636 heartbeat IPC: 0.623988 cumulative IPC: 0.751089 (Simulation time: 4 hr 43 min 57 sec) 
Heartbeat CPU 0 instructions: 760000000 cycles: 1672976703 heartbeat IPC: 0.464067 cumulative IPC: 0.364094 (Simulation time: 4 hr 44 min 35 sec) 
Heartbeat CPU 1 instructions: 1490000001 cycles: 1680041942 heartbeat IPC: 0.730857 cumulative IPC: 0.790145 (Simulation time: 4 hr 45 min 40 sec) 
Heartbeat CPU 3 instructions: 710000000 cycles: 1682336218 heartbeat IPC: 0.30042 cumulative IPC: 0.322121 (Simulation time: 4 hr 46 min 2 sec) 
Heartbeat CPU 2 instructions: 1410000003 cycles: 1685672208 heartbeat IPC: 0.628474 cumulative IPC: 0.749831 (Simulation time: 4 hr 46 min 38 sec) 
Heartbeat CPU 1 instructions: 1500000000 cycles: 1692045302 heartbeat IPC: 0.8331 cumulative IPC: 0.790477 (Simulation time: 4 hr 47 min 39 sec) 
Heartbeat CPU 0 instructions: 770000001 cycles: 1699092467 heartbeat IPC: 0.382911 cumulative IPC: 0.364408 (Simulation time: 4 hr 48 min 48 sec) 
Heartbeat CPU 2 instructions: 1420000000 cycles: 1701076753 heartbeat IPC: 0.649159 cumulative IPC: 0.748841 (Simulation time: 4 hr 49 min 9 sec) 
Heartbeat CPU 1 instructions: 1510000002 cycles: 1703111710 heartbeat IPC: 0.903636 cumulative IPC: 0.791275 (Simulation time: 4 hr 49 min 32 sec) 
Heartbeat CPU 3 instructions: 720000000 cycles: 1714954735 heartbeat IPC: 0.306574 cumulative IPC: 0.3218 (Simulation time: 4 hr 51 min 18 sec) 
Heartbeat CPU 2 instructions: 1430000003 cycles: 1715318829 heartbeat IPC: 0.702145 cumulative IPC: 0.74842 (Simulation time: 4 hr 51 min 22 sec) 
Heartbeat CPU 1 instructions: 1520000000 cycles: 1715434647 heartbeat IPC: 0.811495 cumulative IPC: 0.791433 (Simulation time: 4 hr 51 min 23 sec) 
Heartbeat CPU 0 instructions: 780000000 cycles: 1723466774 heartbeat IPC: 0.410268 cumulative IPC: 0.365112 (Simulation time: 4 hr 52 min 39 sec) 
Heartbeat CPU 1 instructions: 1530000001 cycles: 1727334874 heartbeat IPC: 0.84032 cumulative IPC: 0.791798 (Simulation time: 4 hr 53 min 11 sec) 
Heartbeat CPU 2 instructions: 1440000000 cycles: 1729819963 heartbeat IPC: 0.689601 cumulative IPC: 0.747885 (Simulation time: 4 hr 53 min 34 sec) 
Heartbeat CPU 1 instructions: 1540000000 cycles: 1736820644 heartbeat IPC: 1.05421 cumulative IPC: 0.793352 (Simulation time: 4 hr 54 min 37 sec) 
Heartbeat CPU 2 instructions: 1450000000 cycles: 1743808683 heartbeat IPC: 0.714862 cumulative IPC: 0.747598 (Simulation time: 4 hr 55 min 49 sec) 
Heartbeat CPU 3 instructions: 730000000 cycles: 1747177319 heartbeat IPC: 0.310341 cumulative IPC: 0.321571 (Simulation time: 4 hr 56 min 21 sec) 
Heartbeat CPU 0 instructions: 790000003 cycles: 1747333527 heartbeat IPC: 0.418993 cumulative IPC: 0.36591 (Simulation time: 4 hr 56 min 23 sec) 
Heartbeat CPU 1 instructions: 1550000000 cycles: 1749832060 heartbeat IPC: 0.768556 cumulative IPC: 0.793152 (Simulation time: 4 hr 56 min 46 sec) 
Heartbeat CPU 2 instructions: 1460000000 cycles: 1758389855 heartbeat IPC: 0.685816 cumulative IPC: 0.747043 (Simulation time: 4 hr 58 min 0 sec) 
Heartbeat CPU 1 instructions: 1560000000 cycles: 1765631968 heartbeat IPC: 0.632915 cumulative IPC: 0.7916 (Simulation time: 4 hr 58 min 57 sec) 
Heartbeat CPU 3 instructions: 740000000 cycles: 1776359681 heartbeat IPC: 0.342673 cumulative IPC: 0.321946 (Simulation time: 5 hr 0 min 28 sec) 
Heartbeat CPU 0 instructions: 800000000 cycles: 1777193670 heartbeat IPC: 0.334894 cumulative IPC: 0.365346 (Simulation time: 5 hr 0 min 37 sec) 
Heartbeat CPU 2 instructions: 1470000001 cycles: 1777541168 heartbeat IPC: 0.522157 cumulative IPC: 0.744421 (Simulation time: 5 hr 0 min 40 sec) 
Heartbeat CPU 1 instructions: 1570000003 cycles: 1779996336 heartbeat IPC: 0.696167 cumulative IPC: 0.790766 (Simulation time: 5 hr 1 min 6 sec) 
Heartbeat CPU 1 instructions: 1580000000 cycles: 1793160168 heartbeat IPC: 0.759657 cumulative IPC: 0.790519 (Simulation time: 5 hr 3 min 7 sec) 
Heartbeat CPU 2 instructions: 1480000000 cycles: 1795628673 heartbeat IPC: 0.552868 cumulative IPC: 0.742335 (Simulation time: 5 hr 3 min 30 sec) 
Heartbeat CPU 3 instructions: 750000002 cycles: 1802506043 heartbeat IPC: 0.382462 cumulative IPC: 0.322895 (Simulation time: 5 hr 4 min 52 sec) 
Heartbeat CPU 1 instructions: 1590000003 cycles: 1805208941 heartbeat IPC: 0.82996 cumulative IPC: 0.790804 (Simulation time: 5 hr 5 min 25 sec) 
Heartbeat CPU 0 instructions: 810000001 cycles: 1807530307 heartbeat IPC: 0.329634 cumulative IPC: 0.364698 (Simulation time: 5 hr 5 min 48 sec) 
Heartbeat CPU 2 instructions: 1490000000 cycles: 1811809840 heartbeat IPC: 0.618002 cumulative IPC: 0.741135 (Simulation time: 5 hr 6 min 29 sec) 
Heartbeat CPU 1 instructions: 1600000000 cycles: 1819699317 heartbeat IPC: 0.690113 cumulative IPC: 0.789938 (Simulation time: 5 hr 7 min 49 sec) 
Heartbeat CPU 2 instructions: 1500000000 cycles: 1824849870 heartbeat IPC: 0.766869 cumulative IPC: 0.741334 (Simulation time: 5 hr 8 min 42 sec) 
Heartbeat CPU 3 instructions: 760000000 cycles: 1829697528 heartbeat IPC: 0.367762 cumulative IPC: 0.323615 (Simulation time: 5 hr 9 min 33 sec) 
Heartbeat CPU 1 instructions: 1610000003 cycles: 1831512951 heartbeat IPC: 0.84648 cumulative IPC: 0.790332 (Simulation time: 5 hr 9 min 51 sec) 
Heartbeat CPU 2 instructions: 1510000003 cycles: 1833436959 heartbeat IPC: 1.16454 cumulative IPC: 0.743474 (Simulation time: 5 hr 10 min 10 sec) 
Heartbeat CPU 1 instructions: 1620000000 cycles: 1840639435 heartbeat IPC: 1.09571 cumulative IPC: 0.791966 (Simulation time: 5 hr 11 min 21 sec) 
Heartbeat CPU 2 instructions: 1520000000 cycles: 1842013083 heartbeat IPC: 1.16603 cumulative IPC: 0.745596 (Simulation time: 5 hr 11 min 34 sec) 
Heartbeat CPU 0 instructions: 820000000 cycles: 1842647095 heartbeat IPC: 0.284764 cumulative IPC: 0.363054 (Simulation time: 5 hr 11 min 40 sec) 
Heartbeat CPU 2 instructions: 1530000000 cycles: 1853008606 heartbeat IPC: 0.909461 cumulative IPC: 0.746645 (Simulation time: 5 hr 13 min 14 sec) 
Heartbeat CPU 1 instructions: 1630000000 cycles: 1853862497 heartbeat IPC: 0.756254 cumulative IPC: 0.791691 (Simulation time: 5 hr 13 min 21 sec) 
Heartbeat CPU 3 instructions: 770000002 cycles: 1861210998 heartbeat IPC: 0.317325 cumulative IPC: 0.3235 (Simulation time: 5 hr 14 min 32 sec) 
Heartbeat CPU 2 instructions: 1540000000 cycles: 1867826282 heartbeat IPC: 0.67487 cumulative IPC: 0.746031 (Simulation time: 5 hr 15 min 30 sec) 
Heartbeat CPU 0 instructions: 830000000 cycles: 1868687439 heartbeat IPC: 0.384019 cumulative IPC: 0.363369 (Simulation time: 5 hr 15 min 37 sec) 
Heartbeat CPU 1 instructions: 1640000000 cycles: 1868979258 heartbeat IPC: 0.661517 cumulative IPC: 0.790556 (Simulation time: 5 hr 15 min 39 sec) 
Heartbeat CPU 2 instructions: 1550000000 cycles: 1880765995 heartbeat IPC: 0.772815 cumulative IPC: 0.74623 (Simulation time: 5 hr 17 min 20 sec) 
Heartbeat CPU 1 instructions: 1650000002 cycles: 1883604392 heartbeat IPC: 0.683755 cumulative IPC: 0.789663 (Simulation time: 5 hr 17 min 43 sec) 
Heartbeat CPU 3 instructions: 780000000 cycles: 1891802000 heartbeat IPC: 0.326893 cumulative IPC: 0.323559 (Simulation time: 5 hr 19 min 0 sec) 
Heartbeat CPU 2 instructions: 1560000000 cycles: 1892578563 heartbeat IPC: 0.846556 cumulative IPC: 0.746904 (Simulation time: 5 hr 19 min 7 sec) 
Heartbeat CPU 1 instructions: 1660000000 cycles: 1896268659 heartbeat IPC: 0.789623 cumulative IPC: 0.789663 (Simulation time: 5 hr 19 min 38 sec) 
Heartbeat CPU 0 instructions: 840000000 cycles: 1901286311 heartbeat IPC: 0.306759 cumulative IPC: 0.362324 (Simulation time: 5 hr 20 min 26 sec) 
Heartbeat CPU 2 instructions: 1570000003 cycles: 1903004536 heartbeat IPC: 0.959143 cumulative IPC: 0.748156 (Simulation time: 5 hr 20 min 42 sec) 
Heartbeat CPU 1 instructions: 1670000002 cycles: 1908072455 heartbeat IPC: 0.847185 cumulative IPC: 0.790045 (Simulation time: 5 hr 21 min 32 sec) 
Heartbeat CPU 2 instructions: 1580000000 cycles: 1918283291 heartbeat IPC: 0.654503 cumulative IPC: 0.747353 (Simulation time: 5 hr 22 min 52 sec) 
Heartbeat CPU 1 instructions: 1680000000 cycles: 1921490079 heartbeat IPC: 0.745288 cumulative IPC: 0.789709 (Simulation time: 5 hr 23 min 23 sec) 
Heartbeat CPU 3 instructions: 790000000 cycles: 1923026659 heartbeat IPC: 0.32026 cumulative IPC: 0.323501 (Simulation time: 5 hr 23 min 39 sec) 
Heartbeat CPU 0 instructions: 850000001 cycles: 1926897175 heartbeat IPC: 0.390459 cumulative IPC: 0.362727 (Simulation time: 5 hr 24 min 20 sec) 
Heartbeat CPU 1 instructions: 1690000002 cycles: 1933571091 heartbeat IPC: 0.827745 cumulative IPC: 0.789965 (Simulation time: 5 hr 25 min 20 sec) 
Heartbeat CPU 2 instructions: 1590000002 cycles: 1934631835 heartbeat IPC: 0.611675 cumulative IPC: 0.746121 (Simulation time: 5 hr 25 min 28 sec) 
Heartbeat CPU 1 instructions: 1700000000 cycles: 1943452987 heartbeat IPC: 1.01195 cumulative IPC: 0.791178 (Simulation time: 5 hr 26 min 43 sec) 
Heartbeat CPU 2 instructions: 1600000000 cycles: 1949118141 heartbeat IPC: 0.690307 cumulative IPC: 0.745675 (Simulation time: 5 hr 27 min 34 sec) 
Heartbeat CPU 3 instructions: 800000000 cycles: 1955119709 heartbeat IPC: 0.311594 cumulative IPC: 0.323291 (Simulation time: 5 hr 28 min 27 sec) 
Heartbeat CPU 0 instructions: 860000000 cycles: 1955137227 heartbeat IPC: 0.354107 cumulative IPC: 0.362593 (Simulation time: 5 hr 28 min 27 sec) 
Heartbeat CPU 1 instructions: 1710000000 cycles: 1956038268 heartbeat IPC: 0.794579 cumulative IPC: 0.791201 (Simulation time: 5 hr 28 min 36 sec) 
Heartbeat CPU 2 instructions: 1610000001 cycles: 1964825952 heartbeat IPC: 0.636626 cumulative IPC: 0.744739 (Simulation time: 5 hr 30 min 0 sec) 
Heartbeat CPU 1 instructions: 1720000000 cycles: 1966593465 heartbeat IPC: 0.947401 cumulative IPC: 0.792101 (Simulation time: 5 hr 30 min 17 sec) 
Heartbeat CPU 1 instructions: 1730000001 cycles: 1976784221 heartbeat IPC: 0.981282 cumulative IPC: 0.793148 (Simulation time: 5 hr 31 min 55 sec) 
Heartbeat CPU 0 instructions: 870000001 cycles: 1978309854 heartbeat IPC: 0.431544 cumulative IPC: 0.36346 (Simulation time: 5 hr 32 min 9 sec) 
Heartbeat CPU 2 instructions: 1620000000 cycles: 1979950624 heartbeat IPC: 0.661171 cumulative IPC: 0.744054 (Simulation time: 5 hr 32 min 25 sec) 
Heartbeat CPU 3 instructions: 810000001 cycles: 1985857020 heartbeat IPC: 0.325338 cumulative IPC: 0.323325 (Simulation time: 5 hr 33 min 21 sec) 
Heartbeat CPU 1 instructions: 1740000000 cycles: 1986693219 heartbeat IPC: 1.00918 cumulative IPC: 0.794304 (Simulation time: 5 hr 33 min 29 sec) 
Heartbeat CPU 2 instructions: 1630000001 cycles: 1995254331 heartbeat IPC: 0.653437 cumulative IPC: 0.743309 (Simulation time: 5 hr 34 min 47 sec) 
Heartbeat CPU 1 instructions: 1750000002 cycles: 1997008903 heartbeat IPC: 0.969398 cumulative IPC: 0.795274 (Simulation time: 5 hr 35 min 2 sec) 
Heartbeat CPU 0 instructions: 880000000 cycles: 2006183118 heartbeat IPC: 0.358767 cumulative IPC: 0.36339 (Simulation time: 5 hr 36 min 27 sec) 
Heartbeat CPU 2 instructions: 1640000000 cycles: 2006283068 heartbeat IPC: 0.906722 cumulative IPC: 0.744272 (Simulation time: 5 hr 36 min 28 sec) 
Heartbeat CPU 1 instructions: 1760000000 cycles: 2007051381 heartbeat IPC: 0.99577 cumulative IPC: 0.79635 (Simulation time: 5 hr 36 min 34 sec) 
Heartbeat CPU 3 instructions: 820000000 cycles: 2012606598 heartbeat IPC: 0.373838 cumulative IPC: 0.324045 (Simulation time: 5 hr 37 min 18 sec) 
Heartbeat CPU 1 instructions: 1770000002 cycles: 2017750646 heartbeat IPC: 0.934644 cumulative IPC: 0.797135 (Simulation time: 5 hr 38 min 3 sec) 
Heartbeat CPU 2 instructions: 1650000001 cycles: 2021917085 heartbeat IPC: 0.639631 cumulative IPC: 0.743405 (Simulation time: 5 hr 38 min 45 sec) 
Heartbeat CPU 1 instructions: 1780000000 cycles: 2027838937 heartbeat IPC: 0.991248 cumulative IPC: 0.79817 (Simulation time: 5 hr 39 min 50 sec) 
Heartbeat CPU 0 instructions: 890000001 cycles: 2029135314 heartbeat IPC: 0.435688 cumulative IPC: 0.364266 (Simulation time: 5 hr 40 min 3 sec) 
Heartbeat CPU 2 instructions: 1660000000 cycles: 2035069643 heartbeat IPC: 0.760308 cumulative IPC: 0.743522 (Simulation time: 5 hr 40 min 58 sec) 
Heartbeat CPU 1 instructions: 1790000003 cycles: 2038211831 heartbeat IPC: 0.964051 cumulative IPC: 0.799074 (Simulation time: 5 hr 41 min 29 sec) 
Heartbeat CPU 3 instructions: 830000000 cycles: 2041882585 heartbeat IPC: 0.341577 cumulative IPC: 0.324314 (Simulation time: 5 hr 42 min 0 sec) 
Heartbeat CPU 1 instructions: 1800000000 cycles: 2049058867 heartbeat IPC: 0.921911 cumulative IPC: 0.79977 (Simulation time: 5 hr 43 min 3 sec) 
Heartbeat CPU 2 instructions: 1670000003 cycles: 2051224103 heartbeat IPC: 0.619024 cumulative IPC: 0.742472 (Simulation time: 5 hr 43 min 22 sec) 
Heartbeat CPU 0 instructions: 900000000 cycles: 2053335455 heartbeat IPC: 0.413221 cumulative IPC: 0.364883 (Simulation time: 5 hr 43 min 42 sec) 
Heartbeat CPU 1 instructions: 1810000001 cycles: 2059426741 heartbeat IPC: 0.964518 cumulative IPC: 0.800658 (Simulation time: 5 hr 44 min 43 sec) 
Heartbeat CPU 2 instructions: 1680000000 cycles: 2067958162 heartbeat IPC: 0.597583 cumulative IPC: 0.741218 (Simulation time: 5 hr 46 min 0 sec) 
Heartbeat CPU 1 instructions: 1820000000 cycles: 2070252576 heartbeat IPC: 0.923716 cumulative IPC: 0.801346 (Simulation time: 5 hr 46 min 19 sec) 
Heartbeat CPU 3 instructions: 840000000 cycles: 2072617688 heartbeat IPC: 0.325361 cumulative IPC: 0.324331 (Simulation time: 5 hr 46 min 38 sec) 
Heartbeat CPU 0 instructions: 910000000 cycles: 2079684025 heartbeat IPC: 0.379527 cumulative IPC: 0.365082 (Simulation time: 5 hr 47 min 55 sec) 
Heartbeat CPU 1 instructions: 1830000001 cycles: 2081350969 heartbeat IPC: 0.901031 cumulative IPC: 0.801914 (Simulation time: 5 hr 48 min 12 sec) 
Heartbeat CPU 2 instructions: 1690000001 cycles: 2083641547 heartbeat IPC: 0.637618 cumulative IPC: 0.740384 (Simulation time: 5 hr 48 min 37 sec) 
Heartbeat CPU 1 instructions: 1840000000 cycles: 2092843577 heartbeat IPC: 0.870124 cumulative IPC: 0.802315 (Simulation time: 5 hr 50 min 8 sec) 
Heartbeat CPU 3 instructions: 850000000 cycles: 2097934481 heartbeat IPC: 0.394995 cumulative IPC: 0.325242 (Simulation time: 5 hr 50 min 52 sec) 
Heartbeat CPU 2 instructions: 1700000000 cycles: 2098255494 heartbeat IPC: 0.684278 cumulative IPC: 0.739966 (Simulation time: 5 hr 50 min 56 sec) 
Heartbeat CPU 1 instructions: 1850000000 cycles: 2103660583 heartbeat IPC: 0.92447 cumulative IPC: 0.802986 (Simulation time: 5 hr 51 min 55 sec) 
Heartbeat CPU 2 instructions: 1710000001 cycles: 2106661481 heartbeat IPC: 1.18963 cumulative IPC: 0.741883 (Simulation time: 5 hr 52 min 26 sec) 
Heartbeat CPU 0 instructions: 920000000 cycles: 2109276324 heartbeat IPC: 0.337926 cumulative IPC: 0.364675 (Simulation time: 5 hr 52 min 53 sec) 
Heartbeat CPU 1 instructions: 1860000000 cycles: 2113694607 heartbeat IPC: 0.996609 cumulative IPC: 0.803968 (Simulation time: 5 hr 53 min 39 sec) 
Heartbeat CPU 2 instructions: 1720000000 cycles: 2115031229 heartbeat IPC: 1.19478 cumulative IPC: 0.743798 (Simulation time: 5 hr 53 min 52 sec) 
Heartbeat CPU 2 instructions: 1730000001 cycles: 2123433523 heartbeat IPC: 1.19015 cumulative IPC: 0.745684 (Simulation time: 5 hr 55 min 25 sec) 
Heartbeat CPU 1 instructions: 1870000000 cycles: 2123734970 heartbeat IPC: 0.99598 cumulative IPC: 0.804937 (Simulation time: 5 hr 55 min 28 sec) 
Heartbeat CPU 3 instructions: 860000000 cycles: 2124684782 heartbeat IPC: 0.373828 cumulative IPC: 0.325895 (Simulation time: 5 hr 55 min 38 sec) 
Heartbeat CPU 1 instructions: 1880000000 cycles: 2134385542 heartbeat IPC: 0.938917 cumulative IPC: 0.805651 (Simulation time: 5 hr 57 min 4 sec) 
[...]
Heartbeat CPU 2 instructions: 2370000000 cycles: 2981563679 heartbeat IPC: 0.67788 cumulative IPC: 0.745721 (Simulation time: 7 hr 59 min 4 sec) 
Heartbeat CPU 1 instructions: 2570000000 cycles: 2990811014 heartbeat IPC: 0.877259 cumulative IPC: 0.805658 (Simulation time: 8 hr 0 min 23 sec) 
Heartbeat CPU 3 instructions: 1160000000 cycles: 2992123465 heartbeat IPC: 0.322368 cumulative IPC: 0.331952 (Simulation time: 8 hr 0 min 34 sec) 
Heartbeat CPU 0 instructions: 1210000001 cycles: 2994196793 heartbeat IPC: 0.170586 cumulative IPC: 0.353235 (Simulation time: 8 hr 0 min 52 sec) 
Heartbeat CPU 2 instructions: 2380000000 cycles: 2996059196 heartbeat IPC: 0.689868 cumulative IPC: 0.745438 (Simulation time: 8 hr 1 min 10 sec) 
Heartbeat CPU 1 instructions: 2580000000 cycles: 2999894578 heartbeat IPC: 1.10089 cumulative IPC: 0.806594 (Simulation time: 8 hr 1 min 43 sec) 
Heartbeat CPU 2 instructions: 2390000000 cycles: 3011469467 heartbeat IPC: 0.648918 cumulative IPC: 0.744921 (Simulation time: 8 hr 3 min 12 sec) 
Heartbeat CPU 1 instructions: 2590000003 cycles: 3015596302 heartbeat IPC: 0.636873 cumulative IPC: 0.805669 (Simulation time: 8 hr 3 min 45 sec) 
Heartbeat CPU 3 instructions: 1170000000 cycles: 3023438222 heartbeat IPC: 0.319338 cumulative IPC: 0.331815 (Simulation time: 8 hr 4 min 48 sec) 
Heartbeat CPU 2 instructions: 2400000000 cycles: 3023446563 heartbeat IPC: 0.834927 cumulative IPC: 0.745294 (Simulation time: 8 hr 4 min 48 sec) 
Heartbeat CPU 1 instructions: 2600000000 cycles: 3031337884 heartbeat IPC: 0.63526 cumulative IPC: 0.804743 (Simulation time: 8 hr 5 min 42 sec) 
Heartbeat CPU 2 instructions: 2410000000 cycles: 3040672147 heartbeat IPC: 0.580532 cumulative IPC: 0.744318 (Simulation time: 8 hr 6 min 49 sec) 
Heartbeat CPU 1 instructions: 2610000003 cycles: 3044516876 heartbeat IPC: 0.758784 cumulative IPC: 0.804534 (Simulation time: 8 hr 7 min 24 sec) 
Heartbeat CPU 0 instructions: 1220000000 cycles: 3052755362 heartbeat IPC: 0.170769 cumulative IPC: 0.349573 (Simulation time: 8 hr 8 min 33 sec) 
Heartbeat CPU 2 instructions: 2420000000 cycles: 3053004022 heartbeat IPC: 0.810907 cumulative IPC: 0.744599 (Simulation time: 8 hr 8 min 35 sec) 
Heartbeat CPU 3 instructions: 1180000000 cycles: 3054772958 heartbeat IPC: 0.319135 cumulative IPC: 0.331679 (Simulation time: 8 hr 8 min 51 sec) 
Heartbeat CPU 1 instructions: 2620000000 cycles: 3057535235 heartbeat IPC: 0.768146 cumulative IPC: 0.804372 (Simulation time: 8 hr 9 min 17 sec) 
Heartbeat CPU 2 instructions: 2430000003 cycles: 3066505348 heartbeat IPC: 0.740668 cumulative IPC: 0.744581 (Simulation time: 8 hr 10 min 37 sec) 
Heartbeat CPU 1 instructions: 2630000001 cycles: 3070147636 heartbeat IPC: 0.792871 cumulative IPC: 0.804323 (Simulation time: 8 hr 11 min 3 sec) 
Heartbeat CPU 0 instructions: 1230000002 cycles: 3080212318 heartbeat IPC: 0.364206 cumulative IPC: 0.34971 (Simulation time: 8 hr 12 min 26 sec) 
Heartbeat CPU 1 instructions: 2640000000 cycles: 3081765498 heartbeat IPC: 0.860743 cumulative IPC: 0.804545 (Simulation time: 8 hr 12 min 41 sec) 
Heartbeat CPU 2 instructions: 2440000000 cycles: 3083907876 heartbeat IPC: 0.574629 cumulative IPC: 0.743578 (Simulation time: 8 hr 12 min 57 sec) 
Heartbeat CPU 3 instructions: 1190000001 cycles: 3087053297 heartbeat IPC: 0.309786 cumulative IPC: 0.33144 (Simulation time: 8 hr 13 min 20 sec) 
Heartbeat CPU 1 instructions: 2650000001 cycles: 3093723694 heartbeat IPC: 0.836247 cumulative IPC: 0.804673 (Simulation time: 8 hr 14 min 18 sec) 
Heartbeat CPU 2 instructions: 2450000000 cycles: 3099248373 heartbeat IPC: 0.651869 cumulative IPC: 0.743103 (Simulation time: 8 hr 15 min 10 sec) 
Heartbeat CPU 1 instructions: 2660000000 cycles: 3103038199 heartbeat IPC: 1.07359 cumulative IPC: 0.805517 (Simulation time: 8 hr 15 min 45 sec) 
Heartbeat CPU 0 instructions: 1240000000 cycles: 3106880811 heartbeat IPC: 0.374974 cumulative IPC: 0.349937 (Simulation time: 8 hr 16 min 20 sec) 
Heartbeat CPU 2 instructions: 2460000000 cycles: 3113288475 heartbeat IPC: 0.712246 cumulative IPC: 0.742958 (Simulation time: 8 hr 17 min 13 sec) 
Heartbeat CPU 1 instructions: 2670000001 cycles: 3119060739 heartbeat IPC: 0.624121 cumulative IPC: 0.804543 (Simulation time: 8 hr 18 min 4 sec) 
Heartbeat CPU 3 instructions: 1200000000 cycles: 3120392105 heartbeat IPC: 0.299951 cumulative IPC: 0.331088 (Simulation time: 8 hr 18 min 16 sec) 
Heartbeat CPU 2 instructions: 2470000002 cycles: 3125791960 heartbeat IPC: 0.799777 cumulative IPC: 0.743195 (Simulation time: 8 hr 19 min 2 sec) 
Heartbeat CPU 0 instructions: 1250000002 cycles: 3134198023 heartbeat IPC: 0.36607 cumulative IPC: 0.350084 (Simulation time: 8 hr 20 min 13 sec) 
Heartbeat CPU 1 instructions: 2680000000 cycles: 3134450712 heartbeat IPC: 0.649774 cumulative IPC: 0.803749 (Simulation time: 8 hr 20 min 15 sec) 
Heartbeat CPU 2 instructions: 2480000000 cycles: 3134571360 heartbeat IPC: 1.13903 cumulative IPC: 0.744354 (Simulation time: 8 hr 20 min 16 sec) 
Heartbeat CPU 2 instructions: 2490000003 cycles: 3143476440 heartbeat IPC: 1.12295 cumulative IPC: 0.745475 (Simulation time: 8 hr 21 min 37 sec) 
Heartbeat CPU 1 instructions: 2690000003 cycles: 3146768970 heartbeat IPC: 0.811803 cumulative IPC: 0.803782 (Simulation time: 8 hr 22 min 10 sec) 
Heartbeat CPU 3 instructions: 1210000002 cycles: 3151884925 heartbeat IPC: 0.317533 cumulative IPC: 0.330947 (Simulation time: 8 hr 22 min 58 sec) 
Heartbeat CPU 2 instructions: 2500000000 cycles: 3154064680 heartbeat IPC: 0.944444 cumulative IPC: 0.746172 (Simulation time: 8 hr 23 min 14 sec) 
Finished CPU 3 instructions: 1000000000 cycles: 3021577979 cumulative IPC: 0.330953 (Simulation time: 8 hr 23 min 33 sec) 

CPU 0 Branch Prediction Accuracy: 98.7855% MPKI: 1.33826

CPU 1 Branch Prediction Accuracy: 99.8422% MPKI: 0.100654

CPU 2 Branch Prediction Accuracy: 99.7541% MPKI: 0.0883543

CPU 3 Branch Prediction Accuracy: 91.1451% MPKI: 15.755

ChampSim completed all CPUs

Total Simulation Statistics (not including warmup)

CPU 0 cumulative IPC: 0.350367 instructions: 1058660685 cycles: 3021577978
L1D TOTAL     ACCESS:  509890631  HIT:  474386602  MISS:   35504029
L1D LOAD      ACCESS:  233593290  HIT:  200611980  MISS:   32981310
L1D RFO       ACCESS:  276297341  HIT:  273774622  MISS:    2522719
L1D PREFETCH  ACCESS:          0  HIT:          0  MISS:          0
L1D WRITEBACK ACCESS:          0  HIT:          0  MISS:          0
L1I TOTAL     ACCESS:  346084398  HIT:  346084392  MISS:          6
L1I LOAD      ACCESS:  346084398  HIT:  346084392  MISS:          6
L1I RFO       ACCESS:          0  HIT:          0  MISS:          0
L1I PREFETCH  ACCESS:          0  HIT:          0  MISS:          0
L1I WRITEBACK ACCESS:          0  HIT:          0  MISS:          0
L2C TOTAL     ACCESS:   71004348  HIT:   25538765  MISS:   45465583
L2C LOAD      ACCESS:   32981116  HIT:   18723004  MISS:   14258112
L2C RFO       ACCESS:    2522613  HIT:     245522  MISS:    2277091
L2C PREFETCH  ACCESS:   28969272  HIT:      72376  MISS:   28896896
L2C WRITEBACK ACCESS:    6531347  HIT:    6497863  MISS:      33484

L2C DA-AMPM prefetcher final stats
LLC TOTAL     ACCESS:   51289697  HIT:    6040125  MISS:   45249572
LLC LOAD      ACCESS:    9071432  HIT:     181678  MISS:    8889754
LLC RFO       ACCESS:    2263535  HIT:       9813  MISS:    2253722
LLC PREFETCH  ACCESS:   34097129  HIT:       4408  MISS:   34092721
LLC WRITEBACK ACCESS:    5857601  HIT:    5844226  MISS:      13375

CPU 1 cumulative IPC: 0.80356 instructions: 2428020305 cycles: 3021577979
L1D TOTAL     ACCESS:  604124832  HIT:  539651731  MISS:   64473101
L1D LOAD      ACCESS:  533415171  HIT:  482285765  MISS:   51129406
L1D RFO       ACCESS:   70709661  HIT:   57365966  MISS:   13343695
L1D PREFETCH  ACCESS:          0  HIT:          0  MISS:          0
L1D WRITEBACK ACCESS:          0  HIT:          0  MISS:          0
L1I TOTAL     ACCESS:  620613832  HIT:  620613715  MISS:        117
L1I LOAD      ACCESS:  620613832  HIT:  620613715  MISS:        117
L1I RFO       ACCESS:          0  HIT:          0  MISS:          0
L1I PREFETCH  ACCESS:          0  HIT:          0  MISS:          0
L1I WRITEBACK ACCESS:          0  HIT:          0  MISS:          0
L2C TOTAL     ACCESS:  122734830  HIT:   62804641  MISS:   59930189
L2C LOAD      ACCESS:   51129484  HIT:   44714365  MISS:    6415119
L2C RFO       ACCESS:   13343695  HIT:       4607  MISS:   13339088
L2C PREFETCH  ACCESS:   40246342  HIT:      82336  MISS:   40164006
L2C WRITEBACK ACCESS:   18015309  HIT:   18003333  MISS:      11976

L2C DA-AMPM prefetcher final stats
LLC TOTAL     ACCESS:   77808515  HIT:   22924645  MISS:   54883870
LLC LOAD      ACCESS:    4106098  HIT:     814385  MISS:    3291713
LLC RFO       ACCESS:   13339057  HIT:     968039  MISS:   12371018
LLC PREFETCH  ACCESS:   42473044  HIT:    3252461  MISS:   39220583
LLC WRITEBACK ACCESS:   17890316  HIT:   17889760  MISS:        556

CPU 2 cumulative IPC: 0.746046 instructions: 2254235529 cycles: 3021577979
L1D TOTAL     ACCESS:  641756916  HIT:  563540050  MISS:   78216866
L1D LOAD      ACCESS:  561546470  HIT:  496576958  MISS:   64969512
L1D RFO       ACCESS:   80210446  HIT:   66963092  MISS:   13247354
L1D PREFETCH  ACCESS:          0  HIT:          0  MISS:          0
L1D WRITEBACK ACCESS:          0  HIT:          0  MISS:          0
L1I TOTAL     ACCESS:  533960464  HIT:  533952191  MISS:       8273
L1I LOAD      ACCESS:  533960464  HIT:  533952191  MISS:       8273
L1I RFO       ACCESS:          0  HIT:          0  MISS:          0
L1I PREFETCH  ACCESS:          0  HIT:          0  MISS:          0
L1I WRITEBACK ACCESS:          0  HIT:          0  MISS:          0
L2C TOTAL     ACCESS:  139142586  HIT:   76641838  MISS:   62500748
L2C LOAD      ACCESS:   64973517  HIT:   59124301  MISS:    5849216
L2C RFO       ACCESS:   13245374  HIT:      52523  MISS:   13192851
L2C PREFETCH  ACCESS:   43498600  HIT:      43922  MISS:   43454678
L2C WRITEBACK ACCESS:   17425095  HIT:   17421092  MISS:       4003

L2C DA-AMPM prefetcher final stats
LLC TOTAL     ACCESS:   79715561  HIT:   17296740  MISS:   62418821
LLC LOAD      ACCESS:    3662689  HIT:      20554  MISS:    3642135
LLC RFO       ACCESS:   13192826  HIT:       4614  MISS:   13188212
LLC PREFETCH  ACCESS:   45641229  HIT:      54208  MISS:   45587021
LLC WRITEBACK ACCESS:   17218817  HIT:   17217364  MISS:       1453

CPU 3 cumulative IPC: 0.330953 instructions: 1000000000 cycles: 3021577979
L1D TOTAL     ACCESS:  349278406  HIT:  339430987  MISS:    9847419
L1D LOAD      ACCESS:  214115872  HIT:  205478993  MISS:    8636879
L1D RFO       ACCESS:  135162534  HIT:  133951994  MISS:    1210540
L1D PREFETCH  ACCESS:          0  HIT:          0  MISS:          0
L1D WRITEBACK ACCESS:          0  HIT:          0  MISS:          0
L1I TOTAL     ACCESS:  272414173  HIT:  267677410  MISS:    4736763
L1I LOAD      ACCESS:  272414173  HIT:  267677410  MISS:    4736763
L1I RFO       ACCESS:          0  HIT:          0  MISS:          0
L1I PREFETCH  ACCESS:          0  HIT:          0  MISS:          0
L1I WRITEBACK ACCESS:          0  HIT:          0  MISS:          0
L2C TOTAL     ACCESS:   20832586  HIT:   14448174  MISS:    6384412
L2C LOAD      ACCESS:   13373529  HIT:   10450133  MISS:    2923396
L2C RFO       ACCESS:    1210491  HIT:     495810  MISS:     714681
L2C PREFETCH  ACCESS:    3682187  HIT:     966814  MISS:    2715373
L2C WRITEBACK ACCESS:    2566379  HIT:    2535417  MISS:      30962

L2C DA-AMPM prefetcher final stats
LLC TOTAL     ACCESS:    7704652  HIT:    2737982  MISS:    4966670
LLC LOAD      ACCESS:    2824835  HIT:     988033  MISS:    1836802
LLC RFO       ACCESS:     714248  HIT:     148475  MISS:     565773
LLC PREFETCH  ACCESS:    2814351  HIT:     731369  MISS:    2082982
LLC WRITEBACK ACCESS:    1351218  HIT:     870105  MISS:     481113

Region of Interest Statistics

CPU 0 cumulative IPC: 0.357058 instructions: 1000000000 cycles: 2800661754
L1D TOTAL     ACCESS:  493969481  HIT:  465099053  MISS:   28870428
L1D LOAD      ACCESS:  219104509  HIT:  192746653  MISS:   26357856
L1D RFO       ACCESS:  274864972  HIT:  272352400  MISS:    2512572
L1D PREFETCH  ACCESS:          0  HIT:          0  MISS:          0
L1D WRITEBACK ACCESS:          0  HIT:          0  MISS:          0
L1D PREFETCH  REQUESTED:          0  ISSUED:          0  USEFUL:          0  USELESS:          0
L1I TOTAL     ACCESS:  323373649  HIT:  323373649  MISS:          0
L1I LOAD      ACCESS:  323373649  HIT:  323373649  MISS:          0
L1I RFO       ACCESS:          0  HIT:          0  MISS:          0
L1I PREFETCH  ACCESS:          0  HIT:          0  MISS:          0
L1I WRITEBACK ACCESS:          0  HIT:          0  MISS:          0
L1I PREFETCH  REQUESTED:          0  ISSUED:          0  USEFUL:          0  USELESS:          0
L2C TOTAL     ACCESS:   60085467  HIT:   22396000  MISS:   37689467
L2C LOAD      ACCESS:   26357658  HIT:   15657058  MISS:   10700600
L2C RFO       ACCESS:    2512470  HIT:     241936  MISS:    2270534
L2C PREFETCH  ACCESS:   24731654  HIT:      46173  MISS:   24685481
L2C WRITEBACK ACCESS:    6483685  HIT:    6450833  MISS:      32852
L2C PREFETCH  REQUESTED:   40403035  ISSUED:   40403035  USEFUL:   21391227  USELESS:   12669216
LLC TOTAL     ACCESS:   43493151  HIT:    6009602  MISS:   37483549
LLC LOAD      ACCESS:    7618495  HIT:     173171  MISS:    7445324
LLC RFO       ACCESS:    2257010  HIT:       9380  MISS:    2247630
LLC PREFETCH  ACCESS:   27781108  HIT:       3859  MISS:   27777249
LLC WRITEBACK ACCESS:    5836538  HIT:    5823192  MISS:      13346
LLC PREFETCH  REQUESTED:          0  ISSUED:          0  USEFUL:     828944  USELESS:  135554488
Major fault: 0 Minor fault: 329904

CPU 1 cumulative IPC: 0.790792 instructions: 1000000003 cycles: 1264555813
L1D TOTAL     ACCESS:  249237359  HIT:  223220085  MISS:   26017274
L1D LOAD      ACCESS:  225914174  HIT:  205702749  MISS:   20211425
L1D RFO       ACCESS:   23323185  HIT:   17517336  MISS:    5805849
L1D PREFETCH  ACCESS:          0  HIT:          0  MISS:          0
L1D WRITEBACK ACCESS:          0  HIT:          0  MISS:          0
L1D PREFETCH  REQUESTED:          0  ISSUED:          0  USEFUL:          0  USELESS:          0
L1I TOTAL     ACCESS:  254802637  HIT:  254802637  MISS:          0
L1I LOAD      ACCESS:  254802637  HIT:  254802637  MISS:          0
L1I RFO       ACCESS:          0  HIT:          0  MISS:          0
L1I PREFETCH  ACCESS:          0  HIT:          0  MISS:          0
L1I WRITEBACK ACCESS:          0  HIT:          0  MISS:          0
L1I PREFETCH  REQUESTED:          0  ISSUED:          0  USEFUL:          0  USELESS:          0
L2C TOTAL     ACCESS:   49651981  HIT:   25375386  MISS:   24276595
L2C LOAD      ACCESS:   20211418  HIT:   17843573  MISS:    2367845
L2C RFO       ACCESS:    5805849  HIT:         35  MISS:    5805814
L2C PREFETCH  ACCESS:   16115830  HIT:      13215  MISS:   16102615
L2C WRITEBACK ACCESS:    7518884  HIT:    7518563  MISS:        321
L2C PREFETCH  REQUESTED:   47581543  ISSUED:   47570722  USEFUL:   39434847  USELESS:    5346876
LLC TOTAL     ACCESS:   31744225  HIT:    7480393  MISS:   24263832
LLC LOAD      ACCESS:    1419408  HIT:       3138  MISS:    1416270
LLC RFO       ACCESS:    5805802  HIT:          0  MISS:    5805802
LLC PREFETCH  ACCESS:   17051065  HIT:       9543  MISS:   17041522
LLC WRITEBACK ACCESS:    7467950  HIT:    7467712  MISS:        238
LLC PREFETCH  REQUESTED:          0  ISSUED:          0  USEFUL:     828944  USELESS:  135554488
Major fault: 0 Minor fault: 209522

CPU 2 cumulative IPC: 0.754237 instructions: 1000000003 cycles: 1325843604
L1D TOTAL     ACCESS:  294393239  HIT:  261099694  MISS:   33293545
L1D LOAD      ACCESS:  258224983  HIT:  230407764  MISS:   27817219
L1D RFO       ACCESS:   36168256  HIT:   30691930  MISS:    5476326
L1D PREFETCH  ACCESS:          0  HIT:          0  MISS:          0
L1D WRITEBACK ACCESS:          0  HIT:          0  MISS:          0
L1D PREFETCH  REQUESTED:          0  ISSUED:          0  USEFUL:          0  USELESS:          0
L1I TOTAL     ACCESS:  237743093  HIT:  237739558  MISS:       3535
L1I LOAD      ACCESS:  237743093  HIT:  237739558  MISS:       3535
L1I RFO       ACCESS:          0  HIT:          0  MISS:          0
L1I PREFETCH  ACCESS:          0  HIT:          0  MISS:          0
L1I WRITEBACK ACCESS:          0  HIT:          0  MISS:          0
L1I PREFETCH  REQUESTED:          0  ISSUED:          0  USEFUL:          0  USELESS:          0
L2C TOTAL     ACCESS:   59872520  HIT:   32556329  MISS:   27316191
L2C LOAD      ACCESS:   27819048  HIT:   25287603  MISS:    2531445
L2C RFO       ACCESS:    5475285  HIT:      15492  MISS:    5459793
L2C PREFETCH  ACCESS:   19338886  HIT:      16148  MISS:   19322738
L2C WRITEBACK ACCESS:    7239301  HIT:    7237086  MISS:       2215
L2C PREFETCH  REQUESTED:   51416446  ISSUED:   51376371  USEFUL:   44044964  USELESS:    4702891
LLC TOTAL     ACCESS:   34470880  HIT:    7197005  MISS:   27273875
LLC LOAD      ACCESS:    1617982  HIT:       9735  MISS:    1608247
LLC RFO       ACCESS:    5459783  HIT:       1882  MISS:    5457901
LLC PREFETCH  ACCESS:   20236211  HIT:      29167  MISS:   20207044
LLC WRITEBACK ACCESS:    7156904  HIT:    7156221  MISS:        683
LLC PREFETCH  REQUESTED:          0  ISSUED:          0  USEFUL:     828944  USELESS:  135554488
Major fault: 0 Minor fault: 96901

CPU 3 cumulative IPC: 0.330953 instructions: 1000000000 cycles: 3021577979
L1D TOTAL     ACCESS:  349278406  HIT:  339430987  MISS:    9847419
L1D LOAD      ACCESS:  214115872  HIT:  205478993  MISS:    8636879
L1D RFO       ACCESS:  135162534  HIT:  133951994  MISS:    1210540
L1D PREFETCH  ACCESS:          0  HIT:          0  MISS:          0
L1D WRITEBACK ACCESS:          0  HIT:          0  MISS:          0
L1D PREFETCH  REQUESTED:          0  ISSUED:          0  USEFUL:          0  USELESS:          0
L1I TOTAL     ACCESS:  272414173  HIT:  267677410  MISS:    4736763
L1I LOAD      ACCESS:  272414173  HIT:  267677410  MISS:    4736763
L1I RFO       ACCESS:          0  HIT:          0  MISS:          0
L1I PREFETCH  ACCESS:          0  HIT:          0  MISS:          0
L1I WRITEBACK ACCESS:          0  HIT:          0  MISS:          0
L1I PREFETCH  REQUESTED:          0  ISSUED:          0  USEFUL:          0  USELESS:          0
L2C TOTAL     ACCESS:   20832586  HIT:   14448174  MISS:    6384412
L2C LOAD      ACCESS:   13373529  HIT:   10450133  MISS:    2923396
L2C RFO       ACCESS:    1210491  HIT:     495810  MISS:     714681
L2C PREFETCH  ACCESS:    3682187  HIT:     966814  MISS:    2715373
L2C WRITEBACK ACCESS:    2566379  HIT:    2535417  MISS:      30962
L2C PREFETCH  REQUESTED:    4785863  ISSUED:    4785855  USEFUL:    1698652  USELESS:    1763045
LLC TOTAL     ACCESS:    7704652  HIT:    2737982  MISS:    4966670
LLC LOAD      ACCESS:    2824835  HIT:     988033  MISS:    1836802
LLC RFO       ACCESS:     714248  HIT:     148475  MISS:     565773
LLC PREFETCH  ACCESS:    2814351  HIT:     731369  MISS:    2082982
LLC WRITEBACK ACCESS:    1351218  HIT:     870105  MISS:     481113
LLC PREFETCH  REQUESTED:          0  ISSUED:          0  USEFUL:     828944  USELESS:  135554488
Major fault: 0 Minor fault: 28410

L2C DA-AMPM prefetcher final stats

L2C DA-AMPM prefetcher final stats

L2C DA-AMPM prefetcher final stats

L2C DA-AMPM prefetcher final stats

DRAM Statistics
 CHANNEL 0
 RQ ROW_BUFFER_HIT:   32789818  ROW_BUFFER_MISS:   50718133
 DBUS_CONGESTED:  146820137
 WQ ROW_BUFFER_HIT:    1767088  ROW_BUFFER_MISS:   18751895  FULL:          0

 CHANNEL 1
 RQ ROW_BUFFER_HIT:   32772392  ROW_BUFFER_MISS:   50740780
 DBUS_CONGESTED:  146820137
 WQ ROW_BUFFER_HIT:    1761834  ROW_BUFFER_MISS:   18742543  FULL:          0

 AVG_CONGESTED_CYCLE: 13
