
*** ChampSim Multicore Out-of-Order Simulator ***

Warmup Instructions: 200000000
Simulation Instructions: 1000000000
Number of CPUs: 4
LLC sets: 8192
LLC ways: 16
Off-chip DRAM Size: 8192 MB Channels: 2 Width: 64-bit Data Rate: 1600 MT/s

CPU 0 runs /scratch/user/djimenez/champsim-traces/speccpu2017/xz/649.fotonik3d_s/649.fotonik3d_s-8225B.champsimtrace.xz
CPU 1 runs /scratch/user/djimenez/champsim-traces/speccpu2017/xz/602.gcc_s/602.gcc_s-2375B.champsimtrace.xz
CPU 2 runs /scratch/user/djimenez/champsim-traces/speccpu2017/xz/620.omnetpp_s/620.omnetpp_s-874B.champsimtrace.xz
CPU 3 runs /scratch/user/djimenez/champsim-traces/speccpu2017/xz/603.bwaves_s/603.bwaves_s-2609B.champsimtrace.xz
L2C DA-AMPM prefetcher
L2C DA-AMPM prefetcher
L2C DA-AMPM prefetcher
L2C DA-AMPM prefetcher
Heartbeat CPU 0 instructions: 10000001 cycles: 4395082 heartbeat IPC: 2.27527 cumulative IPC: 2.27527 (Simulation time: 0 hr 1 min 44 sec) 
Heartbeat CPU 3 instructions: 10000001 cycles: 5273702 heartbeat IPC: 1.8962 cumulative IPC: 1.8962 (Simulation time: 0 hr 2 min 3 sec) 
Heartbeat CPU 1 instructions: 10000002 cycles: 6786668 heartbeat IPC: 1.47348 cumulative IPC: 1.47348 (Simulation time: 0 hr 2 min 38 sec) 
Heartbeat CPU 2 instructions: 10000000 cycles: 7368446 heartbeat IPC: 1.35714 cumulative IPC: 1.35714 (Simulation time: 0 hr 2 min 54 sec) 
Heartbeat CPU 0 instructions: 20000000 cycles: 8788876 heartbeat IPC: 2.27594 cumulative IPC: 2.2756 (Simulation time: 0 hr 3 min 28 sec) 
Heartbeat CPU 3 instructions: 20000000 cycles: 10548940 heartbeat IPC: 1.89565 cumulative IPC: 1.89593 (Simulation time: 0 hr 4 min 6 sec) 
Heartbeat CPU 0 instructions: 30000003 cycles: 13183557 heartbeat IPC: 2.27548 cumulative IPC: 2.27556 (Simulation time: 0 hr 4 min 59 sec) 
Heartbeat CPU 1 instructions: 20000000 cycles: 13330863 heartbeat IPC: 1.52807 cumulative IPC: 1.50028 (Simulation time: 0 hr 5 min 2 sec) 
Heartbeat CPU 2 instructions: 20000000 cycles: 14719154 heartbeat IPC: 1.36041 cumulative IPC: 1.35877 (Simulation time: 0 hr 5 min 30 sec) 
Heartbeat CPU 3 instructions: 30000000 cycles: 15820603 heartbeat IPC: 1.89693 cumulative IPC: 1.89626 (Simulation time: 0 hr 5 min 53 sec) 
Heartbeat CPU 0 instructions: 40000000 cycles: 17578476 heartbeat IPC: 2.27535 cumulative IPC: 2.27551 (Simulation time: 0 hr 6 min 28 sec) 
Heartbeat CPU 1 instructions: 30000001 cycles: 20186175 heartbeat IPC: 1.45872 cumulative IPC: 1.48617 (Simulation time: 0 hr 7 min 22 sec) 
Heartbeat CPU 3 instructions: 40000000 cycles: 21094322 heartbeat IPC: 1.8962 cumulative IPC: 1.89624 (Simulation time: 0 hr 7 min 41 sec) 
Heartbeat CPU 0 instructions: 50000002 cycles: 21973692 heartbeat IPC: 2.2752 cumulative IPC: 2.27545 (Simulation time: 0 hr 8 min 0 sec) 
Heartbeat CPU 2 instructions: 30000001 cycles: 22071031 heartbeat IPC: 1.3602 cumulative IPC: 1.35925 (Simulation time: 0 hr 8 min 2 sec) 
Heartbeat CPU 1 instructions: 40000000 cycles: 26352205 heartbeat IPC: 1.62179 cumulative IPC: 1.5179 (Simulation time: 0 hr 9 min 30 sec) 
Heartbeat CPU 0 instructions: 60000000 cycles: 26369174 heartbeat IPC: 2.27506 cumulative IPC: 2.27538 (Simulation time: 0 hr 9 min 30 sec) 
Heartbeat CPU 3 instructions: 50000002 cycles: 26371053 heartbeat IPC: 1.89511 cumulative IPC: 1.89602 (Simulation time: 0 hr 9 min 30 sec) 
Heartbeat CPU 2 instructions: 40000000 cycles: 29432737 heartbeat IPC: 1.35838 cumulative IPC: 1.35903 (Simulation time: 0 hr 10 min 31 sec) 
Heartbeat CPU 0 instructions: 70000001 cycles: 30764170 heartbeat IPC: 2.27532 cumulative IPC: 2.27537 (Simulation time: 0 hr 10 min 58 sec) 
Heartbeat CPU 3 instructions: 60000000 cycles: 31644278 heartbeat IPC: 1.89637 cumulative IPC: 1.89608 (Simulation time: 0 hr 11 min 16 sec) 
Heartbeat CPU 1 instructions: 50000001 cycles: 32223316 heartbeat IPC: 1.70326 cumulative IPC: 1.55167 (Simulation time: 0 hr 11 min 28 sec) 
Heartbeat CPU 0 instructions: 80000000 cycles: 35157863 heartbeat IPC: 2.27599 cumulative IPC: 2.27545 (Simulation time: 0 hr 12 min 29 sec) 
Heartbeat CPU 2 instructions: 50000000 cycles: 36794139 heartbeat IPC: 1.35844 cumulative IPC: 1.35891 (Simulation time: 0 hr 13 min 3 sec) 
Heartbeat CPU 3 instructions: 70000000 cycles: 36919255 heartbeat IPC: 1.89574 cumulative IPC: 1.89603 (Simulation time: 0 hr 13 min 6 sec) 
Heartbeat CPU 1 instructions: 60000000 cycles: 37896743 heartbeat IPC: 1.7626 cumulative IPC: 1.58325 (Simulation time: 0 hr 13 min 26 sec) 
Heartbeat CPU 0 instructions: 90000002 cycles: 39552018 heartbeat IPC: 2.27575 cumulative IPC: 2.27548 (Simulation time: 0 hr 14 min 1 sec) 
Heartbeat CPU 3 instructions: 80000000 cycles: 42193872 heartbeat IPC: 1.89587 cumulative IPC: 1.89601 (Simulation time: 0 hr 14 min 57 sec) 
Heartbeat CPU 0 instructions: 100000000 cycles: 43945909 heartbeat IPC: 2.27589 cumulative IPC: 2.27552 (Simulation time: 0 hr 15 min 37 sec) 
Heartbeat CPU 2 instructions: 60000000 cycles: 44162627 heartbeat IPC: 1.35713 cumulative IPC: 1.35861 (Simulation time: 0 hr 15 min 43 sec) 
Heartbeat CPU 1 instructions: 70000001 cycles: 44509256 heartbeat IPC: 1.51228 cumulative IPC: 1.57271 (Simulation time: 0 hr 15 min 50 sec) 
Heartbeat CPU 3 instructions: 90000002 cycles: 47466779 heartbeat IPC: 1.89649 cumulative IPC: 1.89606 (Simulation time: 0 hr 16 min 56 sec) 
Heartbeat CPU 0 instructions: 110000000 cycles: 48341370 heartbeat IPC: 2.27507 cumulative IPC: 2.27548 (Simulation time: 0 hr 17 min 15 sec) 
Heartbeat CPU 1 instructions: 80000000 cycles: 50291718 heartbeat IPC: 1.72937 cumulative IPC: 1.59072 (Simulation time: 0 hr 18 min 0 sec) 
Heartbeat CPU 2 instructions: 70000000 cycles: 51519764 heartbeat IPC: 1.35922 cumulative IPC: 1.3587 (Simulation time: 0 hr 18 min 26 sec) 
Heartbeat CPU 0 instructions: 120000000 cycles: 52736097 heartbeat IPC: 2.27545 cumulative IPC: 2.27548 (Simulation time: 0 hr 18 min 52 sec) 
Heartbeat CPU 3 instructions: 100000000 cycles: 52741212 heartbeat IPC: 1.89594 cumulative IPC: 1.89605 (Simulation time: 0 hr 18 min 52 sec) 
Heartbeat CPU 1 instructions: 90000003 cycles: 55882504 heartbeat IPC: 1.78866 cumulative IPC: 1.61052 (Simulation time: 0 hr 20 min 3 sec) 
Heartbeat CPU 0 instructions: 130000002 cycles: 57129863 heartbeat IPC: 2.27595 cumulative IPC: 2.27552 (Simulation time: 0 hr 20 min 32 sec) 
Heartbeat CPU 3 instructions: 110000002 cycles: 58016760 heartbeat IPC: 1.89554 cumulative IPC: 1.896 (Simulation time: 0 hr 20 min 53 sec) 
Heartbeat CPU 2 instructions: 80000000 cycles: 58871132 heartbeat IPC: 1.36029 cumulative IPC: 1.3589 (Simulation time: 0 hr 21 min 12 sec) 
Heartbeat CPU 0 instructions: 140000000 cycles: 61524070 heartbeat IPC: 2.27572 cumulative IPC: 2.27553 (Simulation time: 0 hr 22 min 17 sec) 
Heartbeat CPU 1 instructions: 100000000 cycles: 62293634 heartbeat IPC: 1.55979 cumulative IPC: 1.6053 (Simulation time: 0 hr 22 min 36 sec) 
Heartbeat CPU 3 instructions: 120000000 cycles: 63290457 heartbeat IPC: 1.8962 cumulative IPC: 1.89602 (Simulation time: 0 hr 22 min 58 sec) 
Heartbeat CPU 0 instructions: 150000000 cycles: 65918168 heartbeat IPC: 2.27578 cumulative IPC: 2.27555 (Simulation time: 0 hr 23 min 59 sec) 
Heartbeat CPU 2 instructions: 90000000 cycles: 66225036 heartbeat IPC: 1.35982 cumulative IPC: 1.359 (Simulation time: 0 hr 24 min 7 sec) 
Heartbeat CPU 3 instructions: 130000002 cycles: 68565831 heartbeat IPC: 1.8956 cumulative IPC: 1.89599 (Simulation time: 0 hr 25 min 2 sec) 
Heartbeat CPU 1 instructions: 110000003 cycles: 68784580 heartbeat IPC: 1.54061 cumulative IPC: 1.5992 (Simulation time: 0 hr 25 min 6 sec) 
Heartbeat CPU 0 instructions: 160000000 cycles: 70312249 heartbeat IPC: 2.27579 cumulative IPC: 2.27556 (Simulation time: 0 hr 25 min 39 sec) 
Heartbeat CPU 2 instructions: 100000000 cycles: 73598696 heartbeat IPC: 1.35618 cumulative IPC: 1.35872 (Simulation time: 0 hr 27 min 5 sec) 
Heartbeat CPU 3 instructions: 140000000 cycles: 73839614 heartbeat IPC: 1.89617 cumulative IPC: 1.896 (Simulation time: 0 hr 27 min 10 sec) 
Heartbeat CPU 0 instructions: 170000002 cycles: 74707604 heartbeat IPC: 2.27513 cumulative IPC: 2.27554 (Simulation time: 0 hr 27 min 30 sec) 
Heartbeat CPU 1 instructions: 120000000 cycles: 75533574 heartbeat IPC: 1.4817 cumulative IPC: 1.5887 (Simulation time: 0 hr 27 min 48 sec) 
Heartbeat CPU 0 instructions: 180000000 cycles: 79102337 heartbeat IPC: 2.27545 cumulative IPC: 2.27553 (Simulation time: 0 hr 29 min 5 sec) 
Heartbeat CPU 3 instructions: 150000002 cycles: 79113631 heartbeat IPC: 1.89609 cumulative IPC: 1.89601 (Simulation time: 0 hr 29 min 6 sec) 
Heartbeat CPU 2 instructions: 110000003 cycles: 80935660 heartbeat IPC: 1.36296 cumulative IPC: 1.3591 (Simulation time: 0 hr 29 min 46 sec) 
Heartbeat CPU 1 instructions: 130000002 cycles: 81656910 heartbeat IPC: 1.6331 cumulative IPC: 1.59203 (Simulation time: 0 hr 30 min 4 sec) 
Heartbeat CPU 0 instructions: 190000000 cycles: 83495894 heartbeat IPC: 2.27606 cumulative IPC: 2.27556 (Simulation time: 0 hr 30 min 46 sec) 
Heartbeat CPU 3 instructions: 160000000 cycles: 84387441 heartbeat IPC: 1.89616 cumulative IPC: 1.89602 (Simulation time: 0 hr 31 min 5 sec) 
Heartbeat CPU 0 instructions: 200000000 cycles: 87889678 heartbeat IPC: 2.27594 cumulative IPC: 2.27558 (Simulation time: 0 hr 32 min 33 sec) 
Heartbeat CPU 1 instructions: 140000000 cycles: 88202893 heartbeat IPC: 1.52765 cumulative IPC: 1.58725 (Simulation time: 0 hr 32 min 40 sec) 
Heartbeat CPU 2 instructions: 120000000 cycles: 88293364 heartbeat IPC: 1.35912 cumulative IPC: 1.35911 (Simulation time: 0 hr 32 min 42 sec) 
Heartbeat CPU 3 instructions: 170000002 cycles: 89661361 heartbeat IPC: 1.89612 cumulative IPC: 1.89602 (Simulation time: 0 hr 33 min 12 sec) 
Heartbeat CPU 0 instructions: 210000002 cycles: 92283952 heartbeat IPC: 2.27569 cumulative IPC: 0.108361 (Simulation time: 0 hr 34 min 15 sec) 
Heartbeat CPU 1 instructions: 150000000 cycles: 94741566 heartbeat IPC: 1.52936 cumulative IPC: 1.58325 (Simulation time: 0 hr 35 min 7 sec) 
Heartbeat CPU 3 instructions: 180000000 cycles: 94935392 heartbeat IPC: 1.89608 cumulative IPC: 1.89603 (Simulation time: 0 hr 35 min 12 sec) 
Heartbeat CPU 2 instructions: 130000000 cycles: 95634189 heartbeat IPC: 1.36224 cumulative IPC: 1.35935 (Simulation time: 0 hr 35 min 26 sec) 
Heartbeat CPU 0 instructions: 220000000 cycles: 96678372 heartbeat IPC: 2.27561 cumulative IPC: 0.206871 (Simulation time: 0 hr 35 min 49 sec) 
Heartbeat CPU 3 instructions: 190000000 cycles: 100210034 heartbeat IPC: 1.89586 cumulative IPC: 1.89602 (Simulation time: 0 hr 37 min 8 sec) 
Heartbeat CPU 1 instructions: 160000000 cycles: 100481245 heartbeat IPC: 1.74226 cumulative IPC: 1.59234 (Simulation time: 0 hr 37 min 14 sec) 
Heartbeat CPU 0 instructions: 230000001 cycles: 101073629 heartbeat IPC: 2.27518 cumulative IPC: 0.296813 (Simulation time: 0 hr 37 min 26 sec) 
Heartbeat CPU 2 instructions: 140000000 cycles: 103000058 heartbeat IPC: 1.35761 cumulative IPC: 1.35922 (Simulation time: 0 hr 38 min 11 sec) 
Heartbeat CPU 0 instructions: 240000000 cycles: 105468521 heartbeat IPC: 2.27537 cumulative IPC: 0.37926 (Simulation time: 0 hr 39 min 6 sec) 
Heartbeat CPU 3 instructions: 200000000 cycles: 105484099 heartbeat IPC: 1.89607 cumulative IPC: 1.89602 (Simulation time: 0 hr 39 min 6 sec) 
Heartbeat CPU 1 instructions: 170000000 cycles: 107367597 heartbeat IPC: 1.45215 cumulative IPC: 1.58335 (Simulation time: 0 hr 39 min 47 sec) 
Heartbeat CPU 0 instructions: 250000000 cycles: 109862049 heartbeat IPC: 2.27608 cumulative IPC: 0.455116 (Simulation time: 0 hr 40 min 39 sec) 
Heartbeat CPU 2 instructions: 150000001 cycles: 110373641 heartbeat IPC: 1.35619 cumulative IPC: 1.35902 (Simulation time: 0 hr 40 min 50 sec) 
Heartbeat CPU 3 instructions: 210000001 cycles: 110757603 heartbeat IPC: 1.89627 cumulative IPC: 0.0902873 (Simulation time: 0 hr 40 min 58 sec) 
Heartbeat CPU 1 instructions: 180000000 cycles: 113591826 heartbeat IPC: 1.60662 cumulative IPC: 1.58462 (Simulation time: 0 hr 42 min 1 sec) 
Heartbeat CPU 0 instructions: 260000000 cycles: 114256584 heartbeat IPC: 2.27555 cumulative IPC: 0.525134 (Simulation time: 0 hr 42 min 20 sec) 
Heartbeat CPU 3 instructions: 220000000 cycles: 116030128 heartbeat IPC: 1.89662 cumulative IPC: 0.172369 (Simulation time: 0 hr 43 min 2 sec) 
Heartbeat CPU 2 instructions: 160000000 cycles: 117752071 heartbeat IPC: 1.3553 cumulative IPC: 1.35879 (Simulation time: 0 hr 43 min 41 sec) 
Heartbeat CPU 0 instructions: 270000001 cycles: 118650184 heartbeat IPC: 2.27604 cumulative IPC: 0.58997 (Simulation time: 0 hr 44 min 3 sec) 
Heartbeat CPU 1 instructions: 190000001 cycles: 120514856 heartbeat IPC: 1.44445 cumulative IPC: 1.57657 (Simulation time: 0 hr 44 min 48 sec) 
Heartbeat CPU 3 instructions: 230000001 cycles: 121305830 heartbeat IPC: 1.89548 cumulative IPC: 0.247309 (Simulation time: 0 hr 45 min 6 sec) 
Heartbeat CPU 0 instructions: 280000000 cycles: 123044911 heartbeat IPC: 2.27545 cumulative IPC: 0.650169 (Simulation time: 0 hr 45 min 48 sec) 
Heartbeat CPU 2 instructions: 170000003 cycles: 125107656 heartbeat IPC: 1.35951 cumulative IPC: 1.35883 (Simulation time: 0 hr 46 min 40 sec) 
Heartbeat CPU 3 instructions: 240000000 cycles: 126580698 heartbeat IPC: 1.89578 cumulative IPC: 0.316004 (Simulation time: 0 hr 47 min 10 sec) 
Heartbeat CPU 1 instructions: 200000000 cycles: 127276679 heartbeat IPC: 1.47889 cumulative IPC: 1.57138 (Simulation time: 0 hr 47 min 27 sec) 
Heartbeat CPU 0 instructions: 290000003 cycles: 127440101 heartbeat IPC: 2.27522 cumulative IPC: 0.706214 (Simulation time: 0 hr 47 min 31 sec) 
Heartbeat CPU 0 instructions: 300000000 cycles: 131834347 heartbeat IPC: 2.2757 cumulative IPC: 0.758528 (Simulation time: 0 hr 49 min 5 sec) 
Heartbeat CPU 3 instructions: 250000000 cycles: 131854697 heartbeat IPC: 1.89609 cumulative IPC: 0.379205 (Simulation time: 0 hr 49 min 6 sec) 
Heartbeat CPU 2 instructions: 180000000 cycles: 132473749 heartbeat IPC: 1.35757 cumulative IPC: 1.35876 (Simulation time: 0 hr 49 min 20 sec) 
Heartbeat CPU 1 instructions: 210000000 cycles: 133882285 heartbeat IPC: 1.51387 cumulative IPC: 0.0746925 (Simulation time: 0 hr 49 min 52 sec) 
Heartbeat CPU 0 instructions: 310000001 cycles: 136227645 heartbeat IPC: 2.27619 cumulative IPC: 0.807472 (Simulation time: 0 hr 50 min 45 sec) 
Heartbeat CPU 3 instructions: 260000000 cycles: 137129517 heartbeat IPC: 1.8958 cumulative IPC: 0.437543 (Simulation time: 0 hr 51 min 5 sec) 
Heartbeat CPU 2 instructions: 190000002 cycles: 139824767 heartbeat IPC: 1.36036 cumulative IPC: 1.35884 (Simulation time: 0 hr 52 min 2 sec) 
Heartbeat CPU 1 instructions: 220000000 cycles: 140494826 heartbeat IPC: 1.51228 cumulative IPC: 0.142354 (Simulation time: 0 hr 52 min 16 sec) 
Heartbeat CPU 0 instructions: 320000000 cycles: 140621868 heartbeat IPC: 2.27571 cumulative IPC: 0.853352 (Simulation time: 0 hr 52 min 19 sec) 
Heartbeat CPU 3 instructions: 270000003 cycles: 142402542 heartbeat IPC: 1.89645 cumulative IPC: 0.491564 (Simulation time: 0 hr 52 min 57 sec) 
Heartbeat CPU 0 instructions: 330000003 cycles: 145016082 heartbeat IPC: 2.27572 cumulative IPC: 0.896452 (Simulation time: 0 hr 53 min 54 sec) 
Heartbeat CPU 2 instructions: 200000000 cycles: 147178245 heartbeat IPC: 1.3599 cumulative IPC: 1.3589 (Simulation time: 0 hr 54 min 40 sec) 

Warmup complete CPU 0 instructions: 334921169 cycles: 147178247 (Simulation time: 0 hr 54 min 40 sec) 
Warmup complete CPU 1 instructions: 229891414 cycles: 147178247 (Simulation time: 0 hr 54 min 40 sec) 
Warmup complete CPU 2 instructions: 200000001 cycles: 147178247 (Simulation time: 0 hr 54 min 40 sec) 
Warmup complete CPU 3 instructions: 279055167 cycles: 147178246 (Simulation time: 0 hr 54 min 40 sec) 

Heartbeat CPU 1 instructions: 230000003 cycles: 147494053 heartbeat IPC: 1.42873 cumulative IPC: 0.343847 (Simulation time: 0 hr 54 min 43 sec) 
Heartbeat CPU 3 instructions: 280000000 cycles: 147953932 heartbeat IPC: 1.80135 cumulative IPC: 1.21806 (Simulation time: 0 hr 54 min 48 sec) 
Heartbeat CPU 0 instructions: 340000000 cycles: 152687728 heartbeat IPC: 1.3035 cumulative IPC: 0.921835 (Simulation time: 0 hr 55 min 36 sec) 
Heartbeat CPU 3 instructions: 290000003 cycles: 156082278 heartbeat IPC: 1.23026 cumulative IPC: 1.2292 (Simulation time: 0 hr 56 min 11 sec) 
Heartbeat CPU 0 instructions: 350000001 cycles: 163338498 heartbeat IPC: 0.938899 cumulative IPC: 0.933082 (Simulation time: 0 hr 57 min 31 sec) 
Heartbeat CPU 3 instructions: 300000000 cycles: 164206799 heartbeat IPC: 1.23084 cumulative IPC: 1.22998 (Simulation time: 0 hr 57 min 41 sec) 
Heartbeat CPU 3 instructions: 310000001 cycles: 172299697 heartbeat IPC: 1.23565 cumulative IPC: 1.23181 (Simulation time: 0 hr 59 min 10 sec) 
Heartbeat CPU 0 instructions: 360000000 cycles: 174004703 heartbeat IPC: 0.93754 cumulative IPC: 0.934854 (Simulation time: 0 hr 59 min 26 sec) 
Heartbeat CPU 1 instructions: 240000000 cycles: 178603345 heartbeat IPC: 0.321447 cumulative IPC: 0.321672 (Simulation time: 1 hr 0 min 13 sec) 
Heartbeat CPU 3 instructions: 320000000 cycles: 180426799 heartbeat IPC: 1.23045 cumulative IPC: 1.23148 (Simulation time: 1 hr 0 min 31 sec) 
Heartbeat CPU 0 instructions: 370000000 cycles: 184669020 heartbeat IPC: 0.937707 cumulative IPC: 0.935666 (Simulation time: 1 hr 1 min 14 sec) 
Heartbeat CPU 3 instructions: 330000002 cycles: 188554016 heartbeat IPC: 1.23043 cumulative IPC: 1.23127 (Simulation time: 1 hr 1 min 53 sec) 
Heartbeat CPU 2 instructions: 210000003 cycles: 193852898 heartbeat IPC: 0.214249 cumulative IPC: 0.214249 (Simulation time: 1 hr 2 min 47 sec) 
Heartbeat CPU 0 instructions: 380000000 cycles: 195308025 heartbeat IPC: 0.939938 cumulative IPC: 0.93661 (Simulation time: 1 hr 3 min 2 sec) 
Heartbeat CPU 3 instructions: 340000000 cycles: 196652095 heartbeat IPC: 1.23486 cumulative IPC: 1.23186 (Simulation time: 1 hr 3 min 16 sec) 
Heartbeat CPU 3 instructions: 350000000 cycles: 204779546 heartbeat IPC: 1.2304 cumulative IPC: 1.23165 (Simulation time: 1 hr 4 min 49 sec) 
Heartbeat CPU 0 instructions: 390000003 cycles: 205939836 heartbeat IPC: 0.940574 cumulative IPC: 0.937327 (Simulation time: 1 hr 5 min 3 sec) 
Heartbeat CPU 1 instructions: 250000001 cycles: 208141124 heartbeat IPC: 0.33855 cumulative IPC: 0.32985 (Simulation time: 1 hr 5 min 31 sec) 
Heartbeat CPU 3 instructions: 360000000 cycles: 212867618 heartbeat IPC: 1.23639 cumulative IPC: 1.23224 (Simulation time: 1 hr 6 min 25 sec) 
Heartbeat CPU 0 instructions: 400000000 cycles: 216551502 heartbeat IPC: 0.942359 cumulative IPC: 0.938097 (Simulation time: 1 hr 7 min 4 sec) 
Heartbeat CPU 3 instructions: 370000000 cycles: 220973237 heartbeat IPC: 1.23371 cumulative IPC: 1.2324 (Simulation time: 1 hr 7 min 49 sec) 
Heartbeat CPU 0 instructions: 410000000 cycles: 227220228 heartbeat IPC: 0.937319 cumulative IPC: 0.937993 (Simulation time: 1 hr 9 min 2 sec) 
Heartbeat CPU 3 instructions: 380000000 cycles: 229158822 heartbeat IPC: 1.22166 cumulative IPC: 1.23133 (Simulation time: 1 hr 9 min 25 sec) 
Heartbeat CPU 1 instructions: 260000000 cycles: 236354924 heartbeat IPC: 0.354436 cumulative IPC: 0.337628 (Simulation time: 1 hr 10 min 49 sec) 
Heartbeat CPU 3 instructions: 390000003 cycles: 237266103 heartbeat IPC: 1.23346 cumulative IPC: 1.23152 (Simulation time: 1 hr 11 min 0 sec) 
Heartbeat CPU 0 instructions: 420000000 cycles: 237838034 heartbeat IPC: 0.941814 cumulative IPC: 0.938441 (Simulation time: 1 hr 11 min 7 sec) 
Heartbeat CPU 2 instructions: 220000000 cycles: 240436017 heartbeat IPC: 0.21467 cumulative IPC: 0.214459 (Simulation time: 1 hr 11 min 40 sec) 
Heartbeat CPU 3 instructions: 400000000 cycles: 245353791 heartbeat IPC: 1.23645 cumulative IPC: 1.23192 (Simulation time: 1 hr 12 min 38 sec) 
Heartbeat CPU 0 instructions: 430000003 cycles: 248467655 heartbeat IPC: 0.940768 cumulative IPC: 0.938685 (Simulation time: 1 hr 13 min 9 sec) 
Heartbeat CPU 3 instructions: 410000000 cycles: 253491610 heartbeat IPC: 1.22883 cumulative IPC: 1.23169 (Simulation time: 1 hr 13 min 58 sec) 
Heartbeat CPU 0 instructions: 440000000 cycles: 259135844 heartbeat IPC: 0.937366 cumulative IPC: 0.938559 (Simulation time: 1 hr 14 min 57 sec) 
Heartbeat CPU 3 instructions: 420000000 cycles: 261640870 heartbeat IPC: 1.22711 cumulative IPC: 1.23136 (Simulation time: 1 hr 15 min 26 sec) 
Heartbeat CPU 1 instructions: 270000000 cycles: 267767913 heartbeat IPC: 0.31834 cumulative IPC: 0.332604 (Simulation time: 1 hr 16 min 27 sec) 
Heartbeat CPU 0 instructions: 450000000 cycles: 269767146 heartbeat IPC: 0.940619 cumulative IPC: 0.938738 (Simulation time: 1 hr 16 min 46 sec) 
Heartbeat CPU 3 instructions: 430000000 cycles: 269770663 heartbeat IPC: 1.23004 cumulative IPC: 1.23127 (Simulation time: 1 hr 16 min 46 sec) 
Heartbeat CPU 3 instructions: 440000000 cycles: 277870455 heartbeat IPC: 1.2346 cumulative IPC: 1.23148 (Simulation time: 1 hr 18 min 7 sec) 
Heartbeat CPU 0 instructions: 460000000 cycles: 280373435 heartbeat IPC: 0.942837 cumulative IPC: 0.939064 (Simulation time: 1 hr 18 min 32 sec) 
Heartbeat CPU 3 instructions: 450000002 cycles: 285987128 heartbeat IPC: 1.23203 cumulative IPC: 1.23151 (Simulation time: 1 hr 19 min 29 sec) 
Heartbeat CPU 2 instructions: 230000002 cycles: 286286602 heartbeat IPC: 0.2181 cumulative IPC: 0.215659 (Simulation time: 1 hr 19 min 32 sec) 
Heartbeat CPU 0 instructions: 470000000 cycles: 291015192 heartbeat IPC: 0.939694 cumulative IPC: 0.939111 (Simulation time: 1 hr 20 min 19 sec) 
Heartbeat CPU 3 instructions: 460000000 cycles: 294113347 heartbeat IPC: 1.23058 cumulative IPC: 1.23146 (Simulation time: 1 hr 20 min 50 sec) 
Heartbeat CPU 1 instructions: 280000000 cycles: 299130099 heartbeat IPC: 0.318855 cumulative IPC: 0.329766 (Simulation time: 1 hr 21 min 42 sec) 
Heartbeat CPU 0 instructions: 480000000 cycles: 301672471 heartbeat IPC: 0.938326 cumulative IPC: 0.939057 (Simulation time: 1 hr 22 min 8 sec) 
Heartbeat CPU 3 instructions: 470000000 cycles: 302230124 heartbeat IPC: 1.23202 cumulative IPC: 1.23149 (Simulation time: 1 hr 22 min 14 sec) 
Heartbeat CPU 3 instructions: 480000000 cycles: 310357747 heartbeat IPC: 1.23037 cumulative IPC: 1.23143 (Simulation time: 1 hr 23 min 37 sec) 
Heartbeat CPU 0 instructions: 490000001 cycles: 312352919 heartbeat IPC: 0.93629 cumulative IPC: 0.938878 (Simulation time: 1 hr 23 min 58 sec) 
Heartbeat CPU 3 instructions: 490000001 cycles: 318481897 heartbeat IPC: 1.2309 cumulative IPC: 1.23141 (Simulation time: 1 hr 25 min 1 sec) 
Heartbeat CPU 0 instructions: 500000000 cycles: 323025258 heartbeat IPC: 0.937002 cumulative IPC: 0.938764 (Simulation time: 1 hr 25 min 47 sec) 
Heartbeat CPU 3 instructions: 500000000 cycles: 326598858 heartbeat IPC: 1.23199 cumulative IPC: 1.23144 (Simulation time: 1 hr 26 min 24 sec) 
Heartbeat CPU 1 instructions: 290000001 cycles: 329464927 heartbeat IPC: 0.329654 cumulative IPC: 0.329748 (Simulation time: 1 hr 26 min 53 sec) 
Heartbeat CPU 2 instructions: 240000000 cycles: 332815398 heartbeat IPC: 0.214921 cumulative IPC: 0.215474 (Simulation time: 1 hr 27 min 27 sec) 
Heartbeat CPU 0 instructions: 510000000 cycles: 333689797 heartbeat IPC: 0.937687 cumulative IPC: 0.938702 (Simulation time: 1 hr 27 min 36 sec) 
Heartbeat CPU 3 instructions: 510000001 cycles: 334735534 heartbeat IPC: 1.229 cumulative IPC: 1.23133 (Simulation time: 1 hr 27 min 46 sec) 
Heartbeat CPU 3 instructions: 520000000 cycles: 342842362 heartbeat IPC: 1.23353 cumulative IPC: 1.23142 (Simulation time: 1 hr 29 min 10 sec) 
Heartbeat CPU 0 instructions: 520000000 cycles: 344372125 heartbeat IPC: 0.936126 cumulative IPC: 0.938563 (Simulation time: 1 hr 29 min 26 sec) 
Heartbeat CPU 3 instructions: 530000002 cycles: 350968762 heartbeat IPC: 1.23056 cumulative IPC: 1.23139 (Simulation time: 1 hr 30 min 34 sec) 
Heartbeat CPU 0 instructions: 530000002 cycles: 355016936 heartbeat IPC: 0.939425 cumulative IPC: 0.938607 (Simulation time: 1 hr 31 min 15 sec) 
Heartbeat CPU 1 instructions: 300000000 cycles: 359021844 heartbeat IPC: 0.33833 cumulative IPC: 0.330945 (Simulation time: 1 hr 32 min 4 sec) 
Heartbeat CPU 3 instructions: 540000000 cycles: 359074443 heartbeat IPC: 1.2337 cumulative IPC: 1.23147 (Simulation time: 1 hr 32 min 4 sec) 
Heartbeat CPU 0 instructions: 540000000 cycles: 365695511 heartbeat IPC: 0.936454 cumulative IPC: 0.938502 (Simulation time: 1 hr 33 min 24 sec) 
Heartbeat CPU 3 instructions: 550000000 cycles: 367173797 heartbeat IPC: 1.23467 cumulative IPC: 1.23159 (Simulation time: 1 hr 33 min 40 sec) 
Heartbeat CPU 3 instructions: 560000000 cycles: 375276393 heartbeat IPC: 1.23417 cumulative IPC: 1.23168 (Simulation time: 1 hr 35 min 8 sec) 
Heartbeat CPU 0 instructions: 550000003 cycles: 376360471 heartbeat IPC: 0.93765 cumulative IPC: 0.938462 (Simulation time: 1 hr 35 min 19 sec) 
Heartbeat CPU 2 instructions: 250000000 cycles: 379185694 heartbeat IPC: 0.215655 cumulative IPC: 0.21551 (Simulation time: 1 hr 35 min 49 sec) 
Heartbeat CPU 3 instructions: 570000003 cycles: 383389309 heartbeat IPC: 1.2326 cumulative IPC: 1.23172 (Simulation time: 1 hr 36 min 36 sec) 
Heartbeat CPU 1 instructions: 310000000 cycles: 385914833 heartbeat IPC: 0.371844 cumulative IPC: 0.335552 (Simulation time: 1 hr 37 min 3 sec) 
Heartbeat CPU 0 instructions: 560000000 cycles: 387037301 heartbeat IPC: 0.936607 cumulative IPC: 0.93838 (Simulation time: 1 hr 37 min 16 sec) 
Heartbeat CPU 3 instructions: 580000000 cycles: 391882497 heartbeat IPC: 1.17741 cumulative IPC: 1.22983 (Simulation time: 1 hr 38 min 6 sec) 
Heartbeat CPU 0 instructions: 570000003 cycles: 397935663 heartbeat IPC: 0.917569 cumulative IPC: 0.937475 (Simulation time: 1 hr 39 min 17 sec) 
Heartbeat CPU 3 instructions: 590000003 cycles: 399984933 heartbeat IPC: 1.2342 cumulative IPC: 1.22997 (Simulation time: 1 hr 39 min 39 sec) 
Heartbeat CPU 3 instructions: 600000000 cycles: 408107938 heartbeat IPC: 1.23107 cumulative IPC: 1.23001 (Simulation time: 1 hr 41 min 5 sec) 
Heartbeat CPU 0 instructions: 580000000 cycles: 408560121 heartbeat IPC: 0.941224 cumulative IPC: 0.937627 (Simulation time: 1 hr 41 min 10 sec) 
Heartbeat CPU 3 instructions: 610000002 cycles: 416226959 heartbeat IPC: 1.23168 cumulative IPC: 1.23006 (Simulation time: 1 hr 42 min 41 sec) 
Heartbeat CPU 1 instructions: 320000000 cycles: 416867082 heartbeat IPC: 0.323078 cumulative IPC: 0.334121 (Simulation time: 1 hr 42 min 48 sec) 
Heartbeat CPU 0 instructions: 590000001 cycles: 419203163 heartbeat IPC: 0.939581 cumulative IPC: 0.937704 (Simulation time: 1 hr 43 min 15 sec) 
Heartbeat CPU 3 instructions: 620000000 cycles: 424376018 heartbeat IPC: 1.22714 cumulative IPC: 1.22997 (Simulation time: 1 hr 44 min 7 sec) 
Heartbeat CPU 2 instructions: 260000000 cycles: 425648338 heartbeat IPC: 0.215227 cumulative IPC: 0.215463 (Simulation time: 1 hr 44 min 20 sec) 
Heartbeat CPU 0 instructions: 600000000 cycles: 429906224 heartbeat IPC: 0.934312 cumulative IPC: 0.937576 (Simulation time: 1 hr 45 min 4 sec) 
Heartbeat CPU 3 instructions: 630000000 cycles: 432507716 heartbeat IPC: 1.22976 cumulative IPC: 1.22996 (Simulation time: 1 hr 45 min 32 sec) 
Heartbeat CPU 0 instructions: 610000003 cycles: 440577808 heartbeat IPC: 0.937068 cumulative IPC: 0.937557 (Simulation time: 1 hr 46 min 55 sec) 
Heartbeat CPU 3 instructions: 640000000 cycles: 440631411 heartbeat IPC: 1.23097 cumulative IPC: 1.22999 (Simulation time: 1 hr 46 min 56 sec) 
Heartbeat CPU 1 instructions: 330000002 cycles: 448367391 heartbeat IPC: 0.317457 cumulative IPC: 0.332378 (Simulation time: 1 hr 48 min 14 sec) 
Heartbeat CPU 3 instructions: 650000002 cycles: 448764714 heartbeat IPC: 1.22951 cumulative IPC: 1.22998 (Simulation time: 1 hr 48 min 18 sec) 
Heartbeat CPU 0 instructions: 620000000 cycles: 451216314 heartbeat IPC: 0.939981 cumulative IPC: 0.937642 (Simulation time: 1 hr 48 min 43 sec) 
Heartbeat CPU 3 instructions: 660000000 cycles: 456892980 heartbeat IPC: 1.23027 cumulative IPC: 1.22999 (Simulation time: 1 hr 49 min 40 sec) 
Heartbeat CPU 0 instructions: 630000000 cycles: 461886951 heartbeat IPC: 0.937151 cumulative IPC: 0.937625 (Simulation time: 1 hr 50 min 31 sec) 
Heartbeat CPU 3 instructions: 670000003 cycles: 465028479 heartbeat IPC: 1.22918 cumulative IPC: 1.22997 (Simulation time: 1 hr 51 min 3 sec) 
Heartbeat CPU 0 instructions: 640000000 cycles: 472528811 heartbeat IPC: 0.939685 cumulative IPC: 0.937693 (Simulation time: 1 hr 52 min 20 sec) 
Heartbeat CPU 2 instructions: 270000000 cycles: 472891137 heartbeat IPC: 0.211672 cumulative IPC: 0.214913 (Simulation time: 1 hr 52 min 24 sec) 
Heartbeat CPU 3 instructions: 680000000 cycles: 473142997 heartbeat IPC: 1.23236 cumulative IPC: 1.23003 (Simulation time: 1 hr 52 min 26 sec) 
Heartbeat CPU 1 instructions: 340000000 cycles: 480383789 heartbeat IPC: 0.31234 cumulative IPC: 0.330452 (Simulation time: 1 hr 53 min 40 sec) 
Heartbeat CPU 3 instructions: 690000002 cycles: 481269816 heartbeat IPC: 1.23049 cumulative IPC: 1.23004 (Simulation time: 1 hr 53 min 50 sec) 
Heartbeat CPU 0 instructions: 650000003 cycles: 483237268 heartbeat IPC: 0.933842 cumulative IPC: 0.93757 (Simulation time: 1 hr 54 min 10 sec) 
Heartbeat CPU 3 instructions: 700000000 cycles: 489404648 heartbeat IPC: 1.22928 cumulative IPC: 1.23002 (Simulation time: 1 hr 55 min 14 sec) 
Heartbeat CPU 0 instructions: 660000000 cycles: 493906678 heartbeat IPC: 0.937259 cumulative IPC: 0.93756 (Simulation time: 1 hr 56 min 0 sec) 
Heartbeat CPU 3 instructions: 710000002 cycles: 497497339 heartbeat IPC: 1.23568 cumulative IPC: 1.23015 (Simulation time: 1 hr 56 min 36 sec) 
Heartbeat CPU 0 instructions: 670000000 cycles: 504547000 heartbeat IPC: 0.939821 cumulative IPC: 0.937628 (Simulation time: 1 hr 57 min 48 sec) 
Heartbeat CPU 3 instructions: 720000000 cycles: 505585400 heartbeat IPC: 1.23639 cumulative IPC: 1.23029 (Simulation time: 1 hr 57 min 59 sec) 
Heartbeat CPU 1 instructions: 350000000 cycles: 510673971 heartbeat IPC: 0.33014 cumulative IPC: 0.330426 (Simulation time: 1 hr 58 min 51 sec) 
Heartbeat CPU 3 instructions: 730000002 cycles: 513719796 heartbeat IPC: 1.22935 cumulative IPC: 1.23027 (Simulation time: 1 hr 59 min 23 sec) 
Heartbeat CPU 0 instructions: 680000000 cycles: 515222919 heartbeat IPC: 0.936688 cumulative IPC: 0.9376 (Simulation time: 1 hr 59 min 38 sec) 
Heartbeat CPU 2 instructions: 280000000 cycles: 519630418 heartbeat IPC: 0.213953 cumulative IPC: 0.214793 (Simulation time: 2 hr 0 min 23 sec) 
Heartbeat CPU 3 instructions: 740000000 cycles: 521815032 heartbeat IPC: 1.23529 cumulative IPC: 1.23038 (Simulation time: 2 hr 0 min 44 sec) 
Heartbeat CPU 0 instructions: 690000001 cycles: 525825645 heartbeat IPC: 0.943154 cumulative IPC: 0.937756 (Simulation time: 2 hr 1 min 26 sec) 
Heartbeat CPU 3 instructions: 750000000 cycles: 529915092 heartbeat IPC: 1.23456 cumulative IPC: 1.23047 (Simulation time: 2 hr 2 min 7 sec) 
Heartbeat CPU 0 instructions: 700000000 cycles: 536479560 heartbeat IPC: 0.938622 cumulative IPC: 0.93778 (Simulation time: 2 hr 3 min 14 sec) 
Heartbeat CPU 3 instructions: 760000000 cycles: 538024864 heartbeat IPC: 1.23308 cumulative IPC: 1.23052 (Simulation time: 2 hr 3 min 30 sec) 
Heartbeat CPU 1 instructions: 360000000 cycles: 542946375 heartbeat IPC: 0.309862 cumulative IPC: 0.32875 (Simulation time: 2 hr 4 min 20 sec) 
Heartbeat CPU 3 instructions: 770000000 cycles: 546172189 heartbeat IPC: 1.2274 cumulative IPC: 1.23046 (Simulation time: 2 hr 4 min 54 sec) 
Heartbeat CPU 0 instructions: 710000002 cycles: 547166869 heartbeat IPC: 0.935689 cumulative IPC: 0.937724 (Simulation time: 2 hr 5 min 4 sec) 
Heartbeat CPU 3 instructions: 780000000 cycles: 554293333 heartbeat IPC: 1.23135 cumulative IPC: 1.23047 (Simulation time: 2 hr 6 min 16 sec) 
Heartbeat CPU 0 instructions: 720000000 cycles: 557815831 heartbeat IPC: 0.939058 cumulative IPC: 0.937758 (Simulation time: 2 hr 6 min 52 sec) 
Heartbeat CPU 3 instructions: 790000001 cycles: 562381224 heartbeat IPC: 1.23642 cumulative IPC: 1.23059 (Simulation time: 2 hr 7 min 38 sec) 
Heartbeat CPU 2 instructions: 290000000 cycles: 566181718 heartbeat IPC: 0.214817 cumulative IPC: 0.214795 (Simulation time: 2 hr 8 min 16 sec) 
Heartbeat CPU 0 instructions: 730000000 cycles: 568416799 heartbeat IPC: 0.94331 cumulative IPC: 0.937898 (Simulation time: 2 hr 8 min 39 sec) 
Heartbeat CPU 3 instructions: 800000000 cycles: 570490386 heartbeat IPC: 1.23317 cumulative IPC: 1.23064 (Simulation time: 2 hr 9 min 0 sec) 
Heartbeat CPU 1 instructions: 370000000 cycles: 573342792 heartbeat IPC: 0.328986 cumulative IPC: 0.328766 (Simulation time: 2 hr 9 min 29 sec) 
Heartbeat CPU 3 instructions: 810000003 cycles: 578585266 heartbeat IPC: 1.23535 cumulative IPC: 1.23073 (Simulation time: 2 hr 10 min 23 sec) 
Heartbeat CPU 0 instructions: 740000000 cycles: 579091863 heartbeat IPC: 0.936763 cumulative IPC: 0.93787 (Simulation time: 2 hr 10 min 28 sec) 
Heartbeat CPU 3 instructions: 820000000 cycles: 586692806 heartbeat IPC: 1.23342 cumulative IPC: 1.23078 (Simulation time: 2 hr 11 min 49 sec) 
Heartbeat CPU 0 instructions: 750000002 cycles: 589725194 heartbeat IPC: 0.940439 cumulative IPC: 0.937932 (Simulation time: 2 hr 12 min 26 sec) 
Heartbeat CPU 3 instructions: 830000001 cycles: 594801273 heartbeat IPC: 1.23328 cumulative IPC: 1.23082 (Simulation time: 2 hr 13 min 31 sec) 
Heartbeat CPU 1 instructions: 380000000 cycles: 598651315 heartbeat IPC: 0.395124 cumulative IPC: 0.332486 (Simulation time: 2 hr 14 min 15 sec) 
Heartbeat CPU 0 instructions: 760000000 cycles: 600409631 heartbeat IPC: 0.935941 cumulative IPC: 0.937885 (Simulation time: 2 hr 14 min 33 sec) 
Heartbeat CPU 3 instructions: 840000000 cycles: 602947761 heartbeat IPC: 1.22752 cumulative IPC: 1.23076 (Simulation time: 2 hr 14 min 59 sec) 
Heartbeat CPU 3 instructions: 850000002 cycles: 611060370 heartbeat IPC: 1.23265 cumulative IPC: 1.2308 (Simulation time: 2 hr 16 min 23 sec) 
Heartbeat CPU 0 instructions: 770000000 cycles: 611178989 heartbeat IPC: 0.92856 cumulative IPC: 0.937668 (Simulation time: 2 hr 16 min 24 sec) 
Heartbeat CPU 2 instructions: 300000000 cycles: 612681220 heartbeat IPC: 0.215056 cumulative IPC: 0.214821 (Simulation time: 2 hr 16 min 40 sec) 
Heartbeat CPU 3 instructions: 860000000 cycles: 619178684 heartbeat IPC: 1.23178 cumulative IPC: 1.23081 (Simulation time: 2 hr 17 min 47 sec) 
Heartbeat CPU 0 instructions: 780000000 cycles: 621864214 heartbeat IPC: 0.935872 cumulative IPC: 0.937628 (Simulation time: 2 hr 18 min 14 sec) 
Heartbeat CPU 1 instructions: 390000000 cycles: 623366655 heartbeat IPC: 0.404607 cumulative IPC: 0.33623 (Simulation time: 2 hr 18 min 30 sec) 
Heartbeat CPU 3 instructions: 870000000 cycles: 627298391 heartbeat IPC: 1.23157 cumulative IPC: 1.23083 (Simulation time: 2 hr 19 min 12 sec) 
Heartbeat CPU 0 instructions: 790000001 cycles: 632537391 heartbeat IPC: 0.936928 cumulative IPC: 0.937613 (Simulation time: 2 hr 20 min 6 sec) 
Heartbeat CPU 3 instructions: 880000000 cycles: 635401473 heartbeat IPC: 1.2341 cumulative IPC: 1.23088 (Simulation time: 2 hr 20 min 35 sec) 
Heartbeat CPU 0 instructions: 800000000 cycles: 643143105 heartbeat IPC: 0.942888 cumulative IPC: 0.937725 (Simulation time: 2 hr 21 min 55 sec) 
Heartbeat CPU 3 instructions: 890000003 cycles: 643496583 heartbeat IPC: 1.23531 cumulative IPC: 1.23095 (Simulation time: 2 hr 21 min 59 sec) 
Heartbeat CPU 3 instructions: 900000000 cycles: 651595120 heartbeat IPC: 1.23479 cumulative IPC: 1.23102 (Simulation time: 2 hr 23 min 21 sec) 
Heartbeat CPU 0 instructions: 810000001 cycles: 653840685 heartbeat IPC: 0.934791 cumulative IPC: 0.937663 (Simulation time: 2 hr 23 min 44 sec) 
Heartbeat CPU 1 instructions: 400000000 cycles: 654314388 heartbeat IPC: 0.323125 cumulative IPC: 0.33543 (Simulation time: 2 hr 23 min 49 sec) 
Heartbeat CPU 2 instructions: 310000000 cycles: 658648426 heartbeat IPC: 0.217546 cumulative IPC: 0.215066 (Simulation time: 2 hr 24 min 33 sec) 
Heartbeat CPU 3 instructions: 910000001 cycles: 659705812 heartbeat IPC: 1.23294 cumulative IPC: 1.23105 (Simulation time: 2 hr 24 min 44 sec) 
Heartbeat CPU 0 instructions: 820000000 cycles: 664479907 heartbeat IPC: 0.939918 cumulative IPC: 0.93771 (Simulation time: 2 hr 25 min 34 sec) 
Heartbeat CPU 3 instructions: 920000000 cycles: 667806993 heartbeat IPC: 1.23439 cumulative IPC: 1.2311 (Simulation time: 2 hr 26 min 8 sec) 
Heartbeat CPU 0 instructions: 830000003 cycles: 675155266 heartbeat IPC: 0.936737 cumulative IPC: 0.93769 (Simulation time: 2 hr 27 min 24 sec) 
Heartbeat CPU 3 instructions: 930000003 cycles: 675937906 heartbeat IPC: 1.22987 cumulative IPC: 1.23108 (Simulation time: 2 hr 27 min 32 sec) 
Heartbeat CPU 3 instructions: 940000000 cycles: 684040970 heartbeat IPC: 1.2341 cumulative IPC: 1.23112 (Simulation time: 2 hr 28 min 56 sec) 
Heartbeat CPU 1 instructions: 410000000 cycles: 684613565 heartbeat IPC: 0.330042 cumulative IPC: 0.335126 (Simulation time: 2 hr 29 min 2 sec) 
Heartbeat CPU 0 instructions: 840000000 cycles: 685793649 heartbeat IPC: 0.939992 cumulative IPC: 0.937736 (Simulation time: 2 hr 29 min 15 sec) 
Heartbeat CPU 3 instructions: 950000001 cycles: 692131774 heartbeat IPC: 1.23597 cumulative IPC: 1.2312 (Simulation time: 2 hr 30 min 21 sec) 
Heartbeat CPU 0 instructions: 850000001 cycles: 696422902 heartbeat IPC: 0.9408 cumulative IPC: 0.937795 (Simulation time: 2 hr 31 min 6 sec) 
Heartbeat CPU 3 instructions: 960000000 cycles: 700218030 heartbeat IPC: 1.23667 cumulative IPC: 1.23128 (Simulation time: 2 hr 31 min 45 sec) 
Heartbeat CPU 2 instructions: 320000000 cycles: 705031693 heartbeat IPC: 0.215595 cumulative IPC: 0.21511 (Simulation time: 2 hr 32 min 37 sec) 
Heartbeat CPU 0 instructions: 860000000 cycles: 707063057 heartbeat IPC: 0.939836 cumulative IPC: 0.937834 (Simulation time: 2 hr 32 min 58 sec) 
Heartbeat CPU 3 instructions: 970000002 cycles: 708338246 heartbeat IPC: 1.23149 cumulative IPC: 1.23128 (Simulation time: 2 hr 33 min 10 sec) 
Heartbeat CPU 1 instructions: 420000000 cycles: 712861409 heartbeat IPC: 0.354009 cumulative IPC: 0.336069 (Simulation time: 2 hr 33 min 55 sec) 
Heartbeat CPU 3 instructions: 980000000 cycles: 716466767 heartbeat IPC: 1.23024 cumulative IPC: 1.23126 (Simulation time: 2 hr 34 min 39 sec) 
Heartbeat CPU 0 instructions: 870000000 cycles: 717758127 heartbeat IPC: 0.93501 cumulative IPC: 0.937781 (Simulation time: 2 hr 34 min 53 sec) 
Heartbeat CPU 3 instructions: 990000001 cycles: 724583595 heartbeat IPC: 1.23201 cumulative IPC: 1.23128 (Simulation time: 2 hr 36 min 10 sec) 
Heartbeat CPU 0 instructions: 880000000 cycles: 728395784 heartbeat IPC: 0.940057 cumulative IPC: 0.937822 (Simulation time: 2 hr 36 min 52 sec) 
Heartbeat CPU 3 instructions: 1000000000 cycles: 732698920 heartbeat IPC: 1.23224 cumulative IPC: 1.23129 (Simulation time: 2 hr 37 min 38 sec) 
Heartbeat CPU 0 instructions: 890000003 cycles: 739031319 heartbeat IPC: 0.940244 cumulative IPC: 0.937866 (Simulation time: 2 hr 38 min 43 sec) 
Heartbeat CPU 3 instructions: 1010000003 cycles: 740846156 heartbeat IPC: 1.22741 cumulative IPC: 1.23124 (Simulation time: 2 hr 39 min 1 sec) 
Heartbeat CPU 1 instructions: 430000000 cycles: 744391024 heartbeat IPC: 0.317162 cumulative IPC: 0.335071 (Simulation time: 2 hr 39 min 40 sec) 
Heartbeat CPU 3 instructions: 1020000000 cycles: 748958108 heartbeat IPC: 1.23275 cumulative IPC: 1.23126 (Simulation time: 2 hr 40 min 38 sec) 
Heartbeat CPU 0 instructions: 900000000 cycles: 749718521 heartbeat IPC: 0.935698 cumulative IPC: 0.937827 (Simulation time: 2 hr 40 min 46 sec) 
Heartbeat CPU 2 instructions: 330000000 cycles: 751826196 heartbeat IPC: 0.2137 cumulative IPC: 0.215001 (Simulation time: 2 hr 41 min 8 sec) 
Heartbeat CPU 3 instructions: 1030000002 cycles: 757074301 heartbeat IPC: 1.23211 cumulative IPC: 1.23127 (Simulation time: 2 hr 42 min 8 sec) 
Heartbeat CPU 0 instructions: 910000001 cycles: 760353956 heartbeat IPC: 0.940253 cumulative IPC: 0.93787 (Simulation time: 2 hr 42 min 42 sec) 
Heartbeat CPU 3 instructions: 1040000000 cycles: 765181822 heartbeat IPC: 1.23342 cumulative IPC: 1.2313 (Simulation time: 2 hr 43 min 35 sec) 
Heartbeat CPU 0 instructions: 920000000 cycles: 770986626 heartbeat IPC: 0.940497 cumulative IPC: 0.937914 (Simulation time: 2 hr 44 min 37 sec) 
Heartbeat CPU 1 instructions: 440000000 cycles: 772452957 heartbeat IPC: 0.356355 cumulative IPC: 0.336026 (Simulation time: 2 hr 44 min 52 sec) 
Heartbeat CPU 3 instructions: 1050000002 cycles: 773274144 heartbeat IPC: 1.23574 cumulative IPC: 1.23135 (Simulation time: 2 hr 45 min 1 sec) 
Heartbeat CPU 3 instructions: 1060000000 cycles: 781398588 heartbeat IPC: 1.23085 cumulative IPC: 1.23135 (Simulation time: 2 hr 46 min 24 sec) 
Heartbeat CPU 0 instructions: 930000000 cycles: 781643072 heartbeat IPC: 0.938399 cumulative IPC: 0.937922 (Simulation time: 2 hr 46 min 27 sec) 
Heartbeat CPU 3 instructions: 1070000000 cycles: 789510237 heartbeat IPC: 1.2328 cumulative IPC: 1.23136 (Simulation time: 2 hr 47 min 48 sec) 
Heartbeat CPU 0 instructions: 940000000 cycles: 792318708 heartbeat IPC: 0.936712 cumulative IPC: 0.937902 (Simulation time: 2 hr 48 min 17 sec) 
Heartbeat CPU 3 instructions: 1080000000 cycles: 797640384 heartbeat IPC: 1.22999 cumulative IPC: 1.23135 (Simulation time: 2 hr 49 min 12 sec) 
Heartbeat CPU 2 instructions: 340000000 cycles: 798459354 heartbeat IPC: 0.21444 cumulative IPC: 0.214961 (Simulation time: 2 hr 49 min 20 sec) 
Heartbeat CPU 1 instructions: 450000000 cycles: 801993811 heartbeat IPC: 0.338514 cumulative IPC: 0.336138 (Simulation time: 2 hr 49 min 56 sec) 
Heartbeat CPU 0 instructions: 950000002 cycles: 802980098 heartbeat IPC: 0.937964 cumulative IPC: 0.937903 (Simulation time: 2 hr 50 min 6 sec) 
Heartbeat CPU 3 instructions: 1090000003 cycles: 805754469 heartbeat IPC: 1.23243 cumulative IPC: 1.23136 (Simulation time: 2 hr 50 min 35 sec) 
Heartbeat CPU 0 instructions: 960000000 cycles: 813609677 heartbeat IPC: 0.940771 cumulative IPC: 0.937949 (Simulation time: 2 hr 51 min 55 sec) 
Heartbeat CPU 3 instructions: 1100000000 cycles: 813878106 heartbeat IPC: 1.23098 cumulative IPC: 1.23136 (Simulation time: 2 hr 51 min 58 sec) 
Heartbeat CPU 3 instructions: 1110000001 cycles: 822016215 heartbeat IPC: 1.22879 cumulative IPC: 1.23132 (Simulation time: 2 hr 53 min 22 sec) 
Heartbeat CPU 0 instructions: 970000000 cycles: 824322719 heartbeat IPC: 0.933442 cumulative IPC: 0.937878 (Simulation time: 2 hr 53 min 47 sec) 
Heartbeat CPU 1 instructions: 460000000 cycles: 828846930 heartbeat IPC: 0.372396 cumulative IPC: 0.337567 (Simulation time: 2 hr 54 min 34 sec) 
Heartbeat CPU 3 instructions: 1120000000 cycles: 830127063 heartbeat IPC: 1.23292 cumulative IPC: 1.23134 (Simulation time: 2 hr 54 min 47 sec) 
Heartbeat CPU 0 instructions: 980000000 cycles: 835008379 heartbeat IPC: 0.935834 cumulative IPC: 0.937846 (Simulation time: 2 hr 55 min 37 sec) 
Heartbeat CPU 3 instructions: 1130000003 cycles: 838238091 heartbeat IPC: 1.23289 cumulative IPC: 1.23136 (Simulation time: 2 hr 56 min 10 sec) 
Heartbeat CPU 0 instructions: 990000000 cycles: 845624793 heartbeat IPC: 0.941938 cumulative IPC: 0.937908 (Simulation time: 2 hr 57 min 22 sec) 
Heartbeat CPU 2 instructions: 350000001 cycles: 845673227 heartbeat IPC: 0.211802 cumulative IPC: 0.214747 (Simulation time: 2 hr 57 min 22 sec) 
Heartbeat CPU 3 instructions: 1140000000 cycles: 846352339 heartbeat IPC: 1.2324 cumulative IPC: 1.23137 (Simulation time: 2 hr 57 min 29 sec) 
Heartbeat CPU 3 instructions: 1150000000 cycles: 854476496 heartbeat IPC: 1.2309 cumulative IPC: 1.23137 (Simulation time: 2 hr 58 min 48 sec) 
Heartbeat CPU 0 instructions: 1000000000 cycles: 856287052 heartbeat IPC: 0.937888 cumulative IPC: 0.937908 (Simulation time: 2 hr 59 min 5 sec) 
Heartbeat CPU 1 instructions: 470000000 cycles: 858714940 heartbeat IPC: 0.334806 cumulative IPC: 0.337451 (Simulation time: 2 hr 59 min 28 sec) 
Heartbeat CPU 3 instructions: 1160000000 cycles: 862591216 heartbeat IPC: 1.23233 cumulative IPC: 1.23138 (Simulation time: 3 hr 0 min 5 sec) 
Heartbeat CPU 0 instructions: 1010000001 cycles: 866952835 heartbeat IPC: 0.937578 cumulative IPC: 0.937903 (Simulation time: 3 hr 0 min 47 sec) 
Heartbeat CPU 3 instructions: 1170000003 cycles: 870715136 heartbeat IPC: 1.23093 cumulative IPC: 1.23137 (Simulation time: 3 hr 1 min 25 sec) 
Heartbeat CPU 0 instructions: 1020000000 cycles: 877594818 heartbeat IPC: 0.939674 cumulative IPC: 0.937929 (Simulation time: 3 hr 2 min 31 sec) 
Heartbeat CPU 3 instructions: 1180000000 cycles: 878816487 heartbeat IPC: 1.23436 cumulative IPC: 1.23141 (Simulation time: 3 hr 2 min 43 sec) 
Heartbeat CPU 3 instructions: 1190000001 cycles: 886921837 heartbeat IPC: 1.23375 cumulative IPC: 1.23143 (Simulation time: 3 hr 4 min 2 sec) 
Heartbeat CPU 0 instructions: 1030000003 cycles: 888227691 heartbeat IPC: 0.94048 cumulative IPC: 0.937966 (Simulation time: 3 hr 4 min 15 sec) 
Heartbeat CPU 1 instructions: 480000000 cycles: 889983018 heartbeat IPC: 0.319815 cumulative IPC: 0.336708 (Simulation time: 3 hr 4 min 32 sec) 
Heartbeat CPU 2 instructions: 360000000 cycles: 892381045 heartbeat IPC: 0.214097 cumulative IPC: 0.214707 (Simulation time: 3 hr 4 min 56 sec) 
Heartbeat CPU 3 instructions: 1200000000 cycles: 895028279 heartbeat IPC: 1.23359 cumulative IPC: 1.23146 (Simulation time: 3 hr 5 min 23 sec) 
Heartbeat CPU 0 instructions: 1040000000 cycles: 898873719 heartbeat IPC: 0.939317 cumulative IPC: 0.937985 (Simulation time: 3 hr 6 min 5 sec) 
Heartbeat CPU 3 instructions: 1210000003 cycles: 903130765 heartbeat IPC: 1.23419 cumulative IPC: 1.23149 (Simulation time: 3 hr 6 min 49 sec) 
Heartbeat CPU 0 instructions: 1050000000 cycles: 909510503 heartbeat IPC: 0.940134 cumulative IPC: 0.938015 (Simulation time: 3 hr 7 min 50 sec) 
Heartbeat CPU 3 instructions: 1220000000 cycles: 911211783 heartbeat IPC: 1.23747 cumulative IPC: 1.23155 (Simulation time: 3 hr 8 min 7 sec) 
Heartbeat CPU 3 instructions: 1230000002 cycles: 919313246 heartbeat IPC: 1.23435 cumulative IPC: 1.23158 (Simulation time: 3 hr 9 min 27 sec) 
Heartbeat CPU 0 instructions: 1060000000 cycles: 920159246 heartbeat IPC: 0.939078 cumulative IPC: 0.938029 (Simulation time: 3 hr 9 min 36 sec) 
Heartbeat CPU 1 instructions: 490000000 cycles: 920529350 heartbeat IPC: 0.327372 cumulative IPC: 0.33634 (Simulation time: 3 hr 9 min 40 sec) 
Heartbeat CPU 3 instructions: 1240000000 cycles: 927415011 heartbeat IPC: 1.2343 cumulative IPC: 1.23161 (Simulation time: 3 hr 10 min 52 sec) 
Heartbeat CPU 0 instructions: 1070000002 cycles: 930773171 heartbeat IPC: 0.942159 cumulative IPC: 0.938085 (Simulation time: 3 hr 11 min 26 sec) 
Heartbeat CPU 3 instructions: 1250000002 cycles: 935504137 heartbeat IPC: 1.23623 cumulative IPC: 1.23165 (Simulation time: 3 hr 12 min 14 sec) 
Heartbeat CPU 2 instructions: 370000001 cycles: 938500247 heartbeat IPC: 0.216829 cumulative IPC: 0.21483 (Simulation time: 3 hr 12 min 45 sec) 
Heartbeat CPU 0 instructions: 1080000000 cycles: 941407603 heartbeat IPC: 0.940342 cumulative IPC: 0.938115 (Simulation time: 3 hr 13 min 14 sec) 
Heartbeat CPU 3 instructions: 1260000000 cycles: 943620557 heartbeat IPC: 1.23207 cumulative IPC: 1.23166 (Simulation time: 3 hr 13 min 37 sec) 
Heartbeat CPU 1 instructions: 500000000 cycles: 951197436 heartbeat IPC: 0.326072 cumulative IPC: 0.335948 (Simulation time: 3 hr 14 min 58 sec) 
Heartbeat CPU 3 instructions: 1270000000 cycles: 951706700 heartbeat IPC: 1.23668 cumulative IPC: 1.23171 (Simulation time: 3 hr 15 min 3 sec) 
Heartbeat CPU 0 instructions: 1090000000 cycles: 952035600 heartbeat IPC: 0.940911 cumulative IPC: 0.938152 (Simulation time: 3 hr 15 min 7 sec) 
Finished CPU 3 instructions: 1000000001 cycles: 811850792 cumulative IPC: 1.23175 (Simulation time: 3 hr 16 min 19 sec) 
Heartbeat CPU 3 instructions: 1280000000 cycles: 959796900 heartbeat IPC: 1.23606 cumulative IPC: 1.23175 (Simulation time: 3 hr 16 min 27 sec) 
Heartbeat CPU 0 instructions: 1100000000 cycles: 962640034 heartbeat IPC: 0.943002 cumulative IPC: 0.938215 (Simulation time: 3 hr 16 min 56 sec) 
Heartbeat CPU 3 instructions: 1290000000 cycles: 967920835 heartbeat IPC: 1.23093 cumulative IPC: 1.23174 (Simulation time: 3 hr 17 min 51 sec) 
Heartbeat CPU 0 instructions: 1110000003 cycles: 973240989 heartbeat IPC: 0.943312 cumulative IPC: 0.938281 (Simulation time: 3 hr 18 min 47 sec) 
Heartbeat CPU 3 instructions: 1300000000 cycles: 976091245 heartbeat IPC: 1.22393 cumulative IPC: 1.23167 (Simulation time: 3 hr 19 min 17 sec) 
Heartbeat CPU 1 instructions: 510000000 cycles: 977594195 heartbeat IPC: 0.378834 cumulative IPC: 0.337311 (Simulation time: 3 hr 19 min 32 sec) 
Heartbeat CPU 0 instructions: 1120000000 cycles: 983907362 heartbeat IPC: 0.937526 cumulative IPC: 0.938271 (Simulation time: 3 hr 20 min 36 sec) 
Heartbeat CPU 3 instructions: 1310000002 cycles: 984208816 heartbeat IPC: 1.2319 cumulative IPC: 1.23167 (Simulation time: 3 hr 20 min 39 sec) 
Heartbeat CPU 2 instructions: 380000000 cycles: 984840072 heartbeat IPC: 0.215797 cumulative IPC: 0.214884 (Simulation time: 3 hr 20 min 46 sec) 
Heartbeat CPU 3 instructions: 1320000000 cycles: 992311800 heartbeat IPC: 1.23411 cumulative IPC: 1.23169 (Simulation time: 3 hr 22 min 4 sec) 
Heartbeat CPU 0 instructions: 1130000002 cycles: 994582963 heartbeat IPC: 0.936716 cumulative IPC: 0.938252 (Simulation time: 3 hr 22 min 28 sec) 
Heartbeat CPU 3 instructions: 1330000003 cycles: 1000431849 heartbeat IPC: 1.23152 cumulative IPC: 1.23169 (Simulation time: 3 hr 23 min 29 sec) 
Heartbeat CPU 1 instructions: 520000000 cycles: 1003608609 heartbeat IPC: 0.384402 cumulative IPC: 0.338742 (Simulation time: 3 hr 24 min 1 sec) 
Heartbeat CPU 0 instructions: 1140000000 cycles: 1005200439 heartbeat IPC: 0.941843 cumulative IPC: 0.938296 (Simulation time: 3 hr 24 min 18 sec) 
Heartbeat CPU 3 instructions: 1340000000 cycles: 1008521012 heartbeat IPC: 1.23622 cumulative IPC: 1.23173 (Simulation time: 3 hr 24 min 51 sec) 
Heartbeat CPU 0 instructions: 1150000000 cycles: 1015880074 heartbeat IPC: 0.936362 cumulative IPC: 0.938272 (Simulation time: 3 hr 26 min 6 sec) 
Heartbeat CPU 3 instructions: 1350000001 cycles: 1016616738 heartbeat IPC: 1.23522 cumulative IPC: 1.23177 (Simulation time: 3 hr 26 min 14 sec) 
Heartbeat CPU 3 instructions: 1360000000 cycles: 1024714849 heartbeat IPC: 1.23486 cumulative IPC: 1.23179 (Simulation time: 3 hr 27 min 37 sec) 
Heartbeat CPU 0 instructions: 1160000000 cycles: 1026760131 heartbeat IPC: 0.919113 cumulative IPC: 0.938035 (Simulation time: 3 hr 27 min 56 sec) 
Heartbeat CPU 2 instructions: 390000002 cycles: 1031032104 heartbeat IPC: 0.216488 cumulative IPC: 0.214968 (Simulation time: 3 hr 28 min 39 sec) 
Heartbeat CPU 3 instructions: 1370000000 cycles: 1033212861 heartbeat IPC: 1.17675 cumulative IPC: 1.23127 (Simulation time: 3 hr 29 min 2 sec) 
Heartbeat CPU 1 instructions: 530000001 cycles: 1034088979 heartbeat IPC: 0.32808 cumulative IPC: 0.338375 (Simulation time: 3 hr 29 min 11 sec) 
Heartbeat CPU 0 instructions: 1170000002 cycles: 1037396295 heartbeat IPC: 0.940189 cumulative IPC: 0.938061 (Simulation time: 3 hr 29 min 46 sec) 
Heartbeat CPU 3 instructions: 1380000000 cycles: 1041299401 heartbeat IPC: 1.23662 cumulative IPC: 1.23132 (Simulation time: 3 hr 30 min 26 sec) 
Heartbeat CPU 0 instructions: 1180000000 cycles: 1048018721 heartbeat IPC: 0.941404 cumulative IPC: 0.9381 (Simulation time: 3 hr 31 min 37 sec) 
Heartbeat CPU 3 instructions: 1390000001 cycles: 1049383926 heartbeat IPC: 1.23693 cumulative IPC: 1.23137 (Simulation time: 3 hr 31 min 51 sec) 
Heartbeat CPU 3 instructions: 1400000000 cycles: 1057512221 heartbeat IPC: 1.23027 cumulative IPC: 1.23136 (Simulation time: 3 hr 33 min 13 sec) 
Heartbeat CPU 0 instructions: 1190000000 cycles: 1058749754 heartbeat IPC: 0.931877 cumulative IPC: 0.938027 (Simulation time: 3 hr 33 min 26 sec) 
Heartbeat CPU 1 instructions: 540000000 cycles: 1062726703 heartbeat IPC: 0.34919 cumulative IPC: 0.338713 (Simulation time: 3 hr 34 min 6 sec) 
Heartbeat CPU 3 instructions: 1410000003 cycles: 1065642224 heartbeat IPC: 1.23001 cumulative IPC: 1.23134 (Simulation time: 3 hr 34 min 36 sec) 
Heartbeat CPU 0 instructions: 1200000000 cycles: 1069405058 heartbeat IPC: 0.9385 cumulative IPC: 0.938033 (Simulation time: 3 hr 35 min 15 sec) 
Heartbeat CPU 3 instructions: 1420000000 cycles: 1073749207 heartbeat IPC: 1.2335 cumulative IPC: 1.23136 (Simulation time: 3 hr 35 min 59 sec) 
Heartbeat CPU 2 instructions: 400000000 cycles: 1077953094 heartbeat IPC: 0.213124 cumulative IPC: 0.214875 (Simulation time: 3 hr 36 min 41 sec) 
Heartbeat CPU 0 instructions: 1210000002 cycles: 1080059254 heartbeat IPC: 0.938598 cumulative IPC: 0.938039 (Simulation time: 3 hr 37 min 2 sec) 
Heartbeat CPU 3 instructions: 1430000001 cycles: 1081842125 heartbeat IPC: 1.23565 cumulative IPC: 1.2314 (Simulation time: 3 hr 37 min 20 sec) 
Heartbeat CPU 3 instructions: 1440000000 cycles: 1089956084 heartbeat IPC: 1.23244 cumulative IPC: 1.23141 (Simulation time: 3 hr 38 min 40 sec) 
Heartbeat CPU 0 instructions: 1220000000 cycles: 1090734218 heartbeat IPC: 0.936771 cumulative IPC: 0.938025 (Simulation time: 3 hr 38 min 47 sec) 
Heartbeat CPU 1 instructions: 550000000 cycles: 1093313785 heartbeat IPC: 0.326935 cumulative IPC: 0.338333 (Simulation time: 3 hr 39 min 12 sec) 
Heartbeat CPU 3 instructions: 1450000003 cycles: 1098064692 heartbeat IPC: 1.23326 cumulative IPC: 1.23142 (Simulation time: 3 hr 39 min 58 sec) 
Heartbeat CPU 0 instructions: 1230000001 cycles: 1101440679 heartbeat IPC: 0.934016 cumulative IPC: 0.93798 (Simulation time: 3 hr 40 min 31 sec) 
Heartbeat CPU 3 instructions: 1460000000 cycles: 1106181138 heartbeat IPC: 1.23207 cumulative IPC: 1.23143 (Simulation time: 3 hr 41 min 17 sec) 
Heartbeat CPU 0 instructions: 1240000000 cycles: 1112153164 heartbeat IPC: 0.93349 cumulative IPC: 0.93793 (Simulation time: 3 hr 42 min 14 sec) 
Heartbeat CPU 3 instructions: 1470000001 cycles: 1114454195 heartbeat IPC: 1.20874 cumulative IPC: 1.23124 (Simulation time: 3 hr 42 min 37 sec) 
Heartbeat CPU 1 instructions: 560000000 cycles: 1116220144 heartbeat IPC: 0.43656 cumulative IPC: 0.340655 (Simulation time: 3 hr 42 min 54 sec) 
Heartbeat CPU 3 instructions: 1480000000 cycles: 1122574385 heartbeat IPC: 1.2315 cumulative IPC: 1.23124 (Simulation time: 3 hr 43 min 55 sec) 
Heartbeat CPU 0 instructions: 1250000003 cycles: 1122820295 heartbeat IPC: 0.937459 cumulative IPC: 0.937925 (Simulation time: 3 hr 43 min 57 sec) 
Heartbeat CPU 2 instructions: 410000000 cycles: 1124691432 heartbeat IPC: 0.213957 cumulative IPC: 0.214831 (Simulation time: 3 hr 44 min 16 sec) 
Heartbeat CPU 3 instructions: 1490000000 cycles: 1130678456 heartbeat IPC: 1.23395 cumulative IPC: 1.23126 (Simulation time: 3 hr 45 min 14 sec) 
Heartbeat CPU 0 instructions: 1260000000 cycles: 1133464979 heartbeat IPC: 0.939436 cumulative IPC: 0.937941 (Simulation time: 3 hr 45 min 41 sec) 
Heartbeat CPU 3 instructions: 1500000000 cycles: 1138783349 heartbeat IPC: 1.23382 cumulative IPC: 1.23128 (Simulation time: 3 hr 46 min 31 sec) 
Heartbeat CPU 0 instructions: 1270000001 cycles: 1144097498 heartbeat IPC: 0.940511 cumulative IPC: 0.937968 (Simulation time: 3 hr 47 min 23 sec) 
Heartbeat CPU 1 instructions: 570000001 cycles: 1144168594 heartbeat IPC: 0.357802 cumulative IPC: 0.341135 (Simulation time: 3 hr 47 min 24 sec) 
Heartbeat CPU 3 instructions: 1510000003 cycles: 1146894400 heartbeat IPC: 1.23289 cumulative IPC: 1.23129 (Simulation time: 3 hr 47 min 50 sec) 
Heartbeat CPU 0 instructions: 1280000000 cycles: 1154770705 heartbeat IPC: 0.936925 cumulative IPC: 0.937957 (Simulation time: 3 hr 49 min 7 sec) 
Heartbeat CPU 3 instructions: 1520000000 cycles: 1154996922 heartbeat IPC: 1.23418 cumulative IPC: 1.23132 (Simulation time: 3 hr 49 min 9 sec) 
Heartbeat CPU 3 instructions: 1530000003 cycles: 1163097677 heartbeat IPC: 1.23445 cumulative IPC: 1.23134 (Simulation time: 3 hr 50 min 28 sec) 
Heartbeat CPU 0 instructions: 1290000003 cycles: 1165436959 heartbeat IPC: 0.937537 cumulative IPC: 0.937953 (Simulation time: 3 hr 50 min 50 sec) 
Heartbeat CPU 2 instructions: 420000000 cycles: 1170702959 heartbeat IPC: 0.217337 cumulative IPC: 0.214944 (Simulation time: 3 hr 51 min 41 sec) 
Heartbeat CPU 3 instructions: 1540000000 cycles: 1171207381 heartbeat IPC: 1.23309 cumulative IPC: 1.23136 (Simulation time: 3 hr 51 min 46 sec) 
Heartbeat CPU 0 instructions: 1300000000 cycles: 1176095263 heartbeat IPC: 0.938235 cumulative IPC: 0.937956 (Simulation time: 3 hr 52 min 33 sec) 
Heartbeat CPU 1 instructions: 580000000 cycles: 1176592793 heartbeat IPC: 0.308412 cumulative IPC: 0.340105 (Simulation time: 3 hr 52 min 37 sec) 
Heartbeat CPU 3 instructions: 1550000001 cycles: 1179293387 heartbeat IPC: 1.2367 cumulative IPC: 1.2314 (Simulation time: 3 hr 53 min 4 sec) 
Heartbeat CPU 0 instructions: 1310000000 cycles: 1186764823 heartbeat IPC: 0.937246 cumulative IPC: 0.937949 (Simulation time: 3 hr 54 min 18 sec) 
Heartbeat CPU 3 instructions: 1560000000 cycles: 1187400939 heartbeat IPC: 1.23342 cumulative IPC: 1.23141 (Simulation time: 3 hr 54 min 24 sec) 
Heartbeat CPU 3 instructions: 1570000000 cycles: 1195502777 heartbeat IPC: 1.23429 cumulative IPC: 1.23144 (Simulation time: 3 hr 55 min 42 sec) 
Heartbeat CPU 0 instructions: 1320000000 cycles: 1197412960 heartbeat IPC: 0.939131 cumulative IPC: 0.937961 (Simulation time: 3 hr 56 min 0 sec) 
Heartbeat CPU 3 instructions: 1580000000 cycles: 1203593858 heartbeat IPC: 1.23593 cumulative IPC: 1.23147 (Simulation time: 3 hr 57 min 0 sec) 
Heartbeat CPU 1 instructions: 590000000 cycles: 1207862483 heartbeat IPC: 0.319798 cumulative IPC: 0.339506 (Simulation time: 3 hr 57 min 41 sec) 
Heartbeat CPU 0 instructions: 1330000001 cycles: 1208088259 heartbeat IPC: 0.936742 cumulative IPC: 0.937948 (Simulation time: 3 hr 57 min 44 sec) 
Heartbeat CPU 3 instructions: 1590000000 cycles: 1211709294 heartbeat IPC: 1.23222 cumulative IPC: 1.23148 (Simulation time: 3 hr 58 min 19 sec) 
Finished CPU 0 instructions: 1000000002 cycles: 1066140047 cumulative IPC: 0.937963 (Simulation time: 3 hr 58 min 35 sec) 
Heartbeat CPU 2 instructions: 430000000 cycles: 1217473316 heartbeat IPC: 0.213811 cumulative IPC: 0.214894 (Simulation time: 3 hr 59 min 15 sec) 
Heartbeat CPU 0 instructions: 1340000000 cycles: 1218713814 heartbeat IPC: 0.941127 cumulative IPC: 0.93798 (Simulation time: 3 hr 59 min 27 sec) 
Heartbeat CPU 3 instructions: 1600000000 cycles: 1219801942 heartbeat IPC: 1.23569 cumulative IPC: 1.23151 (Simulation time: 3 hr 59 min 37 sec) 
Heartbeat CPU 3 instructions: 1610000003 cycles: 1227912180 heartbeat IPC: 1.23301 cumulative IPC: 1.23152 (Simulation time: 4 hr 0 min 56 sec) 
Heartbeat CPU 0 instructions: 1350000001 cycles: 1229385750 heartbeat IPC: 0.937037 cumulative IPC: 0.937971 (Simulation time: 4 hr 1 min 10 sec) 
Heartbeat CPU 3 instructions: 1620000000 cycles: 1236043625 heartbeat IPC: 1.22979 cumulative IPC: 1.23151 (Simulation time: 4 hr 2 min 15 sec) 
Heartbeat CPU 1 instructions: 600000000 cycles: 1238519909 heartbeat IPC: 0.326185 cumulative IPC: 0.339132 (Simulation time: 4 hr 2 min 39 sec) 
Heartbeat CPU 0 instructions: 1360000000 cycles: 1239996049 heartbeat IPC: 0.94248 cumulative IPC: 0.938014 (Simulation time: 4 hr 2 min 53 sec) 
Heartbeat CPU 3 instructions: 1630000001 cycles: 1244136406 heartbeat IPC: 1.23567 cumulative IPC: 1.23154 (Simulation time: 4 hr 3 min 33 sec) 
Heartbeat CPU 0 instructions: 1370000001 cycles: 1250646858 heartbeat IPC: 0.938896 cumulative IPC: 0.938023 (Simulation time: 4 hr 4 min 35 sec) 
Heartbeat CPU 3 instructions: 1640000000 cycles: 1252258484 heartbeat IPC: 1.23121 cumulative IPC: 1.23153 (Simulation time: 4 hr 4 min 51 sec) 
Heartbeat CPU 3 instructions: 1650000000 cycles: 1260368587 heartbeat IPC: 1.23303 cumulative IPC: 1.23155 (Simulation time: 4 hr 6 min 9 sec) 
Heartbeat CPU 0 instructions: 1380000000 cycles: 1261304480 heartbeat IPC: 0.938296 cumulative IPC: 0.938026 (Simulation time: 4 hr 6 min 18 sec) 
Heartbeat CPU 2 instructions: 440000000 cycles: 1263454111 heartbeat IPC: 0.217482 cumulative IPC: 0.215001 (Simulation time: 4 hr 6 min 39 sec) 
Heartbeat CPU 3 instructions: 1660000000 cycles: 1268445128 heartbeat IPC: 1.23815 cumulative IPC: 1.23159 (Simulation time: 4 hr 7 min 27 sec) 
Heartbeat CPU 1 instructions: 610000000 cycles: 1270418740 heartbeat IPC: 0.313491 cumulative IPC: 0.338404 (Simulation time: 4 hr 7 min 45 sec) 
Heartbeat CPU 0 instructions: 1390000002 cycles: 1271915031 heartbeat IPC: 0.942458 cumulative IPC: 0.938067 (Simulation time: 4 hr 8 min 0 sec) 
Heartbeat CPU 3 instructions: 1670000002 cycles: 1276558758 heartbeat IPC: 1.23249 cumulative IPC: 1.2316 (Simulation time: 4 hr 8 min 45 sec) 
Heartbeat CPU 0 instructions: 1400000000 cycles: 1282577064 heartbeat IPC: 0.937907 cumulative IPC: 0.938066 (Simulation time: 4 hr 9 min 44 sec) 
Heartbeat CPU 3 instructions: 1680000000 cycles: 1284670875 heartbeat IPC: 1.23272 cumulative IPC: 1.23161 (Simulation time: 4 hr 10 min 6 sec) 
Heartbeat CPU 3 instructions: 1690000000 cycles: 1292780283 heartbeat IPC: 1.23314 cumulative IPC: 1.23162 (Simulation time: 4 hr 11 min 30 sec) 
Heartbeat CPU 0 instructions: 1410000000 cycles: 1293221824 heartbeat IPC: 0.939429 cumulative IPC: 0.938078 (Simulation time: 4 hr 11 min 34 sec) 
Heartbeat CPU 1 instructions: 620000000 cycles: 1296953742 heartbeat IPC: 0.376861 cumulative IPC: 0.339291 (Simulation time: 4 hr 12 min 13 sec) 
Heartbeat CPU 3 instructions: 1700000000 cycles: 1300902546 heartbeat IPC: 1.23118 cumulative IPC: 1.23162 (Simulation time: 4 hr 12 min 53 sec) 
Heartbeat CPU 0 instructions: 1420000000 cycles: 1303900207 heartbeat IPC: 0.936471 cumulative IPC: 0.938064 (Simulation time: 4 hr 13 min 25 sec) 
Heartbeat CPU 3 instructions: 1710000003 cycles: 1309045519 heartbeat IPC: 1.22805 cumulative IPC: 1.23159 (Simulation time: 4 hr 14 min 17 sec) 
Heartbeat CPU 2 instructions: 450000002 cycles: 1310270228 heartbeat IPC: 0.213602 cumulative IPC: 0.214944 (Simulation time: 4 hr 14 min 30 sec) 
Heartbeat CPU 0 instructions: 1430000002 cycles: 1314580921 heartbeat IPC: 0.936267 cumulative IPC: 0.938047 (Simulation time: 4 hr 15 min 15 sec) 
Heartbeat CPU 3 instructions: 1720000000 cycles: 1317183537 heartbeat IPC: 1.2288 cumulative IPC: 1.23157 (Simulation time: 4 hr 15 min 42 sec) 
Heartbeat CPU 1 instructions: 630000000 cycles: 1323233577 heartbeat IPC: 0.38052 cumulative IPC: 0.340212 (Simulation time: 4 hr 16 min 45 sec) 
Heartbeat CPU 0 instructions: 1440000000 cycles: 1325209486 heartbeat IPC: 0.940861 cumulative IPC: 0.938073 (Simulation time: 4 hr 17 min 6 sec) 
Heartbeat CPU 3 instructions: 1730000003 cycles: 1325301958 heartbeat IPC: 1.23177 cumulative IPC: 1.23157 (Simulation time: 4 hr 17 min 7 sec) 
Heartbeat CPU 3 instructions: 1740000000 cycles: 1333441776 heartbeat IPC: 1.22853 cumulative IPC: 1.23155 (Simulation time: 4 hr 18 min 30 sec) 
Heartbeat CPU 0 instructions: 1450000003 cycles: 1335960379 heartbeat IPC: 0.930156 cumulative IPC: 0.938001 (Simulation time: 4 hr 18 min 55 sec) 
Heartbeat CPU 3 instructions: 1750000001 cycles: 1341614305 heartbeat IPC: 1.22361 cumulative IPC: 1.2315 (Simulation time: 4 hr 19 min 52 sec) 
Heartbeat CPU 0 instructions: 1460000000 cycles: 1346638962 heartbeat IPC: 0.936454 cumulative IPC: 0.937987 (Simulation time: 4 hr 20 min 42 sec) 
Heartbeat CPU 3 instructions: 1760000000 cycles: 1349723308 heartbeat IPC: 1.2332 cumulative IPC: 1.23151 (Simulation time: 4 hr 21 min 13 sec) 
Heartbeat CPU 1 instructions: 640000000 cycles: 1355462526 heartbeat IPC: 0.31028 cumulative IPC: 0.339414 (Simulation time: 4 hr 22 min 13 sec) 
Heartbeat CPU 2 instructions: 460000000 cycles: 1356230437 heartbeat IPC: 0.217579 cumulative IPC: 0.215044 (Simulation time: 4 hr 22 min 21 sec) 
Heartbeat CPU 0 instructions: 1470000001 cycles: 1357302026 heartbeat IPC: 0.937817 cumulative IPC: 0.937986 (Simulation time: 4 hr 22 min 31 sec) 
Heartbeat CPU 3 instructions: 1770000000 cycles: 1357845606 heartbeat IPC: 1.23118 cumulative IPC: 1.23151 (Simulation time: 4 hr 22 min 37 sec) 
Heartbeat CPU 3 instructions: 1780000000 cycles: 1365964623 heartbeat IPC: 1.23168 cumulative IPC: 1.23151 (Simulation time: 4 hr 24 min 2 sec) 
Heartbeat CPU 0 instructions: 1480000000 cycles: 1367924235 heartbeat IPC: 0.941424 cumulative IPC: 0.938016 (Simulation time: 4 hr 24 min 23 sec) 
Heartbeat CPU 3 instructions: 1790000003 cycles: 1374111520 heartbeat IPC: 1.22746 cumulative IPC: 1.23148 (Simulation time: 4 hr 25 min 27 sec) 
Heartbeat CPU 0 instructions: 1490000000 cycles: 1378540751 heartbeat IPC: 0.941929 cumulative IPC: 0.938049 (Simulation time: 4 hr 26 min 15 sec) 
Heartbeat CPU 3 instructions: 1800000000 cycles: 1382233527 heartbeat IPC: 1.23122 cumulative IPC: 1.23148 (Simulation time: 4 hr 26 min 52 sec) 
Heartbeat CPU 1 instructions: 650000002 cycles: 1383717295 heartbeat IPC: 0.353923 cumulative IPC: 0.339746 (Simulation time: 4 hr 27 min 7 sec) 
Heartbeat CPU 0 instructions: 1500000000 cycles: 1389258274 heartbeat IPC: 0.933051 cumulative IPC: 0.938006 (Simulation time: 4 hr 28 min 4 sec) 
Heartbeat CPU 3 instructions: 1810000003 cycles: 1390368441 heartbeat IPC: 1.22927 cumulative IPC: 1.23146 (Simulation time: 4 hr 28 min 15 sec) 
Heartbeat CPU 3 instructions: 1820000000 cycles: 1398538114 heartbeat IPC: 1.22404 cumulative IPC: 1.23142 (Simulation time: 4 hr 29 min 38 sec) 
Heartbeat CPU 0 instructions: 1510000000 cycles: 1399950585 heartbeat IPC: 0.935252 cumulative IPC: 0.937983 (Simulation time: 4 hr 29 min 53 sec) 
Heartbeat CPU 2 instructions: 470000001 cycles: 1402724307 heartbeat IPC: 0.215082 cumulative IPC: 0.215046 (Simulation time: 4 hr 30 min 21 sec) 
Heartbeat CPU 3 instructions: 1830000002 cycles: 1406745189 heartbeat IPC: 1.21846 cumulative IPC: 1.23133 (Simulation time: 4 hr 31 min 2 sec) 
Heartbeat CPU 0 instructions: 1520000000 cycles: 1410670342 heartbeat IPC: 0.932857 cumulative IPC: 0.937939 (Simulation time: 4 hr 31 min 41 sec) 
Heartbeat CPU 3 instructions: 1840000000 cycles: 1414906650 heartbeat IPC: 1.22527 cumulative IPC: 1.23129 (Simulation time: 4 hr 32 min 24 sec) 
Heartbeat CPU 1 instructions: 660000000 cycles: 1416072408 heartbeat IPC: 0.30907 cumulative IPC: 0.338963 (Simulation time: 4 hr 32 min 36 sec) 
Heartbeat CPU 0 instructions: 1530000001 cycles: 1421341977 heartbeat IPC: 0.937064 cumulative IPC: 0.937932 (Simulation time: 4 hr 33 min 27 sec) 
Heartbeat CPU 3 instructions: 1850000000 cycles: 1423044640 heartbeat IPC: 1.2288 cumulative IPC: 1.23128 (Simulation time: 4 hr 33 min 44 sec) 
Heartbeat CPU 3 instructions: 1860000000 cycles: 1431149845 heartbeat IPC: 1.23378 cumulative IPC: 1.23129 (Simulation time: 4 hr 35 min 2 sec) 
Heartbeat CPU 0 instructions: 1540000000 cycles: 1431993884 heartbeat IPC: 0.938799 cumulative IPC: 0.937939 (Simulation time: 4 hr 35 min 10 sec) 
Heartbeat CPU 3 instructions: 1870000002 cycles: 1439280217 heartbeat IPC: 1.22996 cumulative IPC: 1.23128 (Simulation time: 4 hr 36 min 20 sec) 
Heartbeat CPU 0 instructions: 1550000001 cycles: 1442696240 heartbeat IPC: 0.934374 cumulative IPC: 0.93791 (Simulation time: 4 hr 36 min 53 sec) 
Heartbeat CPU 1 instructions: 670000000 cycles: 1445552807 heartbeat IPC: 0.339208 cumulative IPC: 0.338969 (Simulation time: 4 hr 37 min 21 sec) 
Heartbeat CPU 3 instructions: 1880000000 cycles: 1447393219 heartbeat IPC: 1.23259 cumulative IPC: 1.23129 (Simulation time: 4 hr 37 min 39 sec) 
Heartbeat CPU 2 instructions: 480000000 cycles: 1449335927 heartbeat IPC: 0.214539 cumulative IPC: 0.215028 (Simulation time: 4 hr 37 min 57 sec) 
Heartbeat CPU 0 instructions: 1560000000 cycles: 1453354136 heartbeat IPC: 0.938271 cumulative IPC: 0.937913 (Simulation time: 4 hr 38 min 36 sec) 
Heartbeat CPU 3 instructions: 1890000000 cycles: 1455504648 heartbeat IPC: 1.23283 cumulative IPC: 1.2313 (Simulation time: 4 hr 38 min 57 sec) 
Heartbeat CPU 3 instructions: 1900000000 cycles: 1463672649 heartbeat IPC: 1.22429 cumulative IPC: 1.23126 (Simulation time: 4 hr 40 min 18 sec) 
Heartbeat CPU 0 instructions: 1570000000 cycles: 1464012887 heartbeat IPC: 0.938196 cumulative IPC: 0.937915 (Simulation time: 4 hr 40 min 22 sec) 
Heartbeat CPU 3 instructions: 1910000000 cycles: 1471793688 heartbeat IPC: 1.23137 cumulative IPC: 1.23126 (Simulation time: 4 hr 41 min 40 sec) 
Heartbeat CPU 0 instructions: 1580000000 cycles: 1474659526 heartbeat IPC: 0.939264 cumulative IPC: 0.937926 (Simulation time: 4 hr 42 min 10 sec) 
Heartbeat CPU 1 instructions: 680000000 cycles: 1475320970 heartbeat IPC: 0.335929 cumulative IPC: 0.338901 (Simulation time: 4 hr 42 min 16 sec) 
Heartbeat CPU 3 instructions: 1920000000 cycles: 1479896605 heartbeat IPC: 1.23412 cumulative IPC: 1.23128 (Simulation time: 4 hr 43 min 2 sec) 
Heartbeat CPU 0 instructions: 1590000001 cycles: 1485300988 heartbeat IPC: 0.939721 cumulative IPC: 0.93794 (Simulation time: 4 hr 43 min 57 sec) 
Heartbeat CPU 3 instructions: 1930000000 cycles: 1488002189 heartbeat IPC: 1.23372 cumulative IPC: 1.23129 (Simulation time: 4 hr 44 min 24 sec) 
Heartbeat CPU 2 instructions: 490000002 cycles: 1495635053 heartbeat IPC: 0.215987 cumulative IPC: 0.215061 (Simulation time: 4 hr 45 min 42 sec) 
Heartbeat CPU 0 instructions: 1600000000 cycles: 1495927235 heartbeat IPC: 0.941066 cumulative IPC: 0.937965 (Simulation time: 4 hr 45 min 46 sec) 
Heartbeat CPU 3 instructions: 1940000000 cycles: 1496088701 heartbeat IPC: 1.23663 cumulative IPC: 1.23132 (Simulation time: 4 hr 45 min 47 sec) 
Heartbeat CPU 3 instructions: 1950000002 cycles: 1504218028 heartbeat IPC: 1.23011 cumulative IPC: 1.23132 (Simulation time: 4 hr 47 min 9 sec) 
Heartbeat CPU 0 instructions: 1610000000 cycles: 1506629660 heartbeat IPC: 0.934368 cumulative IPC: 0.937936 (Simulation time: 4 hr 47 min 34 sec) 
Heartbeat CPU 1 instructions: 690000002 cycles: 1508590565 heartbeat IPC: 0.300575 cumulative IPC: 0.337964 (Simulation time: 4 hr 47 min 54 sec) 
Heartbeat CPU 3 instructions: 1960000000 cycles: 1512338026 heartbeat IPC: 1.23153 cumulative IPC: 1.23132 (Simulation time: 4 hr 48 min 34 sec) 
Heartbeat CPU 0 instructions: 1620000000 cycles: 1517274290 heartbeat IPC: 0.939441 cumulative IPC: 0.937948 (Simulation time: 4 hr 49 min 27 sec) 
Heartbeat CPU 3 instructions: 1970000001 cycles: 1520488124 heartbeat IPC: 1.22698 cumulative IPC: 1.23129 (Simulation time: 4 hr 49 min 59 sec) 
Heartbeat CPU 0 instructions: 1630000002 cycles: 1527900946 heartbeat IPC: 0.94103 cumulative IPC: 0.937972 (Simulation time: 4 hr 51 min 15 sec) 
Heartbeat CPU 3 instructions: 1980000000 cycles: 1528588845 heartbeat IPC: 1.23446 cumulative IPC: 1.23131 (Simulation time: 4 hr 51 min 22 sec) 
Heartbeat CPU 3 instructions: 1990000002 cycles: 1536717293 heartbeat IPC: 1.23025 cumulative IPC: 1.2313 (Simulation time: 4 hr 52 min 44 sec) 
Heartbeat CPU 0 instructions: 1640000000 cycles: 1538582548 heartbeat IPC: 0.936189 cumulative IPC: 0.937958 (Simulation time: 4 hr 53 min 4 sec) 
Heartbeat CPU 1 instructions: 700000000 cycles: 1539260551 heartbeat IPC: 0.326052 cumulative IPC: 0.337702 (Simulation time: 4 hr 53 min 11 sec) 
Heartbeat CPU 2 instructions: 500000000 cycles: 1541545593 heartbeat IPC: 0.217815 cumulative IPC: 0.215151 (Simulation time: 4 hr 53 min 34 sec) 
*** Reached end of trace for Core: 3 Repeating trace: /scratch/user/djimenez/champsim-traces/speccpu2017/xz/603.bwaves_s/603.bwaves_s-2609B.champsimtrace.xz
Heartbeat CPU 3 instructions: 2000000000 cycles: 1544828389 heartbeat IPC: 1.23288 cumulative IPC: 1.23131 (Simulation time: 4 hr 54 min 8 sec) 
Heartbeat CPU 0 instructions: 1650000000 cycles: 1549303322 heartbeat IPC: 0.932768 cumulative IPC: 0.937918 (Simulation time: 4 hr 54 min 53 sec) 
Heartbeat CPU 3 instructions: 2010000001 cycles: 1553024988 heartbeat IPC: 1.22002 cumulative IPC: 1.23125 (Simulation time: 4 hr 55 min 32 sec) 
Heartbeat CPU 0 instructions: 1660000000 cycles: 1560116928 heartbeat IPC: 0.924761 cumulative IPC: 0.937818 (Simulation time: 4 hr 56 min 44 sec) 
Heartbeat CPU 3 instructions: 2020000000 cycles: 1561227180 heartbeat IPC: 1.21919 cumulative IPC: 1.23118 (Simulation time: 4 hr 56 min 55 sec) 
Heartbeat CPU 3 instructions: 2030000000 cycles: 1569455613 heartbeat IPC: 1.2153 cumulative IPC: 1.23109 (Simulation time: 4 hr 58 min 18 sec) 
Heartbeat CPU 1 instructions: 710000000 cycles: 1570957917 heartbeat IPC: 0.315484 cumulative IPC: 0.337207 (Simulation time: 4 hr 58 min 33 sec) 
Heartbeat CPU 0 instructions: 1670000003 cycles: 1571208177 heartbeat IPC: 0.901612 cumulative IPC: 0.937536 (Simulation time: 4 hr 58 min 36 sec) 
Heartbeat CPU 3 instructions: 2040000000 cycles: 1577652998 heartbeat IPC: 1.2199 cumulative IPC: 1.23102 (Simulation time: 4 hr 59 min 42 sec) 
Heartbeat CPU 0 instructions: 1680000000 cycles: 1582004281 heartbeat IPC: 0.92626 cumulative IPC: 0.937451 (Simulation time: 5 hr 0 min 26 sec) 
Heartbeat CPU 3 instructions: 2050000001 cycles: 1585848185 heartbeat IPC: 1.22023 cumulative IPC: 1.23096 (Simulation time: 5 hr 1 min 5 sec) 
Heartbeat CPU 2 instructions: 510000002 cycles: 1587780225 heartbeat IPC: 0.216288 cumulative IPC: 0.215188 (Simulation time: 5 hr 1 min 25 sec) 
Heartbeat CPU 0 instructions: 1690000001 cycles: 1592806823 heartbeat IPC: 0.925708 cumulative IPC: 0.937363 (Simulation time: 5 hr 2 min 16 sec) 
Heartbeat CPU 3 instructions: 2060000000 cycles: 1594031857 heartbeat IPC: 1.22195 cumulative IPC: 1.23091 (Simulation time: 5 hr 2 min 28 sec) 
Heartbeat CPU 3 instructions: 2070000003 cycles: 1602248013 heartbeat IPC: 1.21711 cumulative IPC: 1.23083 (Simulation time: 5 hr 3 min 51 sec) 
Heartbeat CPU 1 instructions: 720000000 cycles: 1602737675 heartbeat IPC: 0.314666 cumulative IPC: 0.336715 (Simulation time: 5 hr 3 min 56 sec) 
Heartbeat CPU 0 instructions: 1700000000 cycles: 1603626802 heartbeat IPC: 0.924216 cumulative IPC: 0.937265 (Simulation time: 5 hr 4 min 5 sec) 
Heartbeat CPU 3 instructions: 2080000000 cycles: 1610431106 heartbeat IPC: 1.22203 cumulative IPC: 1.23078 (Simulation time: 5 hr 5 min 15 sec) 
Heartbeat CPU 0 instructions: 1710000003 cycles: 1614425490 heartbeat IPC: 0.926039 cumulative IPC: 0.937183 (Simulation time: 5 hr 5 min 56 sec) 
Heartbeat CPU 3 instructions: 2090000002 cycles: 1618613700 heartbeat IPC: 1.22211 cumulative IPC: 1.23073 (Simulation time: 5 hr 6 min 39 sec) 
Heartbeat CPU 0 instructions: 1720000000 cycles: 1625221736 heartbeat IPC: 0.926248 cumulative IPC: 0.937103 (Simulation time: 5 hr 7 min 45 sec) 
Heartbeat CPU 3 instructions: 2100000000 cycles: 1626816596 heartbeat IPC: 1.21908 cumulative IPC: 1.23067 (Simulation time: 5 hr 8 min 2 sec) 
Heartbeat CPU 1 instructions: 730000000 cycles: 1633613825 heartbeat IPC: 0.323875 cumulative IPC: 0.336448 (Simulation time: 5 hr 9 min 10 sec) 
Heartbeat CPU 2 instructions: 520000000 cycles: 1633781947 heartbeat IPC: 0.217383 cumulative IPC: 0.215256 (Simulation time: 5 hr 9 min 12 sec) 
Heartbeat CPU 3 instructions: 2110000002 cycles: 1635008506 heartbeat IPC: 1.22072 cumulative IPC: 1.23061 (Simulation time: 5 hr 9 min 25 sec) 
Heartbeat CPU 0 instructions: 1730000000 cycles: 1635991721 heartbeat IPC: 0.928506 cumulative IPC: 0.937041 (Simulation time: 5 hr 9 min 35 sec) 
Heartbeat CPU 3 instructions: 2120000000 cycles: 1643209225 heartbeat IPC: 1.21941 cumulative IPC: 1.23055 (Simulation time: 5 hr 10 min 47 sec) 
Heartbeat CPU 0 instructions: 1740000000 cycles: 1646813920 heartbeat IPC: 0.924027 cumulative IPC: 0.936947 (Simulation time: 5 hr 11 min 24 sec) 
Heartbeat CPU 3 instructions: 2130000002 cycles: 1651376645 heartbeat IPC: 1.22438 cumulative IPC: 1.23052 (Simulation time: 5 hr 12 min 11 sec) 
Heartbeat CPU 0 instructions: 1750000002 cycles: 1657696194 heartbeat IPC: 0.918926 cumulative IPC: 0.936817 (Simulation time: 5 hr 13 min 15 sec) 
Heartbeat CPU 3 instructions: 2140000000 cycles: 1659570362 heartbeat IPC: 1.22045 cumulative IPC: 1.23046 (Simulation time: 5 hr 13 min 36 sec) 
Heartbeat CPU 1 instructions: 740000000 cycles: 1660841543 heartbeat IPC: 0.367273 cumulative IPC: 0.337003 (Simulation time: 5 hr 13 min 50 sec) 
Heartbeat CPU 3 instructions: 2150000002 cycles: 1667756880 heartbeat IPC: 1.22152 cumulative IPC: 1.23042 (Simulation time: 5 hr 15 min 6 sec) 
Heartbeat CPU 0 instructions: 1760000000 cycles: 1668446408 heartbeat IPC: 0.930214 cumulative IPC: 0.93677 (Simulation time: 5 hr 15 min 13 sec) 
Heartbeat CPU 3 instructions: 2160000000 cycles: 1675941463 heartbeat IPC: 1.22181 cumulative IPC: 1.23037 (Simulation time: 5 hr 16 min 32 sec) 
Heartbeat CPU 0 instructions: 1770000001 cycles: 1679304752 heartbeat IPC: 0.920951 cumulative IPC: 0.936658 (Simulation time: 5 hr 17 min 6 sec) 
Heartbeat CPU 2 instructions: 530000000 cycles: 1680148927 heartbeat IPC: 0.215671 cumulative IPC: 0.215268 (Simulation time: 5 hr 17 min 15 sec) 
Heartbeat CPU 3 instructions: 2170000002 cycles: 1684125500 heartbeat IPC: 1.22189 cumulative IPC: 1.23033 (Simulation time: 5 hr 17 min 58 sec) 
Heartbeat CPU 1 instructions: 750000002 cycles: 1685292127 heartbeat IPC: 0.408988 cumulative IPC: 0.338147 (Simulation time: 5 hr 18 min 10 sec) 
Heartbeat CPU 0 instructions: 1780000000 cycles: 1690138790 heartbeat IPC: 0.923017 cumulative IPC: 0.936562 (Simulation time: 5 hr 19 min 1 sec) 
Heartbeat CPU 3 instructions: 2180000000 cycles: 1692314761 heartbeat IPC: 1.22111 cumulative IPC: 1.23028 (Simulation time: 5 hr 19 min 23 sec) 
Heartbeat CPU 3 instructions: 2190000000 cycles: 1700498690 heartbeat IPC: 1.22191 cumulative IPC: 1.23023 (Simulation time: 5 hr 20 min 49 sec) 
Heartbeat CPU 0 instructions: 1790000000 cycles: 1700980181 heartbeat IPC: 0.922391 cumulative IPC: 0.936464 (Simulation time: 5 hr 20 min 54 sec) 
Heartbeat CPU 3 instructions: 2200000000 cycles: 1708701132 heartbeat IPC: 1.21915 cumulative IPC: 1.23017 (Simulation time: 5 hr 22 min 13 sec) 
Heartbeat CPU 1 instructions: 760000000 cycles: 1710760038 heartbeat IPC: 0.392651 cumulative IPC: 0.339035 (Simulation time: 5 hr 22 min 34 sec) 
Heartbeat CPU 0 instructions: 1800000000 cycles: 1711803989 heartbeat IPC: 0.923889 cumulative IPC: 0.936377 (Simulation time: 5 hr 22 min 45 sec) 
Heartbeat CPU 3 instructions: 2210000002 cycles: 1716877566 heartbeat IPC: 1.22303 cumulative IPC: 1.23014 (Simulation time: 5 hr 23 min 36 sec) 
Heartbeat CPU 0 instructions: 1810000002 cycles: 1722619116 heartbeat IPC: 0.924631 cumulative IPC: 0.936296 (Simulation time: 5 hr 24 min 35 sec) 
Heartbeat CPU 3 instructions: 2220000000 cycles: 1725070290 heartbeat IPC: 1.2206 cumulative IPC: 1.23009 (Simulation time: 5 hr 24 min 59 sec) 
Heartbeat CPU 2 instructions: 540000000 cycles: 1725941877 heartbeat IPC: 0.218374 cumulative IPC: 0.215358 (Simulation time: 5 hr 25 min 8 sec) 
Heartbeat CPU 3 instructions: 2230000001 cycles: 1733242947 heartbeat IPC: 1.22359 cumulative IPC: 1.23005 (Simulation time: 5 hr 26 min 23 sec) 
Heartbeat CPU 0 instructions: 1820000000 cycles: 1733440228 heartbeat IPC: 0.924119 cumulative IPC: 0.936213 (Simulation time: 5 hr 26 min 25 sec) 
Heartbeat CPU 1 instructions: 770000002 cycles: 1740910629 heartbeat IPC: 0.331669 cumulative IPC: 0.338895 (Simulation time: 5 hr 27 min 42 sec) 
Heartbeat CPU 3 instructions: 2240000000 cycles: 1741426286 heartbeat IPC: 1.22199 cumulative IPC: 1.23001 (Simulation time: 5 hr 27 min 47 sec) 
Heartbeat CPU 0 instructions: 1830000000 cycles: 1744268303 heartbeat IPC: 0.923525 cumulative IPC: 0.936127 (Simulation time: 5 hr 28 min 16 sec) 
Heartbeat CPU 3 instructions: 2250000001 cycles: 1749622409 heartbeat IPC: 1.22009 cumulative IPC: 1.22996 (Simulation time: 5 hr 29 min 10 sec) 
Heartbeat CPU 0 instructions: 1840000000 cycles: 1755047171 heartbeat IPC: 0.927741 cumulative IPC: 0.936071 (Simulation time: 5 hr 30 min 6 sec) 
Heartbeat CPU 3 instructions: 2260000000 cycles: 1757802708 heartbeat IPC: 1.22245 cumulative IPC: 1.22992 (Simulation time: 5 hr 30 min 35 sec) 
[...]
Heartbeat CPU 2 instructions: 1170000000 cycles: 4660600455 heartbeat IPC: 0.216501 cumulative IPC: 0.214915 (Simulation time: 13 hr 4 min 28 sec) 
Heartbeat CPU 3 instructions: 5810000003 cycles: 4664984112 heartbeat IPC: 1.2208 cumulative IPC: 1.22425 (Simulation time: 13 hr 5 min 7 sec) 
Heartbeat CPU 0 instructions: 4520000000 cycles: 4667899486 heartbeat IPC: 0.921015 cumulative IPC: 0.925755 (Simulation time: 13 hr 5 min 34 sec) 
Heartbeat CPU 3 instructions: 5820000000 cycles: 4673210553 heartbeat IPC: 1.21559 cumulative IPC: 1.22424 (Simulation time: 13 hr 6 min 23 sec) 
Heartbeat CPU 0 instructions: 4530000002 cycles: 4678752234 heartbeat IPC: 0.921426 cumulative IPC: 0.925744 (Simulation time: 13 hr 7 min 13 sec) 
Heartbeat CPU 3 instructions: 5830000002 cycles: 4681480390 heartbeat IPC: 1.20921 cumulative IPC: 1.22421 (Simulation time: 13 hr 7 min 37 sec) 
Heartbeat CPU 1 instructions: 1810000001 cycles: 4686157306 heartbeat IPC: 0.324412 cumulative IPC: 0.34812 (Simulation time: 13 hr 8 min 20 sec) 
Heartbeat CPU 0 instructions: 4540000000 cycles: 4689587334 heartbeat IPC: 0.922926 cumulative IPC: 0.925738 (Simulation time: 13 hr 8 min 51 sec) 
Heartbeat CPU 3 instructions: 5840000000 cycles: 4689672503 heartbeat IPC: 1.22069 cumulative IPC: 1.22421 (Simulation time: 13 hr 8 min 52 sec) 
Heartbeat CPU 3 instructions: 5850000000 cycles: 4697860256 heartbeat IPC: 1.22134 cumulative IPC: 1.2242 (Simulation time: 13 hr 10 min 7 sec) 
Heartbeat CPU 0 instructions: 4550000003 cycles: 4700473973 heartbeat IPC: 0.918557 cumulative IPC: 0.92572 (Simulation time: 13 hr 10 min 30 sec) 
Heartbeat CPU 3 instructions: 5860000000 cycles: 4706051701 heartbeat IPC: 1.22079 cumulative IPC: 1.22419 (Simulation time: 13 hr 11 min 20 sec) 
Heartbeat CPU 2 instructions: 1180000000 cycles: 4707208034 heartbeat IPC: 0.214557 cumulative IPC: 0.214911 (Simulation time: 13 hr 11 min 31 sec) 
Heartbeat CPU 0 instructions: 4560000000 cycles: 4711365364 heartbeat IPC: 0.918156 cumulative IPC: 0.925702 (Simulation time: 13 hr 12 min 8 sec) 
Heartbeat CPU 3 instructions: 5870000002 cycles: 4714225133 heartbeat IPC: 1.22348 cumulative IPC: 1.22419 (Simulation time: 13 hr 12 min 34 sec) 
Heartbeat CPU 1 instructions: 1820000000 cycles: 4716016662 heartbeat IPC: 0.334903 cumulative IPC: 0.348033 (Simulation time: 13 hr 12 min 50 sec) 
Heartbeat CPU 3 instructions: 5880000000 cycles: 4722409851 heartbeat IPC: 1.22179 cumulative IPC: 1.22419 (Simulation time: 13 hr 13 min 48 sec) 
Heartbeat CPU 0 instructions: 4570000003 cycles: 4722552417 heartbeat IPC: 0.893891 cumulative IPC: 0.925625 (Simulation time: 13 hr 13 min 50 sec) 
Heartbeat CPU 3 instructions: 5890000000 cycles: 4730581333 heartbeat IPC: 1.22377 cumulative IPC: 1.22419 (Simulation time: 13 hr 15 min 2 sec) 
Heartbeat CPU 0 instructions: 4580000000 cycles: 4733395366 heartbeat IPC: 0.922258 cumulative IPC: 0.925617 (Simulation time: 13 hr 15 min 28 sec) 
Heartbeat CPU 3 instructions: 5900000000 cycles: 4738816844 heartbeat IPC: 1.21425 cumulative IPC: 1.22417 (Simulation time: 13 hr 16 min 17 sec) 
Heartbeat CPU 0 instructions: 4590000001 cycles: 4744287706 heartbeat IPC: 0.918076 cumulative IPC: 0.925599 (Simulation time: 13 hr 17 min 8 sec) 
Heartbeat CPU 1 instructions: 1830000002 cycles: 4746556810 heartbeat IPC: 0.327438 cumulative IPC: 0.347897 (Simulation time: 13 hr 17 min 27 sec) 
Heartbeat CPU 3 instructions: 5910000000 cycles: 4747011541 heartbeat IPC: 1.2203 cumulative IPC: 1.22416 (Simulation time: 13 hr 17 min 31 sec) 
Heartbeat CPU 2 instructions: 1190000003 cycles: 4753397984 heartbeat IPC: 0.216497 cumulative IPC: 0.214927 (Simulation time: 13 hr 18 min 29 sec) 
Heartbeat CPU 3 instructions: 5920000000 cycles: 4755191396 heartbeat IPC: 1.22252 cumulative IPC: 1.22416 (Simulation time: 13 hr 18 min 45 sec) 
Heartbeat CPU 0 instructions: 4600000000 cycles: 4755216537 heartbeat IPC: 0.915011 cumulative IPC: 0.925574 (Simulation time: 13 hr 18 min 46 sec) 
Heartbeat CPU 3 instructions: 5930000000 cycles: 4763356060 heartbeat IPC: 1.22479 cumulative IPC: 1.22416 (Simulation time: 13 hr 20 min 1 sec) 
Heartbeat CPU 0 instructions: 4610000003 cycles: 4766002437 heartbeat IPC: 0.927137 cumulative IPC: 0.925577 (Simulation time: 13 hr 20 min 25 sec) 
Heartbeat CPU 3 instructions: 5940000000 cycles: 4771504674 heartbeat IPC: 1.2272 cumulative IPC: 1.22417 (Simulation time: 13 hr 21 min 16 sec) 
Heartbeat CPU 1 instructions: 1840000000 cycles: 4775281485 heartbeat IPC: 0.348133 cumulative IPC: 0.347898 (Simulation time: 13 hr 21 min 52 sec) 
Heartbeat CPU 0 instructions: 4620000000 cycles: 4776893740 heartbeat IPC: 0.918164 cumulative IPC: 0.92556 (Simulation time: 13 hr 22 min 6 sec) 
Heartbeat CPU 3 instructions: 5950000002 cycles: 4779679842 heartbeat IPC: 1.22322 cumulative IPC: 1.22416 (Simulation time: 13 hr 22 min 31 sec) 
Heartbeat CPU 0 instructions: 4630000000 cycles: 4787750323 heartbeat IPC: 0.9211 cumulative IPC: 0.925549 (Simulation time: 13 hr 23 min 45 sec) 
Heartbeat CPU 3 instructions: 5960000000 cycles: 4787866356 heartbeat IPC: 1.22152 cumulative IPC: 1.22416 (Simulation time: 13 hr 23 min 46 sec) 
Heartbeat CPU 3 instructions: 5970000001 cycles: 4796063479 heartbeat IPC: 1.21994 cumulative IPC: 1.22415 (Simulation time: 13 hr 25 min 1 sec) 
Heartbeat CPU 0 instructions: 4640000000 cycles: 4798632846 heartbeat IPC: 0.918905 cumulative IPC: 0.925534 (Simulation time: 13 hr 25 min 24 sec) 
Heartbeat CPU 2 instructions: 1200000000 cycles: 4800342378 heartbeat IPC: 0.213018 cumulative IPC: 0.214908 (Simulation time: 13 hr 25 min 40 sec) 
Finished CPU 2 instructions: 1000000000 cycles: 4653164145 cumulative IPC: 0.214908 (Simulation time: 13 hr 25 min 40 sec) 

CPU 0 Branch Prediction Accuracy: 99.975% MPKI: 0.0042485

CPU 1 Branch Prediction Accuracy: 90.9066% MPKI: 16.1783

CPU 2 Branch Prediction Accuracy: 96.7197% MPKI: 4.86726

CPU 3 Branch Prediction Accuracy: 99.9709% MPKI: 0.00717582

ChampSim completed all CPUs

Total Simulation Statistics (not including warmup)

CPU 0 cumulative IPC: 0.925531 instructions: 4306645813 cycles: 4653164145
L1D TOTAL     ACCESS:  915801109  HIT:  858807909  MISS:   56993200
L1D LOAD      ACCESS:  613578416  HIT:  556641980  MISS:   56936436
L1D RFO       ACCESS:  302222693  HIT:  302165929  MISS:      56764
L1D PREFETCH  ACCESS:          0  HIT:          0  MISS:          0
L1D WRITEBACK ACCESS:          0  HIT:          0  MISS:          0
L1I TOTAL     ACCESS:  904029528  HIT:  904029528  MISS:          0
L1I LOAD      ACCESS:  904029528  HIT:  904029528  MISS:          0
L1I RFO       ACCESS:          0  HIT:          0  MISS:          0
L1I PREFETCH  ACCESS:          0  HIT:          0  MISS:          0
L1I WRITEBACK ACCESS:          0  HIT:          0  MISS:          0
L2C TOTAL     ACCESS:  128765946  HIT:   72856704  MISS:   55909242
L2C LOAD      ACCESS:   56936436  HIT:   34418328  MISS:   22518108
L2C RFO       ACCESS:      56764  HIT:      12596  MISS:      44168
L2C PREFETCH  ACCESS:   33929438  HIT:     582472  MISS:   33346966
L2C WRITEBACK ACCESS:   37843308  HIT:   37843308  MISS:          0

L2C DA-AMPM prefetcher final stats
LLC TOTAL     ACCESS:   93720855  HIT:   55942516  MISS:   37778339
LLC LOAD      ACCESS:   21073154  HIT:   18087177  MISS:    2985977
LLC RFO       ACCESS:      44167  HIT:      44167  MISS:          0
LLC PREFETCH  ACCESS:   34791919  HIT:          0  MISS:   34791919
LLC WRITEBACK ACCESS:   37811615  HIT:   37811172  MISS:        443

CPU 1 cumulative IPC: 0.347833 instructions: 1618521821 cycles: 4653164145
L1D TOTAL     ACCESS:  564756186  HIT:  550292240  MISS:   14463946
L1D LOAD      ACCESS:  345203038  HIT:  332808067  MISS:   12394971
L1D RFO       ACCESS:  219553148  HIT:  217484173  MISS:    2068975
L1D PREFETCH  ACCESS:          0  HIT:          0  MISS:          0
L1D WRITEBACK ACCESS:          0  HIT:          0  MISS:          0
L1I TOTAL     ACCESS:  447234914  HIT:  439580100  MISS:    7654814
L1I LOAD      ACCESS:  447234914  HIT:  439580100  MISS:    7654814
L1I RFO       ACCESS:          0  HIT:          0  MISS:          0
L1I PREFETCH  ACCESS:          0  HIT:          0  MISS:          0
L1I WRITEBACK ACCESS:          0  HIT:          0  MISS:          0
L2C TOTAL     ACCESS:   32086065  HIT:   21934521  MISS:   10151544
L2C LOAD      ACCESS:   20049610  HIT:   15415449  MISS:    4634161
L2C RFO       ACCESS:    2068905  HIT:     843195  MISS:    1225710
L2C PREFETCH  ACCESS:    5905732  HIT:    1672877  MISS:    4232855
L2C WRITEBACK ACCESS:    4061818  HIT:    4003000  MISS:      58818

L2C DA-AMPM prefetcher final stats
LLC TOTAL     ACCESS:   12231503  HIT:    5611782  MISS:    6619721
LLC LOAD      ACCESS:    4506236  HIT:    1970446  MISS:    2535790
LLC RFO       ACCESS:    1225199  HIT:     410475  MISS:     814724
LLC PREFETCH  ACCESS:    4361248  HIT:    1564619  MISS:    2796629
LLC WRITEBACK ACCESS:    2138820  HIT:    1666242  MISS:     472578

CPU 2 cumulative IPC: 0.214908 instructions: 1000000000 cycles: 4653164145
L1D TOTAL     ACCESS:  442166718  HIT:  422151068  MISS:   20015650
L1D LOAD      ACCESS:  261600388  HIT:  244103436  MISS:   17496952
L1D RFO       ACCESS:  180566330  HIT:  178047632  MISS:    2518698
L1D PREFETCH  ACCESS:          0  HIT:          0  MISS:          0
L1D WRITEBACK ACCESS:          0  HIT:          0  MISS:          0
L1I TOTAL     ACCESS:  354696414  HIT:  354316088  MISS:     380326
L1I LOAD      ACCESS:  354696414  HIT:  354316088  MISS:     380326
L1I RFO       ACCESS:          0  HIT:          0  MISS:          0
L1I PREFETCH  ACCESS:          0  HIT:          0  MISS:          0
L1I WRITEBACK ACCESS:          0  HIT:          0  MISS:          0
L2C TOTAL     ACCESS:   33802228  HIT:   16523681  MISS:   17278547
L2C LOAD      ACCESS:   17876706  HIT:    5940651  MISS:   11936055
L2C RFO       ACCESS:    2518567  HIT:     469429  MISS:    2049138
L2C PREFETCH  ACCESS:    3734684  HIT:     477937  MISS:    3256747
L2C WRITEBACK ACCESS:    9672271  HIT:    9635664  MISS:      36607

L2C DA-AMPM prefetcher final stats
LLC TOTAL     ACCESS:   24664057  HIT:   11223655  MISS:   13440402
LLC LOAD      ACCESS:   11898861  HIT:    2643340  MISS:    9255521
LLC RFO       ACCESS:    2046854  HIT:     648864  MISS:    1397990
LLC PREFETCH  ACCESS:    3296176  HIT:     638809  MISS:    2657367
LLC WRITEBACK ACCESS:    7422166  HIT:    7292642  MISS:     129524

CPU 3 cumulative IPC: 1.22415 instructions: 5696169624 cycles: 4653164146
L1D TOTAL     ACCESS: 2177168431  HIT: 2058841172  MISS:  118327259
L1D LOAD      ACCESS: 1861461786  HIT: 1746729363  MISS:  114732423
L1D RFO       ACCESS:  315706645  HIT:  312111809  MISS:    3594836
L1D PREFETCH  ACCESS:          0  HIT:          0  MISS:          0
L1D WRITEBACK ACCESS:          0  HIT:          0  MISS:          0
L1I TOTAL     ACCESS: 1400093144  HIT: 1400093144  MISS:          0
L1I LOAD      ACCESS: 1400093144  HIT: 1400093144  MISS:          0
L1I RFO       ACCESS:          0  HIT:          0  MISS:          0
L1I PREFETCH  ACCESS:          0  HIT:          0  MISS:          0
L1I WRITEBACK ACCESS:          0  HIT:          0  MISS:          0
L2C TOTAL     ACCESS:  219066729  HIT:  110468208  MISS:  108598521
L2C LOAD      ACCESS:  114697476  HIT:  105827709  MISS:    8869767
L2C RFO       ACCESS:    3520881  HIT:     745457  MISS:    2775424
L2C PREFETCH  ACCESS:   96925662  HIT:       1103  MISS:   96924559
L2C WRITEBACK ACCESS:    3922710  HIT:    3893939  MISS:      28771

L2C DA-AMPM prefetcher final stats
LLC TOTAL     ACCESS:  111378201  HIT:    3130479  MISS:  108247722
LLC LOAD      ACCESS:    6005099  HIT:     326605  MISS:    5678494
LLC RFO       ACCESS:    2775424  HIT:          0  MISS:    2775424
LLC PREFETCH  ACCESS:   99789227  HIT:          0  MISS:   99789227
LLC WRITEBACK ACCESS:    2808451  HIT:    2803874  MISS:       4577

Region of Interest Statistics

CPU 0 cumulative IPC: 0.937963 instructions: 1000000002 cycles: 1066140047
L1D TOTAL     ACCESS:  212670245  HIT:  199436465  MISS:   13233780
L1D LOAD      ACCESS:  142494301  HIT:  129273701  MISS:   13220600
L1D RFO       ACCESS:   70175944  HIT:   70162764  MISS:      13180
L1D PREFETCH  ACCESS:          0  HIT:          0  MISS:          0
L1D WRITEBACK ACCESS:          0  HIT:          0  MISS:          0
L1D PREFETCH  REQUESTED:          0  ISSUED:          0  USEFUL:          0  USELESS:          0
L1I TOTAL     ACCESS:  209891251  HIT:  209891251  MISS:          0
L1I LOAD      ACCESS:  209891251  HIT:  209891251  MISS:          0
L1I RFO       ACCESS:          0  HIT:          0  MISS:          0
L1I PREFETCH  ACCESS:          0  HIT:          0  MISS:          0
L1I WRITEBACK ACCESS:          0  HIT:          0  MISS:          0
L1I PREFETCH  REQUESTED:          0  ISSUED:          0  USEFUL:          0  USELESS:          0
L2C TOTAL     ACCESS:   29911925  HIT:   16990081  MISS:   12921844
L2C LOAD      ACCESS:   13220600  HIT:    8064563  MISS:    5156037
L2C RFO       ACCESS:      13180  HIT:       3078  MISS:      10102
L2C PREFETCH  ACCESS:    7890962  HIT:     135257  MISS:    7755705
L2C WRITEBACK ACCESS:    8787183  HIT:    8787183  MISS:          0
L2C PREFETCH  REQUESTED:   38761460  ISSUED:   38761460  USEFUL:   36005259  USELESS:      48760
LLC TOTAL     ACCESS:   21701826  HIT:   12929671  MISS:    8772155
LLC LOAD      ACCESS:    4832976  HIT:    4139650  MISS:     693326
LLC RFO       ACCESS:      10101  HIT:      10101  MISS:          0
LLC PREFETCH  ACCESS:    8078765  HIT:          0  MISS:    8078765
LLC WRITEBACK ACCESS:    8779984  HIT:    8779920  MISS:         64
LLC PREFETCH  REQUESTED:          0  ISSUED:          0  USEFUL:     758439  USELESS:  147620432
Major fault: 0 Minor fault: 274488

CPU 1 cumulative IPC: 0.345913 instructions: 1000000000 cycles: 2890902095
L1D TOTAL     ACCESS:  349185283  HIT:  339414792  MISS:    9770491
L1D LOAD      ACCESS:  214042431  HIT:  205484261  MISS:    8558170
L1D RFO       ACCESS:  135142852  HIT:  133930531  MISS:    1212321
L1D PREFETCH  ACCESS:          0  HIT:          0  MISS:          0
L1D WRITEBACK ACCESS:          0  HIT:          0  MISS:          0
L1D PREFETCH  REQUESTED:          0  ISSUED:          0  USEFUL:          0  USELESS:          0
L1I TOTAL     ACCESS:  272590570  HIT:  267841912  MISS:    4748658
L1I LOAD      ACCESS:  272590570  HIT:  267841912  MISS:    4748658
L1I RFO       ACCESS:          0  HIT:          0  MISS:          0
L1I PREFETCH  ACCESS:          0  HIT:          0  MISS:          0
L1I WRITEBACK ACCESS:          0  HIT:          0  MISS:          0
L1I PREFETCH  REQUESTED:          0  ISSUED:          0  USEFUL:          0  USELESS:          0
L2C TOTAL     ACCESS:   20782310  HIT:   14364557  MISS:    6417753
L2C LOAD      ACCESS:   13306713  HIT:   10381444  MISS:    2925269
L2C RFO       ACCESS:    1212272  HIT:     495422  MISS:     716850
L2C PREFETCH  ACCESS:    3707421  HIT:     964422  MISS:    2742999
L2C WRITEBACK ACCESS:    2555904  HIT:    2523269  MISS:      32635
L2C PREFETCH  REQUESTED:    7235335  ISSUED:    7235270  USEFUL:    2299667  USELESS:    2732105
LLC TOTAL     ACCESS:    7730315  HIT:    3710046  MISS:    4020269
LLC LOAD      ACCESS:    2847645  HIT:    1353737  MISS:    1493908
LLC RFO       ACCESS:     716491  HIT:     211584  MISS:     504907
LLC PREFETCH  ACCESS:    2820959  HIT:    1080362  MISS:    1740597
LLC WRITEBACK ACCESS:    1345220  HIT:    1064363  MISS:     280857
LLC PREFETCH  REQUESTED:          0  ISSUED:          0  USEFUL:     758439  USELESS:  147620432
Major fault: 0 Minor fault: 31808

CPU 2 cumulative IPC: 0.214908 instructions: 1000000000 cycles: 4653164145
L1D TOTAL     ACCESS:  442166718  HIT:  422151068  MISS:   20015650
L1D LOAD      ACCESS:  261600388  HIT:  244103436  MISS:   17496952
L1D RFO       ACCESS:  180566330  HIT:  178047632  MISS:    2518698
L1D PREFETCH  ACCESS:          0  HIT:          0  MISS:          0
L1D WRITEBACK ACCESS:          0  HIT:          0  MISS:          0
L1D PREFETCH  REQUESTED:          0  ISSUED:          0  USEFUL:          0  USELESS:          0
L1I TOTAL     ACCESS:  354696414  HIT:  354316088  MISS:     380326
L1I LOAD      ACCESS:  354696414  HIT:  354316088  MISS:     380326
L1I RFO       ACCESS:          0  HIT:          0  MISS:          0
L1I PREFETCH  ACCESS:          0  HIT:          0  MISS:          0
L1I WRITEBACK ACCESS:          0  HIT:          0  MISS:          0
L1I PREFETCH  REQUESTED:          0  ISSUED:          0  USEFUL:          0  USELESS:          0
L2C TOTAL     ACCESS:   33802228  HIT:   16523681  MISS:   17278547
L2C LOAD      ACCESS:   17876706  HIT:    5940651  MISS:   11936055
L2C RFO       ACCESS:    2518567  HIT:     469429  MISS:    2049138
L2C PREFETCH  ACCESS:    3734684  HIT:     477937  MISS:    3256747
L2C WRITEBACK ACCESS:    9672271  HIT:    9635664  MISS:      36607
L2C PREFETCH  REQUESTED:    5070134  ISSUED:    5070134  USEFUL:     985318  USELESS:    2931406
LLC TOTAL     ACCESS:   24664057  HIT:   11223655  MISS:   13440402
LLC LOAD      ACCESS:   11898861  HIT:    2643340  MISS:    9255521
LLC RFO       ACCESS:    2046854  HIT:     648864  MISS:    1397990
LLC PREFETCH  ACCESS:    3296176  HIT:     638809  MISS:    2657367
LLC WRITEBACK ACCESS:    7422166  HIT:    7292642  MISS:     129524
LLC PREFETCH  REQUESTED:          0  ISSUED:          0  USEFUL:     758439  USELESS:  147620432
Major fault: 0 Minor fault: 52120

CPU 3 cumulative IPC: 1.23175 instructions: 1000000001 cycles: 811850792
L1D TOTAL     ACCESS:  382287445  HIT:  361513788  MISS:   20773657
L1D LOAD      ACCESS:  326805783  HIT:  306663507  MISS:   20142276
L1D RFO       ACCESS:   55481662  HIT:   54850281  MISS:     631381
L1D PREFETCH  ACCESS:          0  HIT:          0  MISS:          0
L1D WRITEBACK ACCESS:          0  HIT:          0  MISS:          0
L1D PREFETCH  REQUESTED:          0  ISSUED:          0  USEFUL:          0  USELESS:          0
L1I TOTAL     ACCESS:  245773282  HIT:  245773282  MISS:          0
L1I LOAD      ACCESS:  245773282  HIT:  245773282  MISS:          0
L1I RFO       ACCESS:          0  HIT:          0  MISS:          0
L1I PREFETCH  ACCESS:          0  HIT:          0  MISS:          0
L1I WRITEBACK ACCESS:          0  HIT:          0  MISS:          0
L1I PREFETCH  REQUESTED:          0  ISSUED:          0  USEFUL:          0  USELESS:          0
L2C TOTAL     ACCESS:   38486812  HIT:   19421629  MISS:   19065183
L2C LOAD      ACCESS:   20136195  HIT:   18606376  MISS:    1529819
L2C RFO       ACCESS:     618359  HIT:     131115  MISS:     487244
L2C PREFETCH  ACCESS:   17043364  HIT:        259  MISS:   17043105
L2C WRITEBACK ACCESS:     688894  HIT:     683879  MISS:       5015
L2C PREFETCH  REQUESTED:  105933350  ISSUED:  105367689  USEFUL:  101831867  USELESS:       1250
LLC TOTAL     ACCESS:   19553184  HIT:     549608  MISS:   19003576
LLC LOAD      ACCESS:    1052542  HIT:      57407  MISS:     995135
LLC RFO       ACCESS:     487244  HIT:          0  MISS:     487244
LLC PREFETCH  ACCESS:   17520382  HIT:          0  MISS:   17520382
LLC WRITEBACK ACCESS:     493016  HIT:     492201  MISS:        815
LLC PREFETCH  REQUESTED:          0  ISSUED:          0  USEFUL:     758439  USELESS:  147620432
Major fault: 0 Minor fault: 563665

L2C DA-AMPM prefetcher final stats

L2C DA-AMPM prefetcher final stats

L2C DA-AMPM prefetcher final stats

L2C DA-AMPM prefetcher final stats

DRAM Statistics
 CHANNEL 0
 RQ ROW_BUFFER_HIT:   53588465  ROW_BUFFER_MISS:   29168145
 DBUS_CONGESTED:  109130447
 WQ ROW_BUFFER_HIT:    3447581  ROW_BUFFER_MISS:   20417575  FULL:          0

 CHANNEL 1
 RQ ROW_BUFFER_HIT:   53464376  ROW_BUFFER_MISS:   29253073
 DBUS_CONGESTED:  109130447
 WQ ROW_BUFFER_HIT:    3435443  ROW_BUFFER_MISS:   20421091  FULL:          0

 AVG_CONGESTED_CYCLE: 13
