
*** ChampSim Multicore Out-of-Order Simulator ***

Warmup Instructions: 200000000
Simulation Instructions: 1000000000
Number of CPUs: 4
LLC sets: 8192
LLC ways: 16
Off-chip DRAM Size: 8192 MB Channels: 2 Width: 64-bit Data Rate: 1600 MT/s

CPU 0 runs /scratch/user/djimenez/champsim-traces/speccpu2017/xz/657.xz_s/657.xz_s-2302B.champsimtrace.xz
CPU 1 runs /scratch/user/djimenez/champsim-traces/speccpu2017/xz/619.lbm_s/619.lbm_s-2677B.champsimtrace.xz
CPU 2 runs /scratch/user/djimenez/champsim-traces/speccpu2017/xz/602.gcc_s/602.gcc_s-2226B.champsimtrace.xz
CPU 3 runs /scratch/user/djimenez/champsim-traces/speccpu2017/xz/654.roms_s/654.roms_s-523B.champsimtrace.xz
L2C DA-AMPM prefetcher
L2C DA-AMPM prefetcher
L2C DA-AMPM prefetcher
L2C DA-AMPM prefetcher
Heartbeat CPU 0 instructions: 10000002 cycles: 4458355 heartbeat IPC: 2.24298 cumulative IPC: 2.24298 (Simulation time: 0 hr 1 min 35 sec) 
Heartbeat CPU 3 instructions: 10000000 cycles: 4685519 heartbeat IPC: 2.13424 cumulative IPC: 2.13424 (Simulation time: 0 hr 1 min 40 sec) 
Heartbeat CPU 2 instructions: 10000000 cycles: 4873104 heartbeat IPC: 2.05208 cumulative IPC: 2.05208 (Simulation time: 0 hr 1 min 44 sec) 
Heartbeat CPU 1 instructions: 10000001 cycles: 4924146 heartbeat IPC: 2.03081 cumulative IPC: 2.03081 (Simulation time: 0 hr 1 min 45 sec) 
Heartbeat CPU 0 instructions: 20000000 cycles: 8884508 heartbeat IPC: 2.2593 cumulative IPC: 2.25111 (Simulation time: 0 hr 3 min 9 sec) 
Heartbeat CPU 3 instructions: 20000000 cycles: 9158763 heartbeat IPC: 2.23551 cumulative IPC: 2.1837 (Simulation time: 0 hr 3 min 15 sec) 
Heartbeat CPU 2 instructions: 20000000 cycles: 9742539 heartbeat IPC: 2.05363 cumulative IPC: 2.05285 (Simulation time: 0 hr 3 min 28 sec) 
Heartbeat CPU 1 instructions: 20000000 cycles: 9817731 heartbeat IPC: 2.04349 cumulative IPC: 2.03713 (Simulation time: 0 hr 3 min 29 sec) 
Heartbeat CPU 0 instructions: 30000003 cycles: 13404239 heartbeat IPC: 2.21252 cumulative IPC: 2.2381 (Simulation time: 0 hr 4 min 49 sec) 
Heartbeat CPU 2 instructions: 30000000 cycles: 14607388 heartbeat IPC: 2.05556 cumulative IPC: 2.05376 (Simulation time: 0 hr 5 min 15 sec) 
Heartbeat CPU 1 instructions: 30000000 cycles: 14736677 heartbeat IPC: 2.03296 cumulative IPC: 2.03574 (Simulation time: 0 hr 5 min 18 sec) 
Heartbeat CPU 3 instructions: 30000002 cycles: 14859449 heartbeat IPC: 1.75418 cumulative IPC: 2.01892 (Simulation time: 0 hr 5 min 21 sec) 
Heartbeat CPU 0 instructions: 40000000 cycles: 17893831 heartbeat IPC: 2.22737 cumulative IPC: 2.23541 (Simulation time: 0 hr 6 min 29 sec) 
Heartbeat CPU 2 instructions: 40000000 cycles: 19472081 heartbeat IPC: 2.05563 cumulative IPC: 2.05422 (Simulation time: 0 hr 7 min 4 sec) 
Heartbeat CPU 3 instructions: 40000000 cycles: 19607290 heartbeat IPC: 2.10622 cumulative IPC: 2.04006 (Simulation time: 0 hr 7 min 8 sec) 
Heartbeat CPU 1 instructions: 40000000 cycles: 19642604 heartbeat IPC: 2.03835 cumulative IPC: 2.03639 (Simulation time: 0 hr 7 min 8 sec) 
Heartbeat CPU 0 instructions: 50000003 cycles: 22421336 heartbeat IPC: 2.20872 cumulative IPC: 2.23002 (Simulation time: 0 hr 8 min 11 sec) 
Heartbeat CPU 2 instructions: 50000003 cycles: 24344706 heartbeat IPC: 2.05228 cumulative IPC: 2.05383 (Simulation time: 0 hr 8 min 54 sec) 
Heartbeat CPU 1 instructions: 50000000 cycles: 24575876 heartbeat IPC: 2.02705 cumulative IPC: 2.03452 (Simulation time: 0 hr 8 min 59 sec) 
Heartbeat CPU 3 instructions: 50000001 cycles: 24927384 heartbeat IPC: 1.87967 cumulative IPC: 2.00583 (Simulation time: 0 hr 9 min 7 sec) 
Heartbeat CPU 0 instructions: 60000000 cycles: 26879042 heartbeat IPC: 2.24331 cumulative IPC: 2.23222 (Simulation time: 0 hr 9 min 51 sec) 
Heartbeat CPU 2 instructions: 60000000 cycles: 29215695 heartbeat IPC: 2.05297 cumulative IPC: 2.05369 (Simulation time: 0 hr 10 min 42 sec) 
Heartbeat CPU 1 instructions: 60000000 cycles: 29502097 heartbeat IPC: 2.02995 cumulative IPC: 2.03375 (Simulation time: 0 hr 10 min 49 sec) 
Heartbeat CPU 3 instructions: 60000000 cycles: 30140512 heartbeat IPC: 1.91823 cumulative IPC: 1.99068 (Simulation time: 0 hr 11 min 3 sec) 
Heartbeat CPU 0 instructions: 70000002 cycles: 31292673 heartbeat IPC: 2.26571 cumulative IPC: 2.23695 (Simulation time: 0 hr 11 min 28 sec) 
Heartbeat CPU 2 instructions: 70000000 cycles: 34077821 heartbeat IPC: 2.05671 cumulative IPC: 2.05412 (Simulation time: 0 hr 12 min 30 sec) 
Heartbeat CPU 1 instructions: 70000000 cycles: 34413701 heartbeat IPC: 2.03599 cumulative IPC: 2.03407 (Simulation time: 0 hr 12 min 38 sec) 
Heartbeat CPU 3 instructions: 70000002 cycles: 35190099 heartbeat IPC: 1.98036 cumulative IPC: 1.9892 (Simulation time: 0 hr 12 min 56 sec) 
Heartbeat CPU 0 instructions: 80000000 cycles: 35715388 heartbeat IPC: 2.26105 cumulative IPC: 2.23993 (Simulation time: 0 hr 13 min 7 sec) 
Heartbeat CPU 2 instructions: 80000000 cycles: 38948219 heartbeat IPC: 2.05322 cumulative IPC: 2.05401 (Simulation time: 0 hr 14 min 19 sec) 
Heartbeat CPU 1 instructions: 80000000 cycles: 39330078 heartbeat IPC: 2.03402 cumulative IPC: 2.03407 (Simulation time: 0 hr 14 min 28 sec) 
Heartbeat CPU 0 instructions: 90000000 cycles: 40165996 heartbeat IPC: 2.24688 cumulative IPC: 2.2407 (Simulation time: 0 hr 14 min 46 sec) 
Heartbeat CPU 3 instructions: 80000000 cycles: 40311571 heartbeat IPC: 1.95256 cumulative IPC: 1.98454 (Simulation time: 0 hr 14 min 50 sec) 
Heartbeat CPU 2 instructions: 90000000 cycles: 43818124 heartbeat IPC: 2.05343 cumulative IPC: 2.05394 (Simulation time: 0 hr 16 min 6 sec) 
Heartbeat CPU 1 instructions: 90000001 cycles: 44273261 heartbeat IPC: 2.02299 cumulative IPC: 2.03283 (Simulation time: 0 hr 16 min 15 sec) 
Heartbeat CPU 0 instructions: 100000000 cycles: 44569599 heartbeat IPC: 2.27087 cumulative IPC: 2.24368 (Simulation time: 0 hr 16 min 22 sec) 
Heartbeat CPU 3 instructions: 90000002 cycles: 45023125 heartbeat IPC: 2.12244 cumulative IPC: 1.99897 (Simulation time: 0 hr 16 min 31 sec) 
Heartbeat CPU 2 instructions: 100000000 cycles: 48685798 heartbeat IPC: 2.05437 cumulative IPC: 2.05399 (Simulation time: 0 hr 17 min 48 sec) 
Heartbeat CPU 0 instructions: 110000003 cycles: 48923901 heartbeat IPC: 2.29658 cumulative IPC: 2.24839 (Simulation time: 0 hr 17 min 53 sec) 
Heartbeat CPU 1 instructions: 100000000 cycles: 49209904 heartbeat IPC: 2.02567 cumulative IPC: 2.03211 (Simulation time: 0 hr 17 min 59 sec) 
Heartbeat CPU 3 instructions: 100000000 cycles: 49430913 heartbeat IPC: 2.26871 cumulative IPC: 2.02303 (Simulation time: 0 hr 18 min 4 sec) 
Heartbeat CPU 0 instructions: 120000000 cycles: 53389256 heartbeat IPC: 2.23946 cumulative IPC: 2.24764 (Simulation time: 0 hr 19 min 32 sec) 
Heartbeat CPU 2 instructions: 110000001 cycles: 53547367 heartbeat IPC: 2.05695 cumulative IPC: 2.05426 (Simulation time: 0 hr 19 min 35 sec) 
Heartbeat CPU 1 instructions: 110000000 cycles: 54158342 heartbeat IPC: 2.02084 cumulative IPC: 2.03108 (Simulation time: 0 hr 19 min 48 sec) 
Heartbeat CPU 3 instructions: 110000002 cycles: 55105696 heartbeat IPC: 1.76218 cumulative IPC: 1.99616 (Simulation time: 0 hr 20 min 9 sec) 
Heartbeat CPU 0 instructions: 130000000 cycles: 57609848 heartbeat IPC: 2.36934 cumulative IPC: 2.25656 (Simulation time: 0 hr 21 min 5 sec) 
Heartbeat CPU 2 instructions: 120000000 cycles: 58436366 heartbeat IPC: 2.04541 cumulative IPC: 2.05352 (Simulation time: 0 hr 21 min 24 sec) 
Heartbeat CPU 1 instructions: 120000000 cycles: 59083835 heartbeat IPC: 2.03025 cumulative IPC: 2.03101 (Simulation time: 0 hr 21 min 39 sec) 
Heartbeat CPU 3 instructions: 120000000 cycles: 59880940 heartbeat IPC: 2.09413 cumulative IPC: 2.00398 (Simulation time: 0 hr 21 min 57 sec) 
Heartbeat CPU 0 instructions: 140000000 cycles: 61782133 heartbeat IPC: 2.39677 cumulative IPC: 2.26603 (Simulation time: 0 hr 22 min 39 sec) 
Heartbeat CPU 2 instructions: 130000000 cycles: 63306025 heartbeat IPC: 2.05353 cumulative IPC: 2.05352 (Simulation time: 0 hr 23 min 14 sec) 
Heartbeat CPU 1 instructions: 130000000 cycles: 64004767 heartbeat IPC: 2.03214 cumulative IPC: 2.0311 (Simulation time: 0 hr 23 min 29 sec) 
Heartbeat CPU 3 instructions: 130000001 cycles: 65184956 heartbeat IPC: 1.88536 cumulative IPC: 1.99433 (Simulation time: 0 hr 23 min 56 sec) 
Heartbeat CPU 0 instructions: 150000000 cycles: 66012323 heartbeat IPC: 2.36396 cumulative IPC: 2.2723 (Simulation time: 0 hr 24 min 14 sec) 
Heartbeat CPU 2 instructions: 140000000 cycles: 68171212 heartbeat IPC: 2.05542 cumulative IPC: 2.05365 (Simulation time: 0 hr 25 min 3 sec) 
Heartbeat CPU 1 instructions: 140000000 cycles: 68941690 heartbeat IPC: 2.02555 cumulative IPC: 2.0307 (Simulation time: 0 hr 25 min 20 sec) 
Heartbeat CPU 0 instructions: 160000000 cycles: 70378168 heartbeat IPC: 2.29051 cumulative IPC: 2.27343 (Simulation time: 0 hr 25 min 51 sec) 
Heartbeat CPU 3 instructions: 140000000 cycles: 70380309 heartbeat IPC: 1.9248 cumulative IPC: 1.98919 (Simulation time: 0 hr 25 min 52 sec) 
Heartbeat CPU 2 instructions: 150000000 cycles: 73034728 heartbeat IPC: 2.05613 cumulative IPC: 2.05382 (Simulation time: 0 hr 26 min 50 sec) 
Heartbeat CPU 1 instructions: 150000001 cycles: 73888727 heartbeat IPC: 2.02141 cumulative IPC: 2.03008 (Simulation time: 0 hr 27 min 10 sec) 
Heartbeat CPU 0 instructions: 170000003 cycles: 74931444 heartbeat IPC: 2.19622 cumulative IPC: 2.26874 (Simulation time: 0 hr 27 min 34 sec) 
Heartbeat CPU 3 instructions: 150000003 cycles: 75466682 heartbeat IPC: 1.96604 cumulative IPC: 1.98763 (Simulation time: 0 hr 27 min 46 sec) 
Heartbeat CPU 2 instructions: 160000000 cycles: 77908279 heartbeat IPC: 2.05189 cumulative IPC: 2.0537 (Simulation time: 0 hr 28 min 41 sec) 
Heartbeat CPU 1 instructions: 160000000 cycles: 78811118 heartbeat IPC: 2.03153 cumulative IPC: 2.03017 (Simulation time: 0 hr 29 min 1 sec) 
Heartbeat CPU 0 instructions: 180000000 cycles: 79466462 heartbeat IPC: 2.20506 cumulative IPC: 2.26511 (Simulation time: 0 hr 29 min 16 sec) 
Heartbeat CPU 3 instructions: 160000000 cycles: 80573372 heartbeat IPC: 1.95821 cumulative IPC: 1.98577 (Simulation time: 0 hr 29 min 41 sec) 
Heartbeat CPU 2 instructions: 170000000 cycles: 82777057 heartbeat IPC: 2.0539 cumulative IPC: 2.05371 (Simulation time: 0 hr 30 min 29 sec) 
Heartbeat CPU 1 instructions: 170000003 cycles: 83725428 heartbeat IPC: 2.03487 cumulative IPC: 2.03045 (Simulation time: 0 hr 30 min 49 sec) 
Heartbeat CPU 0 instructions: 190000001 cycles: 84009091 heartbeat IPC: 2.20137 cumulative IPC: 2.26166 (Simulation time: 0 hr 30 min 55 sec) 
Heartbeat CPU 3 instructions: 170000002 cycles: 85287964 heartbeat IPC: 2.12107 cumulative IPC: 1.99325 (Simulation time: 0 hr 31 min 22 sec) 
Heartbeat CPU 2 instructions: 180000000 cycles: 87637955 heartbeat IPC: 2.05723 cumulative IPC: 2.0539 (Simulation time: 0 hr 32 min 10 sec) 
Heartbeat CPU 0 instructions: 200000000 cycles: 88550414 heartbeat IPC: 2.202 cumulative IPC: 2.2586 (Simulation time: 0 hr 32 min 31 sec) 
Heartbeat CPU 1 instructions: 180000000 cycles: 88605001 heartbeat IPC: 2.04936 cumulative IPC: 2.03149 (Simulation time: 0 hr 32 min 32 sec) 
Heartbeat CPU 3 instructions: 180000000 cycles: 89605973 heartbeat IPC: 2.31588 cumulative IPC: 2.00879 (Simulation time: 0 hr 32 min 56 sec) 
Heartbeat CPU 2 instructions: 190000001 cycles: 92520739 heartbeat IPC: 2.04801 cumulative IPC: 2.05359 (Simulation time: 0 hr 34 min 4 sec) 
Heartbeat CPU 0 instructions: 210000000 cycles: 93082724 heartbeat IPC: 2.20638 cumulative IPC: 0.107431 (Simulation time: 0 hr 34 min 18 sec) 
Heartbeat CPU 1 instructions: 190000001 cycles: 93532984 heartbeat IPC: 2.02923 cumulative IPC: 2.03137 (Simulation time: 0 hr 34 min 28 sec) 
Heartbeat CPU 3 instructions: 190000001 cycles: 95291193 heartbeat IPC: 1.75895 cumulative IPC: 1.99389 (Simulation time: 0 hr 35 min 9 sec) 
Heartbeat CPU 2 instructions: 200000000 cycles: 97389969 heartbeat IPC: 2.05371 cumulative IPC: 2.0536 (Simulation time: 0 hr 35 min 59 sec) 
Heartbeat CPU 0 instructions: 220000000 cycles: 97633217 heartbeat IPC: 2.19756 cumulative IPC: 0.204848 (Simulation time: 0 hr 36 min 5 sec) 
Heartbeat CPU 1 instructions: 200000000 cycles: 98445086 heartbeat IPC: 2.03579 cumulative IPC: 2.03159 (Simulation time: 0 hr 36 min 25 sec) 
Heartbeat CPU 3 instructions: 200000000 cycles: 100099722 heartbeat IPC: 2.07964 cumulative IPC: 1.99801 (Simulation time: 0 hr 37 min 4 sec) 

Warmup complete CPU 0 instructions: 225420288 cycles: 100099724 (Simulation time: 0 hr 37 min 4 sec) 
Warmup complete CPU 1 instructions: 203358085 cycles: 100099724 (Simulation time: 0 hr 37 min 4 sec) 
Warmup complete CPU 2 instructions: 205564766 cycles: 100099724 (Simulation time: 0 hr 37 min 4 sec) 
Warmup complete CPU 3 instructions: 200000004 cycles: 100099724 (Simulation time: 0 hr 37 min 4 sec) 

Heartbeat CPU 0 instructions: 230000002 cycles: 107303996 heartbeat IPC: 1.03404 cumulative IPC: 0.635694 (Simulation time: 0 hr 38 min 4 sec) 
Heartbeat CPU 3 instructions: 210000000 cycles: 112933593 heartbeat IPC: 0.779188 cumulative IPC: 0.779188 (Simulation time: 0 hr 38 min 52 sec) 
Heartbeat CPU 1 instructions: 210000002 cycles: 113533919 heartbeat IPC: 0.662742 cumulative IPC: 0.494404 (Simulation time: 0 hr 38 min 57 sec) 
Heartbeat CPU 0 instructions: 240000000 cycles: 122642215 heartbeat IPC: 0.651966 cumulative IPC: 0.646766 (Simulation time: 0 hr 40 min 6 sec) 
Heartbeat CPU 3 instructions: 220000000 cycles: 127765906 heartbeat IPC: 0.674204 cumulative IPC: 0.722904 (Simulation time: 0 hr 40 min 49 sec) 
Heartbeat CPU 2 instructions: 210000002 cycles: 127966286 heartbeat IPC: 0.327051 cumulative IPC: 0.15916 (Simulation time: 0 hr 40 min 51 sec) 
Heartbeat CPU 1 instructions: 220000000 cycles: 134387599 heartbeat IPC: 0.479532 cumulative IPC: 0.485359 (Simulation time: 0 hr 41 min 43 sec) 
Heartbeat CPU 0 instructions: 250000002 cycles: 138081595 heartbeat IPC: 0.647695 cumulative IPC: 0.647143 (Simulation time: 0 hr 42 min 9 sec) 
Heartbeat CPU 3 instructions: 230000003 cycles: 142397221 heartbeat IPC: 0.683466 cumulative IPC: 0.709262 (Simulation time: 0 hr 42 min 40 sec) 
Heartbeat CPU 0 instructions: 260000000 cycles: 153605789 heartbeat IPC: 0.644156 cumulative IPC: 0.646276 (Simulation time: 0 hr 44 min 9 sec) 
Heartbeat CPU 3 instructions: 240000000 cycles: 154870267 heartbeat IPC: 0.801729 cumulative IPC: 0.730319 (Simulation time: 0 hr 44 min 19 sec) 
Heartbeat CPU 1 instructions: 230000003 cycles: 155502025 heartbeat IPC: 0.47361 cumulative IPC: 0.480881 (Simulation time: 0 hr 44 min 24 sec) 
Heartbeat CPU 3 instructions: 250000000 cycles: 167081063 heartbeat IPC: 0.818947 cumulative IPC: 0.746477 (Simulation time: 0 hr 45 min 51 sec) 
Heartbeat CPU 0 instructions: 270000003 cycles: 169962772 heartbeat IPC: 0.61136 cumulative IPC: 0.638102 (Simulation time: 0 hr 46 min 14 sec) 
Heartbeat CPU 1 instructions: 240000000 cycles: 177363765 heartbeat IPC: 0.45742 cumulative IPC: 0.474243 (Simulation time: 0 hr 47 min 11 sec) 
Heartbeat CPU 3 instructions: 260000000 cycles: 178109726 heartbeat IPC: 0.906728 cumulative IPC: 0.769132 (Simulation time: 0 hr 47 min 16 sec) 
Heartbeat CPU 0 instructions: 280000000 cycles: 186149313 heartbeat IPC: 0.617797 cumulative IPC: 0.634282 (Simulation time: 0 hr 48 min 12 sec) 
Heartbeat CPU 2 instructions: 220000000 cycles: 191219388 heartbeat IPC: 0.158095 cumulative IPC: 0.158421 (Simulation time: 0 hr 48 min 49 sec) 
Heartbeat CPU 3 instructions: 270000000 cycles: 195940631 heartbeat IPC: 0.560824 cumulative IPC: 0.730377 (Simulation time: 0 hr 49 min 24 sec) 
Heartbeat CPU 1 instructions: 250000003 cycles: 199387588 heartbeat IPC: 0.454054 cumulative IPC: 0.469765 (Simulation time: 0 hr 49 min 49 sec) 
Heartbeat CPU 0 instructions: 290000000 cycles: 203286340 heartbeat IPC: 0.583532 cumulative IPC: 0.625854 (Simulation time: 0 hr 50 min 17 sec) 
Heartbeat CPU 3 instructions: 280000000 cycles: 213814958 heartbeat IPC: 0.559462 cumulative IPC: 0.703512 (Simulation time: 0 hr 51 min 29 sec) 
Heartbeat CPU 0 instructions: 300000000 cycles: 220434808 heartbeat IPC: 0.583142 cumulative IPC: 0.619767 (Simulation time: 0 hr 52 min 18 sec) 
Heartbeat CPU 1 instructions: 260000000 cycles: 221113881 heartbeat IPC: 0.460272 cumulative IPC: 0.46806 (Simulation time: 0 hr 52 min 23 sec) 
Heartbeat CPU 3 instructions: 290000002 cycles: 227367763 heartbeat IPC: 0.737855 cumulative IPC: 0.707169 (Simulation time: 0 hr 53 min 13 sec) 
Heartbeat CPU 0 instructions: 310000001 cycles: 236097864 heartbeat IPC: 0.638445 cumulative IPC: 0.621918 (Simulation time: 0 hr 54 min 16 sec) 
Heartbeat CPU 3 instructions: 300000000 cycles: 242119571 heartbeat IPC: 0.677883 cumulative IPC: 0.704127 (Simulation time: 0 hr 55 min 3 sec) 
Heartbeat CPU 1 instructions: 270000001 cycles: 242399980 heartbeat IPC: 0.46979 cumulative IPC: 0.468319 (Simulation time: 0 hr 55 min 5 sec) 
Heartbeat CPU 0 instructions: 320000000 cycles: 249003222 heartbeat IPC: 0.774872 cumulative IPC: 0.635175 (Simulation time: 0 hr 56 min 1 sec) 
Heartbeat CPU 2 instructions: 230000000 cycles: 256029448 heartbeat IPC: 0.154297 cumulative IPC: 0.156707 (Simulation time: 0 hr 56 min 54 sec) 
Heartbeat CPU 3 instructions: 310000001 cycles: 256442404 heartbeat IPC: 0.698186 cumulative IPC: 0.703583 (Simulation time: 0 hr 56 min 57 sec) 
Heartbeat CPU 0 instructions: 330000001 cycles: 260060865 heartbeat IPC: 0.904352 cumulative IPC: 0.653782 (Simulation time: 0 hr 57 min 27 sec) 
Heartbeat CPU 1 instructions: 280000000 cycles: 263414501 heartbeat IPC: 0.475861 cumulative IPC: 0.46929 (Simulation time: 0 hr 57 min 52 sec) 
Heartbeat CPU 3 instructions: 320000000 cycles: 269846787 heartbeat IPC: 0.746025 cumulative IPC: 0.706934 (Simulation time: 0 hr 58 min 41 sec) 
Heartbeat CPU 0 instructions: 340000000 cycles: 275551307 heartbeat IPC: 0.645559 cumulative IPC: 0.653056 (Simulation time: 0 hr 59 min 27 sec) 
Heartbeat CPU 3 instructions: 330000002 cycles: 282070962 heartbeat IPC: 0.818051 cumulative IPC: 0.714399 (Simulation time: 1 hr 0 min 19 sec) 
Heartbeat CPU 1 instructions: 290000002 cycles: 284297016 heartbeat IPC: 0.47887 cumulative IPC: 0.470376 (Simulation time: 1 hr 0 min 38 sec) 
Heartbeat CPU 0 instructions: 350000000 cycles: 287991428 heartbeat IPC: 0.803851 cumulative IPC: 0.66304 (Simulation time: 1 hr 1 min 7 sec) 
Heartbeat CPU 3 instructions: 340000000 cycles: 292693561 heartbeat IPC: 0.941389 cumulative IPC: 0.726918 (Simulation time: 1 hr 1 min 42 sec) 
Heartbeat CPU 0 instructions: 360000000 cycles: 302851472 heartbeat IPC: 0.672945 cumulative IPC: 0.663766 (Simulation time: 1 hr 2 min 55 sec) 
Heartbeat CPU 1 instructions: 300000000 cycles: 304709550 heartbeat IPC: 0.489895 cumulative IPC: 0.472323 (Simulation time: 1 hr 3 min 9 sec) 
Heartbeat CPU 3 instructions: 350000001 cycles: 310516467 heartbeat IPC: 0.561076 cumulative IPC: 0.712871 (Simulation time: 1 hr 3 min 54 sec) 
Heartbeat CPU 0 instructions: 370000000 cycles: 315793291 heartbeat IPC: 0.772689 cumulative IPC: 0.670301 (Simulation time: 1 hr 4 min 36 sec) 
Heartbeat CPU 2 instructions: 240000000 cycles: 321385488 heartbeat IPC: 0.153008 cumulative IPC: 0.155614 (Simulation time: 1 hr 5 min 17 sec) 
Heartbeat CPU 1 instructions: 310000001 cycles: 325053648 heartbeat IPC: 0.491543 cumulative IPC: 0.474061 (Simulation time: 1 hr 5 min 43 sec) 
Heartbeat CPU 0 instructions: 380000000 cycles: 327166210 heartbeat IPC: 0.879282 cumulative IPC: 0.680768 (Simulation time: 1 hr 6 min 0 sec) 
Heartbeat CPU 3 instructions: 360000000 cycles: 328030575 heartbeat IPC: 0.570968 cumulative IPC: 0.701967 (Simulation time: 1 hr 6 min 7 sec) 
Heartbeat CPU 0 instructions: 390000002 cycles: 338643797 heartbeat IPC: 0.871263 cumulative IPC: 0.689934 (Simulation time: 1 hr 7 min 32 sec) 
Heartbeat CPU 3 instructions: 370000000 cycles: 341677878 heartbeat IPC: 0.732746 cumulative IPC: 0.703706 (Simulation time: 1 hr 7 min 57 sec) 
Heartbeat CPU 1 instructions: 320000000 cycles: 345139017 heartbeat IPC: 0.497875 cumulative IPC: 0.476013 (Simulation time: 1 hr 8 min 26 sec) 
Heartbeat CPU 0 instructions: 400000000 cycles: 349784859 heartbeat IPC: 0.89758 cumulative IPC: 0.699199 (Simulation time: 1 hr 9 min 4 sec) 
Heartbeat CPU 3 instructions: 380000000 cycles: 356355017 heartbeat IPC: 0.681332 cumulative IPC: 0.702425 (Simulation time: 1 hr 9 min 58 sec) 
Heartbeat CPU 0 instructions: 410000002 cycles: 364156338 heartbeat IPC: 0.695823 cumulative IPC: 0.699016 (Simulation time: 1 hr 11 min 14 sec) 
Heartbeat CPU 1 instructions: 330000000 cycles: 365062818 heartbeat IPC: 0.501912 cumulative IPC: 0.477961 (Simulation time: 1 hr 11 min 22 sec) 
Heartbeat CPU 3 instructions: 390000003 cycles: 370633255 heartbeat IPC: 0.700367 cumulative IPC: 0.702316 (Simulation time: 1 hr 12 min 8 sec) 
Heartbeat CPU 0 instructions: 420000000 cycles: 377717000 heartbeat IPC: 0.737427 cumulative IPC: 0.700892 (Simulation time: 1 hr 13 min 15 sec) 
Heartbeat CPU 3 instructions: 400000000 cycles: 383039860 heartbeat IPC: 0.806022 cumulative IPC: 0.706863 (Simulation time: 1 hr 14 min 8 sec) 
Heartbeat CPU 2 instructions: 250000003 cycles: 384674468 heartbeat IPC: 0.158005 cumulative IPC: 0.156146 (Simulation time: 1 hr 14 min 23 sec) 
Heartbeat CPU 1 instructions: 340000000 cycles: 384960555 heartbeat IPC: 0.50257 cumulative IPC: 0.47968 (Simulation time: 1 hr 14 min 25 sec) 
Heartbeat CPU 0 instructions: 430000000 cycles: 388450768 heartbeat IPC: 0.931639 cumulative IPC: 0.709481 (Simulation time: 1 hr 14 min 53 sec) 
Heartbeat CPU 3 instructions: 410000002 cycles: 395556361 heartbeat IPC: 0.798945 cumulative IPC: 0.710764 (Simulation time: 1 hr 15 min 52 sec) 
Heartbeat CPU 0 instructions: 440000000 cycles: 402065096 heartbeat IPC: 0.73452 cumulative IPC: 0.71061 (Simulation time: 1 hr 16 min 48 sec) 
Heartbeat CPU 1 instructions: 350000000 cycles: 405371835 heartbeat IPC: 0.489925 cumulative IPC: 0.480365 (Simulation time: 1 hr 17 min 16 sec) 
Heartbeat CPU 3 instructions: 420000000 cycles: 405936017 heartbeat IPC: 0.963423 cumulative IPC: 0.719339 (Simulation time: 1 hr 17 min 21 sec) 
Heartbeat CPU 0 instructions: 450000001 cycles: 412514527 heartbeat IPC: 0.95699 cumulative IPC: 0.718851 (Simulation time: 1 hr 18 min 14 sec) 
Heartbeat CPU 0 instructions: 460000000 cycles: 422761802 heartbeat IPC: 0.975869 cumulative IPC: 0.727014 (Simulation time: 1 hr 19 min 41 sec) 
Heartbeat CPU 3 instructions: 430000001 cycles: 423819263 heartbeat IPC: 0.559183 cumulative IPC: 0.710492 (Simulation time: 1 hr 19 min 50 sec) 
Heartbeat CPU 1 instructions: 360000000 cycles: 426165406 heartbeat IPC: 0.480918 cumulative IPC: 0.4804 (Simulation time: 1 hr 20 min 10 sec) 
Heartbeat CPU 0 instructions: 470000002 cycles: 433032550 heartbeat IPC: 0.973639 cumulative IPC: 0.734622 (Simulation time: 1 hr 21 min 7 sec) 
Heartbeat CPU 3 instructions: 440000000 cycles: 441505285 heartbeat IPC: 0.565418 cumulative IPC: 0.702976 (Simulation time: 1 hr 22 min 13 sec) 
Heartbeat CPU 0 instructions: 480000000 cycles: 443873950 heartbeat IPC: 0.92239 cumulative IPC: 0.740543 (Simulation time: 1 hr 22 min 32 sec) 
Heartbeat CPU 1 instructions: 370000000 cycles: 447316786 heartbeat IPC: 0.472782 cumulative IPC: 0.479936 (Simulation time: 1 hr 23 min 0 sec) 
Heartbeat CPU 2 instructions: 260000000 cycles: 448878524 heartbeat IPC: 0.155753 cumulative IPC: 0.156074 (Simulation time: 1 hr 23 min 14 sec) 
Heartbeat CPU 0 instructions: 490000000 cycles: 454510671 heartbeat IPC: 0.940139 cumulative IPC: 0.746534 (Simulation time: 1 hr 24 min 5 sec) 
Heartbeat CPU 3 instructions: 450000001 cycles: 455171148 heartbeat IPC: 0.73175 cumulative IPC: 0.704084 (Simulation time: 1 hr 24 min 11 sec) 
Heartbeat CPU 0 instructions: 500000000 cycles: 464958158 heartbeat IPC: 0.957168 cumulative IPC: 0.752565 (Simulation time: 1 hr 25 min 31 sec) 
Heartbeat CPU 1 instructions: 380000000 cycles: 468095134 heartbeat IPC: 0.48127 cumulative IPC: 0.480011 (Simulation time: 1 hr 25 min 58 sec) 
Heartbeat CPU 3 instructions: 460000000 cycles: 469908277 heartbeat IPC: 0.678558 cumulative IPC: 0.703066 (Simulation time: 1 hr 26 min 15 sec) 
Heartbeat CPU 0 instructions: 510000001 cycles: 475269321 heartbeat IPC: 0.969823 cumulative IPC: 0.758536 (Simulation time: 1 hr 27 min 3 sec) 
Heartbeat CPU 3 instructions: 470000003 cycles: 484130371 heartbeat IPC: 0.703132 cumulative IPC: 0.703069 (Simulation time: 1 hr 28 min 14 sec) 
Heartbeat CPU 0 instructions: 520000000 cycles: 487009063 heartbeat IPC: 0.851807 cumulative IPC: 0.761366 (Simulation time: 1 hr 28 min 38 sec) 
Heartbeat CPU 1 instructions: 390000001 cycles: 488445788 heartbeat IPC: 0.491385 cumulative IPC: 0.480607 (Simulation time: 1 hr 28 min 51 sec) 
Heartbeat CPU 3 instructions: 480000000 cycles: 496396294 heartbeat IPC: 0.815267 cumulative IPC: 0.706542 (Simulation time: 1 hr 30 min 1 sec) 
Heartbeat CPU 0 instructions: 530000002 cycles: 497863311 heartbeat IPC: 0.921298 cumulative IPC: 0.765731 (Simulation time: 1 hr 30 min 14 sec) 
Heartbeat CPU 3 instructions: 490000003 cycles: 508975685 heartbeat IPC: 0.794951 cumulative IPC: 0.709262 (Simulation time: 1 hr 31 min 46 sec) 
Heartbeat CPU 1 instructions: 400000000 cycles: 509313841 heartbeat IPC: 0.479201 cumulative IPC: 0.480536 (Simulation time: 1 hr 31 min 48 sec) 
Heartbeat CPU 0 instructions: 540000000 cycles: 511892547 heartbeat IPC: 0.712797 cumulative IPC: 0.763927 (Simulation time: 1 hr 32 min 9 sec) 
Heartbeat CPU 2 instructions: 270000000 cycles: 512958133 heartbeat IPC: 0.156056 cumulative IPC: 0.156071 (Simulation time: 1 hr 32 min 17 sec) 
Heartbeat CPU 3 instructions: 500000000 cycles: 519168681 heartbeat IPC: 0.981066 cumulative IPC: 0.715873 (Simulation time: 1 hr 33 min 9 sec) 
Heartbeat CPU 0 instructions: 550000000 cycles: 525738049 heartbeat IPC: 0.722256 cumulative IPC: 0.762572 (Simulation time: 1 hr 34 min 0 sec) 
Heartbeat CPU 1 instructions: 410000000 cycles: 529617240 heartbeat IPC: 0.492528 cumulative IPC: 0.481102 (Simulation time: 1 hr 34 min 28 sec) 
Heartbeat CPU 3 instructions: 510000002 cycles: 536952243 heartbeat IPC: 0.562317 cumulative IPC: 0.709622 (Simulation time: 1 hr 35 min 27 sec) 
Heartbeat CPU 0 instructions: 560000000 cycles: 537596336 heartbeat IPC: 0.843292 cumulative IPC: 0.76476 (Simulation time: 1 hr 35 min 32 sec) 
Heartbeat CPU 1 instructions: 420000000 cycles: 549659743 heartbeat IPC: 0.49894 cumulative IPC: 0.481898 (Simulation time: 1 hr 37 min 4 sec) 
Heartbeat CPU 0 instructions: 570000000 cycles: 549704217 heartbeat IPC: 0.825908 cumulative IPC: 0.766406 (Simulation time: 1 hr 37 min 4 sec) 
Heartbeat CPU 3 instructions: 520000000 cycles: 554418458 heartbeat IPC: 0.572534 cumulative IPC: 0.704351 (Simulation time: 1 hr 37 min 38 sec) 
Heartbeat CPU 0 instructions: 580000000 cycles: 562208678 heartbeat IPC: 0.799715 cumulative IPC: 0.767308 (Simulation time: 1 hr 38 min 38 sec) 
Heartbeat CPU 3 instructions: 530000000 cycles: 568160815 heartbeat IPC: 0.727677 cumulative IPC: 0.705036 (Simulation time: 1 hr 39 min 28 sec) 
Heartbeat CPU 1 instructions: 430000003 cycles: 569945896 heartbeat IPC: 0.492947 cumulative IPC: 0.482375 (Simulation time: 1 hr 39 min 43 sec) 
Heartbeat CPU 0 instructions: 590000000 cycles: 574000822 heartbeat IPC: 0.848022 cumulative IPC: 0.769316 (Simulation time: 1 hr 40 min 14 sec) 
Heartbeat CPU 2 instructions: 280000000 cycles: 577233156 heartbeat IPC: 0.155581 cumulative IPC: 0.156005 (Simulation time: 1 hr 40 min 38 sec) 
Heartbeat CPU 3 instructions: 540000000 cycles: 582700434 heartbeat IPC: 0.687776 cumulative IPC: 0.704516 (Simulation time: 1 hr 41 min 22 sec) 
Heartbeat CPU 0 instructions: 600000000 cycles: 585900609 heartbeat IPC: 0.840351 cumulative IPC: 0.771056 (Simulation time: 1 hr 41 min 49 sec) 
Heartbeat CPU 1 instructions: 440000000 cycles: 589678585 heartbeat IPC: 0.506773 cumulative IPC: 0.483358 (Simulation time: 1 hr 42 min 19 sec) 
Heartbeat CPU 3 instructions: 550000003 cycles: 596550181 heartbeat IPC: 0.722035 cumulative IPC: 0.705005 (Simulation time: 1 hr 43 min 8 sec) 
Heartbeat CPU 0 instructions: 610000001 cycles: 601160299 heartbeat IPC: 0.655321 cumulative IPC: 0.767531 (Simulation time: 1 hr 43 min 43 sec) 
Heartbeat CPU 3 instructions: 560000000 cycles: 608926015 heartbeat IPC: 0.808026 cumulative IPC: 0.707511 (Simulation time: 1 hr 44 min 48 sec) 
Heartbeat CPU 1 instructions: 450000003 cycles: 609382034 heartbeat IPC: 0.507526 cumulative IPC: 0.484293 (Simulation time: 1 hr 44 min 51 sec) 
Heartbeat CPU 0 instructions: 620000000 cycles: 613639692 heartbeat IPC: 0.801321 cumulative IPC: 0.768353 (Simulation time: 1 hr 45 min 25 sec) 
Heartbeat CPU 3 instructions: 570000000 cycles: 621606504 heartbeat IPC: 0.788613 cumulative IPC: 0.709483 (Simulation time: 1 hr 46 min 27 sec) 
Heartbeat CPU 0 instructions: 630000001 cycles: 626207817 heartbeat IPC: 0.795664 cumulative IPC: 0.769005 (Simulation time: 1 hr 47 min 4 sec) 
Heartbeat CPU 1 instructions: 460000000 cycles: 629454385 heartbeat IPC: 0.498198 cumulative IPC: 0.48482 (Simulation time: 1 hr 47 min 31 sec) 
Heartbeat CPU 3 instructions: 580000000 cycles: 631555844 heartbeat IPC: 1.00509 cumulative IPC: 0.715017 (Simulation time: 1 hr 47 min 48 sec) 
Heartbeat CPU 0 instructions: 640000000 cycles: 638716348 heartbeat IPC: 0.799454 cumulative IPC: 0.769712 (Simulation time: 1 hr 48 min 44 sec) 
Heartbeat CPU 2 instructions: 290000002 cycles: 639965329 heartbeat IPC: 0.159408 cumulative IPC: 0.1564 (Simulation time: 1 hr 48 min 54 sec) 
Heartbeat CPU 3 instructions: 590000003 cycles: 649382822 heartbeat IPC: 0.560948 cumulative IPC: 0.710016 (Simulation time: 1 hr 50 min 11 sec) 
Heartbeat CPU 1 instructions: 470000002 cycles: 649863818 heartbeat IPC: 0.48997 cumulative IPC: 0.485012 (Simulation time: 1 hr 50 min 15 sec) 
Heartbeat CPU 0 instructions: 650000001 cycles: 651222387 heartbeat IPC: 0.799614 cumulative IPC: 0.770391 (Simulation time: 1 hr 50 min 26 sec) 
Heartbeat CPU 0 instructions: 660000000 cycles: 663065309 heartbeat IPC: 0.844386 cumulative IPC: 0.771947 (Simulation time: 1 hr 52 min 1 sec) 
Heartbeat CPU 3 instructions: 600000000 cycles: 666806070 heartbeat IPC: 0.573946 cumulative IPC: 0.705833 (Simulation time: 1 hr 52 min 29 sec) 
Heartbeat CPU 1 instructions: 480000000 cycles: 670224372 heartbeat IPC: 0.491146 cumulative IPC: 0.485231 (Simulation time: 1 hr 52 min 55 sec) 
Heartbeat CPU 0 instructions: 670000001 cycles: 675726112 heartbeat IPC: 0.789839 cumulative IPC: 0.772341 (Simulation time: 1 hr 53 min 40 sec) 
Heartbeat CPU 3 instructions: 610000003 cycles: 680890918 heartbeat IPC: 0.709983 cumulative IPC: 0.705934 (Simulation time: 1 hr 54 min 26 sec) 
Heartbeat CPU 0 instructions: 680000000 cycles: 689509338 heartbeat IPC: 0.725519 cumulative IPC: 0.771246 (Simulation time: 1 hr 55 min 32 sec) 
Heartbeat CPU 1 instructions: 490000001 cycles: 690329925 heartbeat IPC: 0.497375 cumulative IPC: 0.485644 (Simulation time: 1 hr 55 min 39 sec) 
Heartbeat CPU 3 instructions: 620000000 cycles: 695625979 heartbeat IPC: 0.678653 cumulative IPC: 0.705259 (Simulation time: 1 hr 56 min 22 sec) 
Heartbeat CPU 0 instructions: 690000003 cycles: 702140419 heartbeat IPC: 0.791698 cumulative IPC: 0.771675 (Simulation time: 1 hr 57 min 20 sec) 
Heartbeat CPU 2 instructions: 300000000 cycles: 704456490 heartbeat IPC: 0.15506 cumulative IPC: 0.156257 (Simulation time: 1 hr 57 min 39 sec) 
Heartbeat CPU 3 instructions: 630000003 cycles: 709281766 heartbeat IPC: 0.732291 cumulative IPC: 0.705865 (Simulation time: 1 hr 58 min 15 sec) 
Heartbeat CPU 1 instructions: 500000000 cycles: 710530937 heartbeat IPC: 0.495025 cumulative IPC: 0.485955 (Simulation time: 1 hr 58 min 25 sec) 
Heartbeat CPU 0 instructions: 700000000 cycles: 715383592 heartbeat IPC: 0.755106 cumulative IPC: 0.771318 (Simulation time: 1 hr 59 min 5 sec) 
Heartbeat CPU 3 instructions: 640000000 cycles: 721978812 heartbeat IPC: 0.787585 cumulative IPC: 0.707533 (Simulation time: 2 hr 0 min 3 sec) 
Heartbeat CPU 0 instructions: 710000000 cycles: 727950814 heartbeat IPC: 0.795721 cumulative IPC: 0.771807 (Simulation time: 2 hr 0 min 52 sec) 
Heartbeat CPU 1 instructions: 510000002 cycles: 731184327 heartbeat IPC: 0.484182 cumulative IPC: 0.485897 (Simulation time: 2 hr 1 min 18 sec) 
Heartbeat CPU 3 instructions: 650000001 cycles: 734679655 heartbeat IPC: 0.787349 cumulative IPC: 0.709131 (Simulation time: 2 hr 1 min 48 sec) 
Heartbeat CPU 0 instructions: 720000000 cycles: 740620641 heartbeat IPC: 0.789277 cumulative IPC: 0.772152 (Simulation time: 2 hr 2 min 38 sec) 
Heartbeat CPU 3 instructions: 660000000 cycles: 744752153 heartbeat IPC: 0.992802 cumulative IPC: 0.713563 (Simulation time: 2 hr 3 min 13 sec) 
Heartbeat CPU 1 instructions: 520000000 cycles: 750651231 heartbeat IPC: 0.513692 cumulative IPC: 0.486728 (Simulation time: 2 hr 4 min 0 sec) 
Heartbeat CPU 0 instructions: 730000001 cycles: 753426812 heartbeat IPC: 0.780874 cumulative IPC: 0.772323 (Simulation time: 2 hr 4 min 20 sec) 
Heartbeat CPU 3 instructions: 670000001 cycles: 762278217 heartbeat IPC: 0.570579 cumulative IPC: 0.709778 (Simulation time: 2 hr 5 min 28 sec) 
Heartbeat CPU 2 instructions: 310000003 cycles: 768671654 heartbeat IPC: 0.155727 cumulative IPC: 0.156206 (Simulation time: 2 hr 6 min 19 sec) 
Heartbeat CPU 0 instructions: 740000000 cycles: 770517803 heartbeat IPC: 0.585104 cumulative IPC: 0.76755 (Simulation time: 2 hr 6 min 33 sec) 
Heartbeat CPU 1 instructions: 530000001 cycles: 771579009 heartbeat IPC: 0.477834 cumulative IPC: 0.486451 (Simulation time: 2 hr 6 min 41 sec) 
Heartbeat CPU 3 instructions: 680000000 cycles: 779549416 heartbeat IPC: 0.578999 cumulative IPC: 0.706454 (Simulation time: 2 hr 7 min 37 sec) 
Heartbeat CPU 0 instructions: 750000001 cycles: 791477688 heartbeat IPC: 0.477102 cumulative IPC: 0.758745 (Simulation time: 2 hr 9 min 22 sec) 
Heartbeat CPU 1 instructions: 540000000 cycles: 792673868 heartbeat IPC: 0.474049 cumulative IPC: 0.486073 (Simulation time: 2 hr 9 min 32 sec) 
Heartbeat CPU 3 instructions: 690000003 cycles: 793663511 heartbeat IPC: 0.708512 cumulative IPC: 0.706496 (Simulation time: 2 hr 9 min 41 sec) 
Heartbeat CPU 3 instructions: 700000000 cycles: 808433070 heartbeat IPC: 0.677068 cumulative IPC: 0.705882 (Simulation time: 2 hr 11 min 42 sec) 
Heartbeat CPU 1 instructions: 550000000 cycles: 813546560 heartbeat IPC: 0.479095 cumulative IPC: 0.485869 (Simulation time: 2 hr 12 min 25 sec) 
Heartbeat CPU 0 instructions: 760000000 cycles: 814532047 heartbeat IPC: 0.433757 cumulative IPC: 0.748258 (Simulation time: 2 hr 12 min 33 sec) 
Heartbeat CPU 3 instructions: 710000002 cycles: 822164194 heartbeat IPC: 0.728273 cumulative IPC: 0.706308 (Simulation time: 2 hr 13 min 34 sec) 
Heartbeat CPU 2 instructions: 320000000 cycles: 833040625 heartbeat IPC: 0.155354 cumulative IPC: 0.156132 (Simulation time: 2 hr 15 min 6 sec) 
Heartbeat CPU 1 instructions: 560000000 cycles: 834201195 heartbeat IPC: 0.484153 cumulative IPC: 0.485821 (Simulation time: 2 hr 15 min 16 sec) 
Heartbeat CPU 3 instructions: 720000000 cycles: 835149978 heartbeat IPC: 0.770073 cumulative IPC: 0.707435 (Simulation time: 2 hr 15 min 23 sec) 
Heartbeat CPU 0 instructions: 770000001 cycles: 836980077 heartbeat IPC: 0.445473 cumulative IPC: 0.739034 (Simulation time: 2 hr 15 min 37 sec) 
Heartbeat CPU 3 instructions: 730000003 cycles: 848013124 heartbeat IPC: 0.777415 cumulative IPC: 0.708638 (Simulation time: 2 hr 16 min 56 sec) 
Heartbeat CPU 1 instructions: 570000000 cycles: 854459574 heartbeat IPC: 0.493623 cumulative IPC: 0.486031 (Simulation time: 2 hr 17 min 46 sec) 
Heartbeat CPU 3 instructions: 740000000 cycles: 858110823 heartbeat IPC: 0.990324 cumulative IPC: 0.712391 (Simulation time: 2 hr 18 min 14 sec) 
Heartbeat CPU 0 instructions: 780000000 cycles: 858535756 heartbeat IPC: 0.463915 cumulative IPC: 0.731215 (Simulation time: 2 hr 18 min 17 sec) 
Heartbeat CPU 3 instructions: 750000000 cycles: 875335057 heartbeat IPC: 0.580577 cumulative IPC: 0.709462 (Simulation time: 2 hr 20 min 16 sec) 
Heartbeat CPU 1 instructions: 580000000 cycles: 875664888 heartbeat IPC: 0.47158 cumulative IPC: 0.485635 (Simulation time: 2 hr 20 min 19 sec) 
Heartbeat CPU 0 instructions: 790000000 cycles: 882160129 heartbeat IPC: 0.423292 cumulative IPC: 0.721913 (Simulation time: 2 hr 21 min 8 sec) 
Heartbeat CPU 3 instructions: 760000000 cycles: 892497131 heartbeat IPC: 0.58268 cumulative IPC: 0.706716 (Simulation time: 2 hr 22 min 19 sec) 
Heartbeat CPU 1 instructions: 590000002 cycles: 896579659 heartbeat IPC: 0.478131 cumulative IPC: 0.485438 (Simulation time: 2 hr 22 min 47 sec) 
Heartbeat CPU 2 instructions: 330000003 cycles: 896950654 heartbeat IPC: 0.15647 cumulative IPC: 0.156159 (Simulation time: 2 hr 22 min 50 sec) 
Heartbeat CPU 0 instructions: 800000000 cycles: 904332099 heartbeat IPC: 0.45102 cumulative IPC: 0.714445 (Simulation time: 2 hr 23 min 44 sec) 
Heartbeat CPU 3 instructions: 770000002 cycles: 906876070 heartbeat IPC: 0.695462 cumulative IPC: 0.706515 (Simulation time: 2 hr 24 min 3 sec) 
Heartbeat CPU 1 instructions: 600000000 cycles: 917612827 heartbeat IPC: 0.475439 cumulative IPC: 0.485181 (Simulation time: 2 hr 25 min 16 sec) 
Heartbeat CPU 3 instructions: 780000000 cycles: 921764531 heartbeat IPC: 0.671661 cumulative IPC: 0.705884 (Simulation time: 2 hr 25 min 46 sec) 
Heartbeat CPU 0 instructions: 810000000 cycles: 927127981 heartbeat IPC: 0.438676 cumulative IPC: 0.706844 (Simulation time: 2 hr 26 min 28 sec) 
Heartbeat CPU 3 instructions: 790000002 cycles: 935697013 heartbeat IPC: 0.717747 cumulative IPC: 0.706082 (Simulation time: 2 hr 27 min 29 sec) 
Heartbeat CPU 1 instructions: 610000003 cycles: 938988329 heartbeat IPC: 0.467825 cumulative IPC: 0.484739 (Simulation time: 2 hr 27 min 51 sec) 
Heartbeat CPU 3 instructions: 800000000 cycles: 948831240 heartbeat IPC: 0.761369 cumulative IPC: 0.706937 (Simulation time: 2 hr 29 min 7 sec) 
Heartbeat CPU 0 instructions: 820000000 cycles: 950949190 heartbeat IPC: 0.419794 cumulative IPC: 0.698807 (Simulation time: 2 hr 29 min 24 sec) 
Heartbeat CPU 1 instructions: 620000000 cycles: 960107154 heartbeat IPC: 0.473511 cumulative IPC: 0.484463 (Simulation time: 2 hr 30 min 31 sec) 
Heartbeat CPU 3 instructions: 810000000 cycles: 961785734 heartbeat IPC: 0.771933 cumulative IPC: 0.707914 (Simulation time: 2 hr 30 min 44 sec) 
Heartbeat CPU 2 instructions: 340000000 cycles: 962098570 heartbeat IPC: 0.153497 cumulative IPC: 0.155958 (Simulation time: 2 hr 30 min 46 sec) 
Heartbeat CPU 3 instructions: 820000000 cycles: 971887504 heartbeat IPC: 0.989926 cumulative IPC: 0.711182 (Simulation time: 2 hr 32 min 0 sec) 
Heartbeat CPU 0 instructions: 830000000 cycles: 973898638 heartbeat IPC: 0.43574 cumulative IPC: 0.691898 (Simulation time: 2 hr 32 min 14 sec) 
Heartbeat CPU 1 instructions: 630000002 cycles: 981366060 heartbeat IPC: 0.470391 cumulative IPC: 0.484124 (Simulation time: 2 hr 33 min 8 sec) 
Heartbeat CPU 3 instructions: 830000000 cycles: 988956268 heartbeat IPC: 0.585865 cumulative IPC: 0.708776 (Simulation time: 2 hr 34 min 2 sec) 
Heartbeat CPU 0 instructions: 840000000 cycles: 994987784 heartbeat IPC: 0.474178 cumulative IPC: 0.686767 (Simulation time: 2 hr 34 min 48 sec) 
Heartbeat CPU 1 instructions: 640000000 cycles: 1002790662 heartbeat IPC: 0.466753 cumulative IPC: 0.483711 (Simulation time: 2 hr 35 min 38 sec) 
Heartbeat CPU 3 instructions: 840000000 cycles: 1006269247 heartbeat IPC: 0.577601 cumulative IPC: 0.70627 (Simulation time: 2 hr 35 min 59 sec) 
Heartbeat CPU 0 instructions: 850000000 cycles: 1018606586 heartbeat IPC: 0.423391 cumulative IPC: 0.679995 (Simulation time: 2 hr 37 min 23 sec) 
Heartbeat CPU 3 instructions: 850000001 cycles: 1020708987 heartbeat IPC: 0.692533 cumulative IPC: 0.706054 (Simulation time: 2 hr 37 min 39 sec) 
Heartbeat CPU 1 instructions: 650000001 cycles: 1024754719 heartbeat IPC: 0.455289 cumulative IPC: 0.483036 (Simulation time: 2 hr 38 min 11 sec) 
Heartbeat CPU 2 instructions: 350000003 cycles: 1027623854 heartbeat IPC: 0.152613 cumulative IPC: 0.155721 (Simulation time: 2 hr 38 min 32 sec) 
Heartbeat CPU 3 instructions: 860000000 cycles: 1035466953 heartbeat IPC: 0.6776 cumulative IPC: 0.705605 (Simulation time: 2 hr 39 min 28 sec) 
Heartbeat CPU 0 instructions: 860000000 cycles: 1039180715 heartbeat IPC: 0.486047 cumulative IPC: 0.675745 (Simulation time: 2 hr 39 min 57 sec) 
Heartbeat CPU 1 instructions: 660000000 cycles: 1046145850 heartbeat IPC: 0.467483 cumulative IPC: 0.482685 (Simulation time: 2 hr 40 min 51 sec) 
Heartbeat CPU 3 instructions: 870000003 cycles: 1049285873 heartbeat IPC: 0.723646 cumulative IPC: 0.705868 (Simulation time: 2 hr 41 min 12 sec) 
Heartbeat CPU 0 instructions: 870000001 cycles: 1060794661 heartbeat IPC: 0.462664 cumulative IPC: 0.670951 (Simulation time: 2 hr 42 min 38 sec) 
Heartbeat CPU 3 instructions: 880000000 cycles: 1062569126 heartbeat IPC: 0.752827 cumulative IPC: 0.706516 (Simulation time: 2 hr 42 min 52 sec) 
Heartbeat CPU 1 instructions: 670000001 cycles: 1067260645 heartbeat IPC: 0.473602 cumulative IPC: 0.482486 (Simulation time: 2 hr 43 min 29 sec) 
Heartbeat CPU 3 instructions: 890000002 cycles: 1075556319 heartbeat IPC: 0.769989 cumulative IPC: 0.707361 (Simulation time: 2 hr 44 min 31 sec) 
Heartbeat CPU 0 instructions: 880000000 cycles: 1078304368 heartbeat IPC: 0.571112 cumulative IPC: 0.669164 (Simulation time: 2 hr 44 min 55 sec) 
Heartbeat CPU 3 instructions: 900000000 cycles: 1085637492 heartbeat IPC: 0.991948 cumulative IPC: 0.710272 (Simulation time: 2 hr 45 min 55 sec) 
Heartbeat CPU 1 instructions: 680000000 cycles: 1088666917 heartbeat IPC: 0.467153 cumulative IPC: 0.482154 (Simulation time: 2 hr 46 min 17 sec) 
Heartbeat CPU 2 instructions: 360000000 cycles: 1091457633 heartbeat IPC: 0.156657 cumulative IPC: 0.155782 (Simulation time: 2 hr 46 min 36 sec) 
Heartbeat CPU 0 instructions: 890000000 cycles: 1096526872 heartbeat IPC: 0.548772 cumulative IPC: 0.666963 (Simulation time: 2 hr 47 min 11 sec) 
Heartbeat CPU 3 instructions: 910000001 cycles: 1102497416 heartbeat IPC: 0.593123 cumulative IPC: 0.708302 (Simulation time: 2 hr 47 min 55 sec) 
Heartbeat CPU 1 instructions: 690000003 cycles: 1110289323 heartbeat IPC: 0.462483 cumulative IPC: 0.481733 (Simulation time: 2 hr 48 min 53 sec) 
Heartbeat CPU 0 instructions: 900000000 cycles: 1119280699 heartbeat IPC: 0.439487 cumulative IPC: 0.661884 (Simulation time: 2 hr 49 min 54 sec) 
Heartbeat CPU 3 instructions: 920000000 cycles: 1119698314 heartbeat IPC: 0.581365 cumulative IPC: 0.70616 (Simulation time: 2 hr 49 min 57 sec) 
Heartbeat CPU 1 instructions: 700000000 cycles: 1131639281 heartbeat IPC: 0.468385 cumulative IPC: 0.481457 (Simulation time: 2 hr 51 min 22 sec) 
Heartbeat CPU 3 instructions: 930000000 cycles: 1134434933 heartbeat IPC: 0.678582 cumulative IPC: 0.705767 (Simulation time: 2 hr 51 min 44 sec) 
Heartbeat CPU 0 instructions: 910000000 cycles: 1142752827 heartbeat IPC: 0.426037 cumulative IPC: 0.656575 (Simulation time: 2 hr 52 min 45 sec) 
Heartbeat CPU 3 instructions: 940000000 cycles: 1149189037 heartbeat IPC: 0.677778 cumulative IPC: 0.705374 (Simulation time: 2 hr 53 min 30 sec) 
Heartbeat CPU 1 instructions: 710000002 cycles: 1151937047 heartbeat IPC: 0.492665 cumulative IPC: 0.481673 (Simulation time: 2 hr 53 min 52 sec) 
Heartbeat CPU 2 instructions: 370000003 cycles: 1156188049 heartbeat IPC: 0.154487 cumulative IPC: 0.155702 (Simulation time: 2 hr 54 min 26 sec) 
Heartbeat CPU 3 instructions: 950000000 cycles: 1162831699 heartbeat IPC: 0.732995 cumulative IPC: 0.705728 (Simulation time: 2 hr 55 min 14 sec) 
Heartbeat CPU 0 instructions: 920000000 cycles: 1166013361 heartbeat IPC: 0.429913 cumulative IPC: 0.651628 (Simulation time: 2 hr 55 min 35 sec) 
Heartbeat CPU 1 instructions: 720000000 cycles: 1172725563 heartbeat IPC: 0.481035 cumulative IPC: 0.481661 (Simulation time: 2 hr 56 min 27 sec) 
Heartbeat CPU 3 instructions: 960000000 cycles: 1176400334 heartbeat IPC: 0.736994 cumulative IPC: 0.706122 (Simulation time: 2 hr 56 min 55 sec) 
Heartbeat CPU 0 instructions: 930000002 cycles: 1186721596 heartbeat IPC: 0.4829 cumulative IPC: 0.648413 (Simulation time: 2 hr 58 min 14 sec) 
Heartbeat CPU 3 instructions: 970000002 cycles: 1189444541 heartbeat IPC: 0.766624 cumulative IPC: 0.706847 (Simulation time: 2 hr 58 min 35 sec) 
Heartbeat CPU 1 instructions: 730000000 cycles: 1193200453 heartbeat IPC: 0.488403 cumulative IPC: 0.481787 (Simulation time: 2 hr 59 min 5 sec) 
Heartbeat CPU 3 instructions: 980000000 cycles: 1199544495 heartbeat IPC: 0.990103 cumulative IPC: 0.709449 (Simulation time: 2 hr 59 min 56 sec) 
Heartbeat CPU 0 instructions: 940000000 cycles: 1203911929 heartbeat IPC: 0.581722 cumulative IPC: 0.647374 (Simulation time: 3 hr 0 min 30 sec) 
Heartbeat CPU 1 instructions: 740000000 cycles: 1212884805 heartbeat IPC: 0.508018 cumulative IPC: 0.482251 (Simulation time: 3 hr 1 min 35 sec) 
Heartbeat CPU 3 instructions: 990000000 cycles: 1216423281 heartbeat IPC: 0.59246 cumulative IPC: 0.70768 (Simulation time: 3 hr 2 min 1 sec) 
Heartbeat CPU 2 instructions: 380000000 cycles: 1221320167 heartbeat IPC: 0.153534 cumulative IPC: 0.155576 (Simulation time: 3 hr 2 min 37 sec) 
Heartbeat CPU 0 instructions: 950000003 cycles: 1224666811 heartbeat IPC: 0.481815 cumulative IPC: 0.644319 (Simulation time: 3 hr 3 min 2 sec) 
Heartbeat CPU 1 instructions: 750000001 cycles: 1233092968 heartbeat IPC: 0.49485 cumulative IPC: 0.482476 (Simulation time: 3 hr 3 min 59 sec) 
Heartbeat CPU 3 instructions: 1000000000 cycles: 1233668097 heartbeat IPC: 0.579884 cumulative IPC: 0.705736 (Simulation time: 3 hr 4 min 3 sec) 
Heartbeat CPU 3 instructions: 1010000003 cycles: 1248179758 heartbeat IPC: 0.689101 cumulative IPC: 0.705526 (Simulation time: 3 hr 5 min 48 sec) 
Heartbeat CPU 0 instructions: 960000000 cycles: 1249223909 heartbeat IPC: 0.407214 cumulative IPC: 0.639252 (Simulation time: 3 hr 5 min 56 sec) 
Heartbeat CPU 1 instructions: 760000000 cycles: 1253541576 heartbeat IPC: 0.489031 cumulative IPC: 0.482592 (Simulation time: 3 hr 6 min 30 sec) 
Heartbeat CPU 3 instructions: 1020000000 cycles: 1262776872 heartbeat IPC: 0.685067 cumulative IPC: 0.705269 (Simulation time: 3 hr 7 min 34 sec) 
Heartbeat CPU 0 instructions: 970000003 cycles: 1271727651 heartbeat IPC: 0.444371 cumulative IPC: 0.635509 (Simulation time: 3 hr 8 min 44 sec) 
Heartbeat CPU 1 instructions: 770000001 cycles: 1274186102 heartbeat IPC: 0.48439 cumulative IPC: 0.482624 (Simulation time: 3 hr 9 min 2 sec) 
Heartbeat CPU 3 instructions: 1030000003 cycles: 1276414095 heartbeat IPC: 0.733287 cumulative IPC: 0.705594 (Simulation time: 3 hr 9 min 18 sec) 
Heartbeat CPU 2 instructions: 390000001 cycles: 1286739342 heartbeat IPC: 0.15286 cumulative IPC: 0.155426 (Simulation time: 3 hr 10 min 33 sec) 
Heartbeat CPU 3 instructions: 1040000000 cycles: 1290002217 heartbeat IPC: 0.735937 cumulative IPC: 0.70594 (Simulation time: 3 hr 10 min 59 sec) 
Heartbeat CPU 0 instructions: 980000000 cycles: 1294076927 heartbeat IPC: 0.447442 cumulative IPC: 0.631988 (Simulation time: 3 hr 11 min 31 sec) 
Heartbeat CPU 1 instructions: 780000000 cycles: 1294596540 heartbeat IPC: 0.489945 cumulative IPC: 0.482749 (Simulation time: 3 hr 11 min 35 sec) 
Heartbeat CPU 3 instructions: 1050000000 cycles: 1303251670 heartbeat IPC: 0.754748 cumulative IPC: 0.706478 (Simulation time: 3 hr 12 min 38 sec) 
Heartbeat CPU 3 instructions: 1060000000 cycles: 1313346947 heartbeat IPC: 0.990562 cumulative IPC: 0.708842 (Simulation time: 3 hr 13 min 57 sec) 
Heartbeat CPU 1 instructions: 790000000 cycles: 1315353756 heartbeat IPC: 0.48176 cumulative IPC: 0.482732 (Simulation time: 3 hr 14 min 12 sec) 
Heartbeat CPU 0 instructions: 990000002 cycles: 1315509966 heartbeat IPC: 0.466569 cumulative IPC: 0.629071 (Simulation time: 3 hr 14 min 13 sec) 
Heartbeat CPU 3 instructions: 1070000002 cycles: 1330105626 heartbeat IPC: 0.596706 cumulative IPC: 0.707314 (Simulation time: 3 hr 15 min 51 sec) 
Heartbeat CPU 1 instructions: 800000000 cycles: 1336729563 heartbeat IPC: 0.467819 cumulative IPC: 0.482474 (Simulation time: 3 hr 16 min 38 sec) 
Heartbeat CPU 0 instructions: 1000000000 cycles: 1338586726 heartbeat IPC: 0.433336 cumulative IPC: 0.625424 (Simulation time: 3 hr 16 min 51 sec) 
Heartbeat CPU 3 instructions: 1080000000 cycles: 1347259857 heartbeat IPC: 0.582946 cumulative IPC: 0.705603 (Simulation time: 3 hr 17 min 47 sec) 
Heartbeat CPU 2 instructions: 400000000 cycles: 1350169974 heartbeat IPC: 0.157653 cumulative IPC: 0.155539 (Simulation time: 3 hr 18 min 6 sec) 
Heartbeat CPU 1 instructions: 810000000 cycles: 1357850771 heartbeat IPC: 0.473458 cumulative IPC: 0.482323 (Simulation time: 3 hr 18 min 58 sec) 
Heartbeat CPU 3 instructions: 1090000000 cycles: 1361644805 heartbeat IPC: 0.695171 cumulative IPC: 0.705484 (Simulation time: 3 hr 19 min 26 sec) 
Heartbeat CPU 0 instructions: 1010000000 cycles: 1361758863 heartbeat IPC: 0.431553 cumulative IPC: 0.621863 (Simulation time: 3 hr 19 min 27 sec) 
Heartbeat CPU 3 instructions: 1100000000 cycles: 1375961835 heartbeat IPC: 0.698469 cumulative IPC: 0.705405 (Simulation time: 3 hr 21 min 5 sec) 
Heartbeat CPU 1 instructions: 820000000 cycles: 1379063740 heartbeat IPC: 0.47141 cumulative IPC: 0.482142 (Simulation time: 3 hr 21 min 28 sec) 
Heartbeat CPU 0 instructions: 1020000000 cycles: 1384400735 heartbeat IPC: 0.44166 cumulative IPC: 0.618686 (Simulation time: 3 hr 22 min 7 sec) 
Heartbeat CPU 3 instructions: 1110000000 cycles: 1389510866 heartbeat IPC: 0.73806 cumulative IPC: 0.705748 (Simulation time: 3 hr 22 min 42 sec) 
Heartbeat CPU 1 instructions: 830000003 cycles: 1400198127 heartbeat IPC: 0.473163 cumulative IPC: 0.481996 (Simulation time: 3 hr 23 min 56 sec) 
Heartbeat CPU 3 instructions: 1120000000 cycles: 1402960501 heartbeat IPC: 0.743515 cumulative IPC: 0.706138 (Simulation time: 3 hr 24 min 16 sec) 
Heartbeat CPU 0 instructions: 1030000000 cycles: 1407374188 heartbeat IPC: 0.435285 cumulative IPC: 0.615463 (Simulation time: 3 hr 24 min 48 sec) 
Heartbeat CPU 2 instructions: 410000001 cycles: 1415479558 heartbeat IPC: 0.153117 cumulative IPC: 0.155419 (Simulation time: 3 hr 25 min 44 sec) 
Heartbeat CPU 3 instructions: 1130000003 cycles: 1416059922 heartbeat IPC: 0.763393 cumulative IPC: 0.706708 (Simulation time: 3 hr 25 min 48 sec) 
Heartbeat CPU 1 instructions: 840000000 cycles: 1421649651 heartbeat IPC: 0.466167 cumulative IPC: 0.481739 (Simulation time: 3 hr 26 min 30 sec) 
Heartbeat CPU 3 instructions: 1140000000 cycles: 1426098716 heartbeat IPC: 0.996135 cumulative IPC: 0.708899 (Simulation time: 3 hr 27 min 4 sec) 
Heartbeat CPU 0 instructions: 1040000000 cycles: 1430923836 heartbeat IPC: 0.424635 cumulative IPC: 0.612087 (Simulation time: 3 hr 27 min 39 sec) 
Heartbeat CPU 1 instructions: 850000002 cycles: 1442612903 heartbeat IPC: 0.477025 cumulative IPC: 0.481665 (Simulation time: 3 hr 29 min 0 sec) 
Heartbeat CPU 3 instructions: 1150000000 cycles: 1442751154 heartbeat IPC: 0.600513 cumulative IPC: 0.707555 (Simulation time: 3 hr 29 min 1 sec) 
Heartbeat CPU 0 instructions: 1050000002 cycles: 1454417362 heartbeat IPC: 0.425649 cumulative IPC: 0.608853 (Simulation time: 3 hr 30 min 26 sec) 
Heartbeat CPU 3 instructions: 1160000000 cycles: 1459877030 heartbeat IPC: 0.583912 cumulative IPC: 0.705998 (Simulation time: 3 hr 31 min 3 sec) 
Heartbeat CPU 1 instructions: 860000000 cycles: 1464006591 heartbeat IPC: 0.467427 cumulative IPC: 0.481442 (Simulation time: 3 hr 31 min 31 sec) 
Heartbeat CPU 3 instructions: 1170000001 cycles: 1474678239 heartbeat IPC: 0.675621 cumulative IPC: 0.705671 (Simulation time: 3 hr 32 min 45 sec) 
Heartbeat CPU 0 instructions: 1060000000 cycles: 1477213568 heartbeat IPC: 0.438669 cumulative IPC: 0.606035 (Simulation time: 3 hr 33 min 5 sec) 
Heartbeat CPU 2 instructions: 420000000 cycles: 1480674387 heartbeat IPC: 0.153386 cumulative IPC: 0.155323 (Simulation time: 3 hr 33 min 30 sec) 
Heartbeat CPU 1 instructions: 870000003 cycles: 1485255646 heartbeat IPC: 0.470609 cumulative IPC: 0.481276 (Simulation time: 3 hr 33 min 59 sec) 
Heartbeat CPU 3 instructions: 1180000000 cycles: 1489052659 heartbeat IPC: 0.69568 cumulative IPC: 0.705567 (Simulation time: 3 hr 34 min 24 sec) 
Heartbeat CPU 0 instructions: 1070000000 cycles: 1499893519 heartbeat IPC: 0.440918 cumulative IPC: 0.60336 (Simulation time: 3 hr 35 min 44 sec) 
Heartbeat CPU 3 instructions: 1190000001 cycles: 1502259634 heartbeat IPC: 0.757176 cumulative IPC: 0.706054 (Simulation time: 3 hr 35 min 59 sec) 
Heartbeat CPU 1 instructions: 880000000 cycles: 1506465820 heartbeat IPC: 0.471472 cumulative IPC: 0.481128 (Simulation time: 3 hr 36 min 26 sec) 
Heartbeat CPU 3 instructions: 1200000000 cycles: 1515947512 heartbeat IPC: 0.730573 cumulative IPC: 0.706291 (Simulation time: 3 hr 37 min 34 sec) 
Finished CPU 3 instructions: 1000000003 cycles: 1415847828 cumulative IPC: 0.706291 (Simulation time: 3 hr 37 min 34 sec) 
Heartbeat CPU 0 instructions: 1080000000 cycles: 1523689150 heartbeat IPC: 0.420245 cumulative IPC: 0.600299 (Simulation time: 3 hr 38 min 30 sec) 
Heartbeat CPU 1 instructions: 890000001 cycles: 1527932826 heartbeat IPC: 0.465831 cumulative IPC: 0.480898 (Simulation time: 3 hr 38 min 59 sec) 
Heartbeat CPU 3 instructions: 1210000002 cycles: 1529001616 heartbeat IPC: 0.766043 cumulative IPC: 0.706836 (Simulation time: 3 hr 39 min 6 sec) 
Heartbeat CPU 3 instructions: 1220000000 cycles: 1538864858 heartbeat IPC: 1.01387 cumulative IPC: 0.708941 (Simulation time: 3 hr 40 min 18 sec) 
Heartbeat CPU 2 instructions: 430000000 cycles: 1545140303 heartbeat IPC: 0.155121 cumulative IPC: 0.155314 (Simulation time: 3 hr 41 min 0 sec) 
Heartbeat CPU 0 instructions: 1090000003 cycles: 1546394020 heartbeat IPC: 0.440434 cumulative IPC: 0.59779 (Simulation time: 3 hr 41 min 8 sec) 
Heartbeat CPU 1 instructions: 900000000 cycles: 1548201976 heartbeat IPC: 0.493361 cumulative IPC: 0.481072 (Simulation time: 3 hr 41 min 20 sec) 
Heartbeat CPU 3 instructions: 1230000003 cycles: 1555220864 heartbeat IPC: 0.611396 cumulative IPC: 0.707845 (Simulation time: 3 hr 42 min 7 sec) 
Heartbeat CPU 1 instructions: 910000002 cycles: 1568392793 heartbeat IPC: 0.495275 cumulative IPC: 0.481268 (Simulation time: 3 hr 43 min 38 sec) 
Heartbeat CPU 0 instructions: 1100000000 cycles: 1570324551 heartbeat IPC: 0.417876 cumulative IPC: 0.594861 (Simulation time: 3 hr 43 min 51 sec) 
Heartbeat CPU 3 instructions: 1240000000 cycles: 1572362861 heartbeat IPC: 0.583362 cumulative IPC: 0.706395 (Simulation time: 3 hr 44 min 3 sec) 
Heartbeat CPU 3 instructions: 1250000001 cycles: 1587419514 heartbeat IPC: 0.664158 cumulative IPC: 0.705968 (Simulation time: 3 hr 45 min 46 sec) 
Heartbeat CPU 1 instructions: 920000000 cycles: 1588874239 heartbeat IPC: 0.488247 cumulative IPC: 0.481364 (Simulation time: 3 hr 45 min 57 sec) 
Heartbeat CPU 0 instructions: 1110000001 cycles: 1593883859 heartbeat IPC: 0.424461 cumulative IPC: 0.592174 (Simulation time: 3 hr 46 min 34 sec) 
Heartbeat CPU 3 instructions: 1260000000 cycles: 1602032697 heartbeat IPC: 0.684314 cumulative IPC: 0.705757 (Simulation time: 3 hr 47 min 27 sec) 
Heartbeat CPU 1 instructions: 930000000 cycles: 1608931551 heartbeat IPC: 0.498571 cumulative IPC: 0.481592 (Simulation time: 3 hr 48 min 19 sec) 
Heartbeat CPU 2 instructions: 440000000 cycles: 1609734491 heartbeat IPC: 0.154813 cumulative IPC: 0.155293 (Simulation time: 3 hr 48 min 24 sec) 
Heartbeat CPU 3 instructions: 1270000003 cycles: 1614835422 heartbeat IPC: 0.781084 cumulative IPC: 0.706394 (Simulation time: 3 hr 49 min 1 sec) 
Heartbeat CPU 0 instructions: 1120000000 cycles: 1616407751 heartbeat IPC: 0.443973 cumulative IPC: 0.589972 (Simulation time: 3 hr 49 min 11 sec) 
Heartbeat CPU 3 instructions: 1280000000 cycles: 1628956544 heartbeat IPC: 0.708159 cumulative IPC: 0.70641 (Simulation time: 3 hr 50 min 42 sec) 
Heartbeat CPU 1 instructions: 940000000 cycles: 1629328492 heartbeat IPC: 0.49027 cumulative IPC: 0.481708 (Simulation time: 3 hr 50 min 45 sec) 
Heartbeat CPU 0 instructions: 1130000002 cycles: 1640142753 heartbeat IPC: 0.421319 cumulative IPC: 0.587373 (Simulation time: 3 hr 52 min 6 sec) 
Heartbeat CPU 3 instructions: 1290000001 cycles: 1642155505 heartbeat IPC: 0.757635 cumulative IPC: 0.706849 (Simulation time: 3 hr 52 min 21 sec) 
Heartbeat CPU 1 instructions: 950000000 cycles: 1649281357 heartbeat IPC: 0.501181 cumulative IPC: 0.481959 (Simulation time: 3 hr 53 min 16 sec) 
Heartbeat CPU 3 instructions: 1300000000 cycles: 1651766219 heartbeat IPC: 1.04051 cumulative IPC: 0.708915 (Simulation time: 3 hr 53 min 35 sec) 
Heartbeat CPU 0 instructions: 1140000000 cycles: 1662546263 heartbeat IPC: 0.446359 cumulative IPC: 0.585351 (Simulation time: 3 hr 54 min 53 sec) 
Heartbeat CPU 3 instructions: 1310000002 cycles: 1667634500 heartbeat IPC: 0.630188 cumulative IPC: 0.708118 (Simulation time: 3 hr 55 min 32 sec) 
Heartbeat CPU 1 instructions: 960000000 cycles: 1669192694 heartbeat IPC: 0.502226 cumulative IPC: 0.482216 (Simulation time: 3 hr 55 min 46 sec) 
Heartbeat CPU 2 instructions: 450000003 cycles: 1673681421 heartbeat IPC: 0.15638 cumulative IPC: 0.155337 (Simulation time: 3 hr 56 min 19 sec) 
Heartbeat CPU 3 instructions: 1320000000 cycles: 1684885054 heartbeat IPC: 0.579691 cumulative IPC: 0.70672 (Simulation time: 3 hr 57 min 46 sec) 
Heartbeat CPU 0 instructions: 1150000001 cycles: 1685183083 heartbeat IPC: 0.441758 cumulative IPC: 0.5833 (Simulation time: 3 hr 57 min 49 sec) 
Heartbeat CPU 1 instructions: 970000000 cycles: 1689695128 heartbeat IPC: 0.487747 cumulative IPC: 0.482287 (Simulation time: 3 hr 58 min 24 sec) 
Heartbeat CPU 3 instructions: 1330000000 cycles: 1700046244 heartbeat IPC: 0.659579 cumulative IPC: 0.706274 (Simulation time: 3 hr 59 min 48 sec) 
Heartbeat CPU 0 instructions: 1160000000 cycles: 1708349000 heartbeat IPC: 0.431669 cumulative IPC: 0.581116 (Simulation time: 4 hr 1 min 1 sec) 
Heartbeat CPU 1 instructions: 980000000 cycles: 1710510374 heartbeat IPC: 0.480417 cumulative IPC: 0.482263 (Simulation time: 4 hr 1 min 17 sec) 
Heartbeat CPU 3 instructions: 1340000000 cycles: 1714709643 heartbeat IPC: 0.68197 cumulative IPC: 0.706053 (Simulation time: 4 hr 1 min 49 sec) 
Heartbeat CPU 3 instructions: 1350000003 cycles: 1727370387 heartbeat IPC: 0.789843 cumulative IPC: 0.706705 (Simulation time: 4 hr 3 min 36 sec) 
Heartbeat CPU 1 instructions: 990000000 cycles: 1731030366 heartbeat IPC: 0.48733 cumulative IPC: 0.482327 (Simulation time: 4 hr 4 min 1 sec) 
Heartbeat CPU 0 instructions: 1170000001 cycles: 1731164302 heartbeat IPC: 0.438302 cumulative IPC: 0.579119 (Simulation time: 4 hr 4 min 2 sec) 
Heartbeat CPU 2 instructions: 460000000 cycles: 1739195618 heartbeat IPC: 0.152639 cumulative IPC: 0.155229 (Simulation time: 4 hr 4 min 58 sec) 
Heartbeat CPU 3 instructions: 1360000000 cycles: 1741758607 heartbeat IPC: 0.695013 cumulative IPC: 0.706602 (Simulation time: 4 hr 5 min 18 sec) 
Heartbeat CPU 1 instructions: 1000000000 cycles: 1751920021 heartbeat IPC: 0.478706 cumulative IPC: 0.482281 (Simulation time: 4 hr 6 min 34 sec) 
Heartbeat CPU 3 instructions: 1370000002 cycles: 1755104010 heartbeat IPC: 0.749322 cumulative IPC: 0.706947 (Simulation time: 4 hr 6 min 58 sec) 
Heartbeat CPU 0 instructions: 1180000000 cycles: 1755727496 heartbeat IPC: 0.407113 cumulative IPC: 0.576567 (Simulation time: 4 hr 7 min 3 sec) 
Heartbeat CPU 3 instructions: 1380000000 cycles: 1764884430 heartbeat IPC: 1.02245 cumulative IPC: 0.7088 (Simulation time: 4 hr 8 min 15 sec) 
Heartbeat CPU 1 instructions: 1010000000 cycles: 1772823225 heartbeat IPC: 0.478396 cumulative IPC: 0.482233 (Simulation time: 4 hr 9 min 12 sec) 
Heartbeat CPU 0 instructions: 1190000003 cycles: 1778054240 heartbeat IPC: 0.447893 cumulative IPC: 0.574854 (Simulation time: 4 hr 9 min 48 sec) 
Heartbeat CPU 3 instructions: 1390000001 cycles: 1780761405 heartbeat IPC: 0.629843 cumulative IPC: 0.708054 (Simulation time: 4 hr 10 min 7 sec) 
Heartbeat CPU 1 instructions: 1020000000 cycles: 1794164890 heartbeat IPC: 0.468567 cumulative IPC: 0.482061 (Simulation time: 4 hr 11 min 46 sec) 
Heartbeat CPU 3 instructions: 1400000000 cycles: 1797851470 heartbeat IPC: 0.585135 cumulative IPC: 0.706817 (Simulation time: 4 hr 12 min 10 sec) 
Heartbeat CPU 0 instructions: 1200000000 cycles: 1801469951 heartbeat IPC: 0.427064 cumulative IPC: 0.57282 (Simulation time: 4 hr 12 min 35 sec) 
Heartbeat CPU 2 instructions: 470000000 cycles: 1803134466 heartbeat IPC: 0.156399 cumulative IPC: 0.155273 (Simulation time: 4 hr 12 min 47 sec) 
Heartbeat CPU 3 instructions: 1410000002 cycles: 1813268797 heartbeat IPC: 0.648621 cumulative IPC: 0.706293 (Simulation time: 4 hr 14 min 0 sec) 
Heartbeat CPU 1 instructions: 1030000003 cycles: 1815807717 heartbeat IPC: 0.462047 cumulative IPC: 0.481808 (Simulation time: 4 hr 14 min 22 sec) 
Heartbeat CPU 0 instructions: 1210000000 cycles: 1823703829 heartbeat IPC: 0.449764 cumulative IPC: 0.571233 (Simulation time: 4 hr 15 min 24 sec) 
Heartbeat CPU 3 instructions: 1420000000 cycles: 1827759398 heartbeat IPC: 0.690102 cumulative IPC: 0.706158 (Simulation time: 4 hr 15 min 54 sec) 
Heartbeat CPU 1 instructions: 1040000000 cycles: 1836453460 heartbeat IPC: 0.484361 cumulative IPC: 0.481838 (Simulation time: 4 hr 17 min 2 sec) 
Heartbeat CPU 3 instructions: 1430000003 cycles: 1840532834 heartbeat IPC: 0.782875 cumulative IPC: 0.706721 (Simulation time: 4 hr 17 min 34 sec) 
Heartbeat CPU 0 instructions: 1220000000 cycles: 1846500860 heartbeat IPC: 0.438654 cumulative IPC: 0.569502 (Simulation time: 4 hr 18 min 14 sec) 
Heartbeat CPU 3 instructions: 1440000000 cycles: 1854893715 heartbeat IPC: 0.696336 cumulative IPC: 0.706636 (Simulation time: 4 hr 19 min 19 sec) 
Heartbeat CPU 1 instructions: 1050000003 cycles: 1857405844 heartbeat IPC: 0.477273 cumulative IPC: 0.481784 (Simulation time: 4 hr 19 min 38 sec) 
Finished CPU 0 instructions: 1000000000 cycles: 1757778525 cumulative IPC: 0.5689 (Simulation time: 4 hr 19 min 42 sec) 
Heartbeat CPU 2 instructions: 480000000 cycles: 1867487786 heartbeat IPC: 0.155392 cumulative IPC: 0.155277 (Simulation time: 4 hr 20 min 52 sec) 
Heartbeat CPU 3 instructions: 1450000001 cycles: 1868358093 heartbeat IPC: 0.742701 cumulative IPC: 0.70691 (Simulation time: 4 hr 20 min 58 sec) 
Heartbeat CPU 0 instructions: 1230000002 cycles: 1868507725 heartbeat IPC: 0.454404 cumulative IPC: 0.56807 (Simulation time: 4 hr 20 min 59 sec) 
Heartbeat CPU 1 instructions: 1060000000 cycles: 1877824746 heartbeat IPC: 0.489742 cumulative IPC: 0.481875 (Simulation time: 4 hr 22 min 7 sec) 
Heartbeat CPU 3 instructions: 1460000000 cycles: 1878250530 heartbeat IPC: 1.01087 cumulative IPC: 0.708601 (Simulation time: 4 hr 22 min 10 sec) 
Heartbeat CPU 0 instructions: 1240000000 cycles: 1891538179 heartbeat IPC: 0.434208 cumulative IPC: 0.566349 (Simulation time: 4 hr 23 min 40 sec) 
Heartbeat CPU 3 instructions: 1470000001 cycles: 1893637012 heartbeat IPC: 0.649921 cumulative IPC: 0.708098 (Simulation time: 4 hr 23 min 54 sec) 
Heartbeat CPU 1 instructions: 1070000001 cycles: 1898641708 heartbeat IPC: 0.480378 cumulative IPC: 0.481858 (Simulation time: 4 hr 24 min 29 sec) 
Heartbeat CPU 3 instructions: 1480000000 cycles: 1910840994 heartbeat IPC: 0.581261 cumulative IPC: 0.706893 (Simulation time: 4 hr 25 min 51 sec) 
Heartbeat CPU 0 instructions: 1250000000 cycles: 1916085474 heartbeat IPC: 0.407377 cumulative IPC: 0.5642 (Simulation time: 4 hr 26 min 24 sec) 
Heartbeat CPU 1 instructions: 1080000000 cycles: 1919166133 heartbeat IPC: 0.487224 cumulative IPC: 0.481919 (Simulation time: 4 hr 26 min 45 sec) 
Heartbeat CPU 3 instructions: 1490000001 cycles: 1926872054 heartbeat IPC: 0.623789 cumulative IPC: 0.706164 (Simulation time: 4 hr 27 min 39 sec) 
Heartbeat CPU 2 instructions: 490000000 cycles: 1931629839 heartbeat IPC: 0.155904 cumulative IPC: 0.155299 (Simulation time: 4 hr 28 min 14 sec) 
Heartbeat CPU 0 instructions: 1260000000 cycles: 1937675653 heartbeat IPC: 0.463174 cumulative IPC: 0.563013 (Simulation time: 4 hr 28 min 56 sec) 
Heartbeat CPU 1 instructions: 1090000001 cycles: 1940050713 heartbeat IPC: 0.478822 cumulative IPC: 0.481883 (Simulation time: 4 hr 29 min 11 sec) 
Heartbeat CPU 3 instructions: 1500000000 cycles: 1941439828 heartbeat IPC: 0.686447 cumulative IPC: 0.706008 (Simulation time: 4 hr 29 min 19 sec) 
Heartbeat CPU 3 instructions: 1510000003 cycles: 1953854686 heartbeat IPC: 0.805487 cumulative IPC: 0.706674 (Simulation time: 4 hr 30 min 52 sec) 
Heartbeat CPU 1 instructions: 1100000000 cycles: 1960539356 heartbeat IPC: 0.488075 cumulative IPC: 0.481952 (Simulation time: 4 hr 31 min 35 sec) 
Heartbeat CPU 0 instructions: 1270000000 cycles: 1960596334 heartbeat IPC: 0.436287 cumulative IPC: 0.561452 (Simulation time: 4 hr 31 min 35 sec) 
Heartbeat CPU 3 instructions: 1520000000 cycles: 1968460797 heartbeat IPC: 0.684645 cumulative IPC: 0.706502 (Simulation time: 4 hr 32 min 31 sec) 
Heartbeat CPU 1 instructions: 1110000000 cycles: 1981706898 heartbeat IPC: 0.472421 cumulative IPC: 0.481844 (Simulation time: 4 hr 34 min 6 sec) 
Heartbeat CPU 3 instructions: 1530000001 cycles: 1981955924 heartbeat IPC: 0.741008 cumulative IPC: 0.706749 (Simulation time: 4 hr 34 min 8 sec) 
Heartbeat CPU 0 instructions: 1280000000 cycles: 1982415889 heartbeat IPC: 0.458304 cumulative IPC: 0.560256 (Simulation time: 4 hr 34 min 11 sec) 
Heartbeat CPU 3 instructions: 1540000000 cycles: 1991980018 heartbeat IPC: 0.997596 cumulative IPC: 0.70829 (Simulation time: 4 hr 35 min 20 sec) 
Heartbeat CPU 2 instructions: 500000000 cycles: 1996594713 heartbeat IPC: 0.153929 cumulative IPC: 0.155252 (Simulation time: 4 hr 35 min 54 sec) 
Heartbeat CPU 1 instructions: 1120000000 cycles: 2002175176 heartbeat IPC: 0.488561 cumulative IPC: 0.481917 (Simulation time: 4 hr 36 min 32 sec) 
Heartbeat CPU 0 instructions: 1290000001 cycles: 2005407530 heartbeat IPC: 0.434941 cumulative IPC: 0.558744 (Simulation time: 4 hr 36 min 54 sec) 
Heartbeat CPU 3 instructions: 1550000000 cycles: 2007453767 heartbeat IPC: 0.646256 cumulative IPC: 0.707787 (Simulation time: 4 hr 37 min 9 sec) 
Heartbeat CPU 1 instructions: 1130000000 cycles: 2023315035 heartbeat IPC: 0.47304 cumulative IPC: 0.481819 (Simulation time: 4 hr 39 min 4 sec) 
Heartbeat CPU 3 instructions: 1560000000 cycles: 2024607963 heartbeat IPC: 0.582948 cumulative IPC: 0.706674 (Simulation time: 4 hr 39 min 13 sec) 
Heartbeat CPU 0 instructions: 1300000000 cycles: 2029133808 heartbeat IPC: 0.421474 cumulative IPC: 0.557056 (Simulation time: 4 hr 39 min 44 sec) 
Heartbeat CPU 3 instructions: 1570000003 cycles: 2040713973 heartbeat IPC: 0.620886 cumulative IPC: 0.705962 (Simulation time: 4 hr 41 min 7 sec) 
Heartbeat CPU 1 instructions: 1140000000 cycles: 2044473243 heartbeat IPC: 0.47263 cumulative IPC: 0.481719 (Simulation time: 4 hr 41 min 37 sec) 
Heartbeat CPU 0 instructions: 1310000001 cycles: 2051763771 heartbeat IPC: 0.441892 cumulative IPC: 0.555721 (Simulation time: 4 hr 42 min 32 sec) 
Heartbeat CPU 3 instructions: 1580000000 cycles: 2055123106 heartbeat IPC: 0.694004 cumulative IPC: 0.705874 (Simulation time: 4 hr 42 min 54 sec) 
Heartbeat CPU 2 instructions: 510000000 cycles: 2061458691 heartbeat IPC: 0.154169 cumulative IPC: 0.155216 (Simulation time: 4 hr 43 min 41 sec) 
Heartbeat CPU 1 instructions: 1150000003 cycles: 2065003438 heartbeat IPC: 0.487088 cumulative IPC: 0.481775 (Simulation time: 4 hr 44 min 9 sec) 
Heartbeat CPU 3 instructions: 1590000003 cycles: 2067583046 heartbeat IPC: 0.802572 cumulative IPC: 0.706486 (Simulation time: 4 hr 44 min 30 sec) 
Heartbeat CPU 0 instructions: 1320000000 cycles: 2074368135 heartbeat IPC: 0.442392 cumulative IPC: 0.554423 (Simulation time: 4 hr 45 min 17 sec) 
Heartbeat CPU 3 instructions: 1600000000 cycles: 2082224502 heartbeat IPC: 0.682992 cumulative IPC: 0.706313 (Simulation time: 4 hr 46 min 50 sec) 
Heartbeat CPU 1 instructions: 1160000000 cycles: 2085621637 heartbeat IPC: 0.485008 cumulative IPC: 0.481809 (Simulation time: 4 hr 47 min 43 sec) 
Heartbeat CPU 3 instructions: 1610000003 cycles: 2095774632 heartbeat IPC: 0.738001 cumulative IPC: 0.706528 (Simulation time: 4 hr 50 min 15 sec) 
Heartbeat CPU 0 instructions: 1330000003 cycles: 2097473485 heartbeat IPC: 0.4328 cumulative IPC: 0.553016 (Simulation time: 4 hr 50 min 41 sec) 
Heartbeat CPU 3 instructions: 1620000000 cycles: 2105902667 heartbeat IPC: 0.987358 cumulative IPC: 0.707946 (Simulation time: 4 hr 51 min 56 sec) 
Heartbeat CPU 1 instructions: 1170000001 cycles: 2105936913 heartbeat IPC: 0.49224 cumulative IPC: 0.481914 (Simulation time: 4 hr 51 min 56 sec) 
Heartbeat CPU 0 instructions: 1340000000 cycles: 2119792970 heartbeat IPC: 0.448039 cumulative IPC: 0.551856 (Simulation time: 4 hr 53 min 33 sec) 
Heartbeat CPU 3 instructions: 1630000003 cycles: 2121131520 heartbeat IPC: 0.656648 cumulative IPC: 0.707559 (Simulation time: 4 hr 53 min 42 sec) 
Heartbeat CPU 2 instructions: 520000000 cycles: 2125505394 heartbeat IPC: 0.156136 cumulative IPC: 0.155246 (Simulation time: 4 hr 54 min 14 sec) 
Heartbeat CPU 1 instructions: 1180000000 cycles: 2126793851 heartbeat IPC: 0.479457 cumulative IPC: 0.481889 (Simulation time: 4 hr 54 min 24 sec) 
Heartbeat CPU 3 instructions: 1640000000 cycles: 2138148386 heartbeat IPC: 0.587652 cumulative IPC: 0.706558 (Simulation time: 4 hr 55 min 44 sec) 
Heartbeat CPU 0 instructions: 1350000001 cycles: 2143153058 heartbeat IPC: 0.428081 cumulative IPC: 0.550441 (Simulation time: 4 hr 56 min 17 sec) 
Heartbeat CPU 1 instructions: 1190000002 cycles: 2147845546 heartbeat IPC: 0.475021 cumulative IPC: 0.481819 (Simulation time: 4 hr 56 min 49 sec) 
Heartbeat CPU 3 instructions: 1650000002 cycles: 2154482563 heartbeat IPC: 0.612213 cumulative IPC: 0.705808 (Simulation time: 4 hr 57 min 38 sec) 
Heartbeat CPU 0 instructions: 1360000000 cycles: 2164630243 heartbeat IPC: 0.46561 cumulative IPC: 0.549558 (Simulation time: 4 hr 58 min 54 sec) 
Heartbeat CPU 3 instructions: 1660000000 cycles: 2168445170 heartbeat IPC: 0.716199 cumulative IPC: 0.705878 (Simulation time: 4 hr 59 min 19 sec) 
Heartbeat CPU 1 instructions: 1200000000 cycles: 2169093958 heartbeat IPC: 0.470623 cumulative IPC: 0.481704 (Simulation time: 4 hr 59 min 23 sec) 
Finished CPU 1 instructions: 1000000000 cycles: 2075954869 cumulative IPC: 0.481706 (Simulation time: 5 hr 0 min 15 sec) 
Heartbeat CPU 3 instructions: 1670000002 cycles: 2181555031 heartbeat IPC: 0.762785 cumulative IPC: 0.706237 (Simulation time: 5 hr 0 min 58 sec) 
Heartbeat CPU 0 instructions: 1370000001 cycles: 2187000725 heartbeat IPC: 0.447018 cumulative IPC: 0.548459 (Simulation time: 5 hr 1 min 36 sec) 
Heartbeat CPU 1 instructions: 1210000002 cycles: 2189871072 heartbeat IPC: 0.481299 cumulative IPC: 0.4817 (Simulation time: 5 hr 1 min 55 sec) 
Heartbeat CPU 2 instructions: 530000000 cycles: 2190257538 heartbeat IPC: 0.154435 cumulative IPC: 0.15522 (Simulation time: 5 hr 1 min 58 sec) 
Heartbeat CPU 3 instructions: 1680000000 cycles: 2196228439 heartbeat IPC: 0.681505 cumulative IPC: 0.706064 (Simulation time: 5 hr 2 min 41 sec) 
Heartbeat CPU 3 instructions: 1690000002 cycles: 2209619941 heartbeat IPC: 0.746742 cumulative IPC: 0.706322 (Simulation time: 5 hr 4 min 21 sec) 
Heartbeat CPU 0 instructions: 1380000000 cycles: 2210148835 heartbeat IPC: 0.432001 cumulative IPC: 0.547181 (Simulation time: 5 hr 4 min 25 sec) 
Heartbeat CPU 1 instructions: 1220000000 cycles: 2211394189 heartbeat IPC: 0.464617 cumulative IPC: 0.481525 (Simulation time: 5 hr 4 min 34 sec) 
Heartbeat CPU 3 instructions: 1700000000 cycles: 2219940023 heartbeat IPC: 0.968984 cumulative IPC: 0.7076 (Simulation time: 5 hr 5 min 39 sec) 
Heartbeat CPU 1 instructions: 1230000000 cycles: 2232424305 heartbeat IPC: 0.475509 cumulative IPC: 0.481466 (Simulation time: 5 hr 7 min 6 sec) 
Heartbeat CPU 0 instructions: 1390000001 cycles: 2232892477 heartbeat IPC: 0.439683 cumulative IPC: 0.546035 (Simulation time: 5 hr 7 min 9 sec) 
Heartbeat CPU 3 instructions: 1710000000 cycles: 2234876260 heartbeat IPC: 0.669513 cumulative IPC: 0.707334 (Simulation time: 5 hr 7 min 23 sec) 
Heartbeat CPU 3 instructions: 1720000000 cycles: 2247354952 heartbeat IPC: 0.801366 cumulative IPC: 0.70788 (Simulation time: 5 hr 8 min 56 sec) 
Heartbeat CPU 1 instructions: 1240000000 cycles: 2252637401 heartbeat IPC: 0.494729 cumulative IPC: 0.481591 (Simulation time: 5 hr 9 min 36 sec) 
Heartbeat CPU 2 instructions: 540000000 cycles: 2254370555 heartbeat IPC: 0.155975 cumulative IPC: 0.155243 (Simulation time: 5 hr 9 min 49 sec) 
Heartbeat CPU 0 instructions: 1400000000 cycles: 2255515870 heartbeat IPC: 0.44202 cumulative IPC: 0.544943 (Simulation time: 5 hr 9 min 58 sec) 
Heartbeat CPU 3 instructions: 1730000001 cycles: 2259259274 heartbeat IPC: 0.840031 cumulative IPC: 0.708609 (Simulation time: 5 hr 10 min 27 sec) 
Heartbeat CPU 3 instructions: 1740000000 cycles: 2270924860 heartbeat IPC: 0.857222 cumulative IPC: 0.709408 (Simulation time: 5 hr 11 min 56 sec) 
Heartbeat CPU 1 instructions: 1250000001 cycles: 2272678124 heartbeat IPC: 0.498984 cumulative IPC: 0.481751 (Simulation time: 5 hr 12 min 10 sec) 
Heartbeat CPU 0 instructions: 1410000003 cycles: 2276469974 heartbeat IPC: 0.477234 cumulative IPC: 0.544291 (Simulation time: 5 hr 12 min 39 sec) 
Heartbeat CPU 3 instructions: 1750000002 cycles: 2282548466 heartbeat IPC: 0.860318 cumulative IPC: 0.710211 (Simulation time: 5 hr 13 min 27 sec) 
Heartbeat CPU 1 instructions: 1260000000 cycles: 2293042212 heartbeat IPC: 0.49106 cumulative IPC: 0.481837 (Simulation time: 5 hr 14 min 46 sec) 
Heartbeat CPU 3 instructions: 1760000000 cycles: 2294285855 heartbeat IPC: 0.851978 cumulative IPC: 0.71097 (Simulation time: 5 hr 14 min 55 sec) 
Heartbeat CPU 0 instructions: 1420000000 cycles: 2300066755 heartbeat IPC: 0.423786 cumulative IPC: 0.542999 (Simulation time: 5 hr 15 min 37 sec) 
Heartbeat CPU 3 instructions: 1770000002 cycles: 2305935840 heartbeat IPC: 0.85837 cumulative IPC: 0.711748 (Simulation time: 5 hr 16 min 22 sec) 
Heartbeat CPU 1 instructions: 1270000000 cycles: 2313507312 heartbeat IPC: 0.488637 cumulative IPC: 0.4819 (Simulation time: 5 hr 17 min 19 sec) 
Heartbeat CPU 2 instructions: 550000000 cycles: 2315322136 heartbeat IPC: 0.164065 cumulative IPC: 0.155486 (Simulation time: 5 hr 17 min 33 sec) 
Heartbeat CPU 3 instructions: 1780000000 cycles: 2317645196 heartbeat IPC: 0.854018 cumulative IPC: 0.712499 (Simulation time: 5 hr 17 min 50 sec) 
Heartbeat CPU 0 instructions: 1430000001 cycles: 2324206863 heartbeat IPC: 0.414248 cumulative IPC: 0.541601 (Simulation time: 5 hr 18 min 40 sec) 
Heartbeat CPU 3 instructions: 1790000003 cycles: 2329553334 heartbeat IPC: 0.839762 cumulative IPC: 0.713179 (Simulation time: 5 hr 19 min 20 sec) 
Heartbeat CPU 1 instructions: 1280000000 cycles: 2333847204 heartbeat IPC: 0.491645 cumulative IPC: 0.481989 (Simulation time: 5 hr 19 min 53 sec) 
Heartbeat CPU 3 instructions: 1800000000 cycles: 2341232540 heartbeat IPC: 0.856222 cumulative IPC: 0.713925 (Simulation time: 5 hr 20 min 49 sec) 
Heartbeat CPU 0 instructions: 1440000000 cycles: 2348492754 heartbeat IPC: 0.411762 cumulative IPC: 0.540199 (Simulation time: 5 hr 21 min 43 sec) 
Heartbeat CPU 3 instructions: 1810000001 cycles: 2353072268 heartbeat IPC: 0.844614 cumulative IPC: 0.714611 (Simulation time: 5 hr 22 min 17 sec) 
Heartbeat CPU 1 instructions: 1290000003 cycles: 2353815103 heartbeat IPC: 0.500804 cumulative IPC: 0.482156 (Simulation time: 5 hr 22 min 23 sec) 
Heartbeat CPU 3 instructions: 1820000000 cycles: 2364796356 heartbeat IPC: 0.852945 cumulative IPC: 0.715328 (Simulation time: 5 hr 23 min 45 sec) 
Heartbeat CPU 0 instructions: 1450000001 cycles: 2371471798 heartbeat IPC: 0.435179 cumulative IPC: 0.539137 (Simulation time: 5 hr 24 min 35 sec) 
Heartbeat CPU 1 instructions: 1300000000 cycles: 2373478591 heartbeat IPC: 0.508557 cumulative IPC: 0.482384 (Simulation time: 5 hr 24 min 50 sec) 
Heartbeat CPU 2 instructions: 560000000 cycles: 2373643338 heartbeat IPC: 0.171464 cumulative IPC: 0.155896 (Simulation time: 5 hr 24 min 51 sec) 
Heartbeat CPU 3 instructions: 1830000001 cycles: 2376453241 heartbeat IPC: 0.857862 cumulative IPC: 0.716057 (Simulation time: 5 hr 25 min 12 sec) 
Heartbeat CPU 3 instructions: 1840000000 cycles: 2388352379 heartbeat IPC: 0.840397 cumulative IPC: 0.716704 (Simulation time: 5 hr 26 min 42 sec) 
Heartbeat CPU 1 instructions: 1310000002 cycles: 2393280658 heartbeat IPC: 0.504998 cumulative IPC: 0.482579 (Simulation time: 5 hr 27 min 18 sec) 
Heartbeat CPU 0 instructions: 1460000000 cycles: 2395514665 heartbeat IPC: 0.415924 cumulative IPC: 0.537846 (Simulation time: 5 hr 27 min 35 sec) 
Heartbeat CPU 3 instructions: 1850000000 cycles: 2400489242 heartbeat IPC: 0.823936 cumulative IPC: 0.71727 (Simulation time: 5 hr 28 min 12 sec) 
Heartbeat CPU 3 instructions: 1860000000 cycles: 2412192832 heartbeat IPC: 0.854439 cumulative IPC: 0.717964 (Simulation time: 5 hr 29 min 42 sec) 
Heartbeat CPU 1 instructions: 1320000000 cycles: 2413070202 heartbeat IPC: 0.505317 cumulative IPC: 0.482774 (Simulation time: 5 hr 29 min 48 sec) 
Heartbeat CPU 0 instructions: 1470000000 cycles: 2418543046 heartbeat IPC: 0.434247 cumulative IPC: 0.536817 (Simulation time: 5 hr 30 min 30 sec) 
Heartbeat CPU 3 instructions: 1870000000 cycles: 2424093646 heartbeat IPC: 0.840279 cumulative IPC: 0.71859 (Simulation time: 5 hr 31 min 12 sec) 
Heartbeat CPU 1 instructions: 1330000001 cycles: 2432987351 heartbeat IPC: 0.50208 cumulative IPC: 0.482939 (Simulation time: 5 hr 32 min 19 sec) 
Heartbeat CPU 3 instructions: 1880000000 cycles: 2435780360 heartbeat IPC: 0.855673 cumulative IPC: 0.719276 (Simulation time: 5 hr 32 min 40 sec) 
Heartbeat CPU 2 instructions: 570000000 cycles: 2435860661 heartbeat IPC: 0.160727 cumulative IPC: 0.156024 (Simulation time: 5 hr 32 min 41 sec) 
Heartbeat CPU 0 instructions: 1480000000 cycles: 2441835580 heartbeat IPC: 0.429322 cumulative IPC: 0.535748 (Simulation time: 5 hr 33 min 27 sec) 
Heartbeat CPU 3 instructions: 1890000001 cycles: 2447343827 heartbeat IPC: 0.864793 cumulative IPC: 0.719993 (Simulation time: 5 hr 34 min 9 sec) 
Heartbeat CPU 1 instructions: 1340000000 cycles: 2453029263 heartbeat IPC: 0.498954 cumulative IPC: 0.483075 (Simulation time: 5 hr 34 min 51 sec) 
Heartbeat CPU 3 instructions: 1900000000 cycles: 2459091813 heartbeat IPC: 0.85121 cumulative IPC: 0.720647 (Simulation time: 5 hr 35 min 37 sec) 
Heartbeat CPU 0 instructions: 1490000003 cycles: 2465744336 heartbeat IPC: 0.418257 cumulative IPC: 0.53456 (Simulation time: 5 hr 36 min 28 sec) 
Heartbeat CPU 3 instructions: 1910000001 cycles: 2470697125 heartbeat IPC: 0.861674 cumulative IPC: 0.721337 (Simulation time: 5 hr 37 min 5 sec) 
Heartbeat CPU 1 instructions: 1350000001 cycles: 2472582919 heartbeat IPC: 0.511413 cumulative IPC: 0.483309 (Simulation time: 5 hr 37 min 20 sec) 
Heartbeat CPU 3 instructions: 1920000000 cycles: 2482409056 heartbeat IPC: 0.85383 cumulative IPC: 0.721988 (Simulation time: 5 hr 38 min 35 sec) 
Heartbeat CPU 0 instructions: 1500000000 cycles: 2489415777 heartbeat IPC: 0.42245 cumulative IPC: 0.53345 (Simulation time: 5 hr 39 min 30 sec) 
Heartbeat CPU 1 instructions: 1360000000 cycles: 2492259196 heartbeat IPC: 0.508226 cumulative IPC: 0.483514 (Simulation time: 5 hr 39 min 51 sec) 
Heartbeat CPU 3 instructions: 1930000001 cycles: 2494345601 heartbeat IPC: 0.837763 cumulative IPC: 0.722566 (Simulation time: 5 hr 40 min 7 sec) 
Heartbeat CPU 2 instructions: 580000000 cycles: 2497870518 heartbeat IPC: 0.161265 cumulative IPC: 0.15616 (Simulation time: 5 hr 40 min 35 sec) 
Heartbeat CPU 3 instructions: 1940000000 cycles: 2506141924 heartbeat IPC: 0.847722 cumulative IPC: 0.723179 (Simulation time: 5 hr 41 min 38 sec) 
[...]
Heartbeat CPU 0 instructions: 3370000001 cycles: 6276048662 heartbeat IPC: 0.450743 cumulative IPC: 0.509165 (Simulation time: 12 hr 55 min 12 sec) 
Heartbeat CPU 3 instructions: 4660000000 cycles: 6281113268 heartbeat IPC: 0.991627 cumulative IPC: 0.721565 (Simulation time: 12 hr 55 min 46 sec) 
Heartbeat CPU 1 instructions: 3380000000 cycles: 6281611237 heartbeat IPC: 0.484491 cumulative IPC: 0.513894 (Simulation time: 12 hr 55 min 49 sec) 
Heartbeat CPU 3 instructions: 4670000001 cycles: 6298776855 heartbeat IPC: 0.566136 cumulative IPC: 0.721122 (Simulation time: 12 hr 57 min 36 sec) 
Heartbeat CPU 0 instructions: 3380000000 cycles: 6299177951 heartbeat IPC: 0.432352 cumulative IPC: 0.508879 (Simulation time: 12 hr 57 min 39 sec) 
Heartbeat CPU 1 instructions: 3390000003 cycles: 6302585680 heartbeat IPC: 0.476771 cumulative IPC: 0.513768 (Simulation time: 12 hr 58 min 1 sec) 
Heartbeat CPU 3 instructions: 4680000000 cycles: 6316313218 heartbeat IPC: 0.570244 cumulative IPC: 0.720696 (Simulation time: 12 hr 59 min 25 sec) 
Heartbeat CPU 0 instructions: 3390000001 cycles: 6322466403 heartbeat IPC: 0.429397 cumulative IPC: 0.508581 (Simulation time: 13 hr 0 min 3 sec) 
Heartbeat CPU 1 instructions: 3400000000 cycles: 6323394610 heartbeat IPC: 0.480563 cumulative IPC: 0.513657 (Simulation time: 13 hr 0 min 9 sec) 
Heartbeat CPU 2 instructions: 1180000000 cycles: 6323967960 heartbeat IPC: 0.153137 cumulative IPC: 0.156564 (Simulation time: 13 hr 0 min 13 sec) 
Heartbeat CPU 3 instructions: 4690000003 cycles: 6330511293 heartbeat IPC: 0.704321 cumulative IPC: 0.720659 (Simulation time: 13 hr 0 min 58 sec) 
Heartbeat CPU 1 instructions: 3410000001 cycles: 6343812734 heartbeat IPC: 0.489761 cumulative IPC: 0.513579 (Simulation time: 13 hr 2 min 22 sec) 
Heartbeat CPU 3 instructions: 4700000000 cycles: 6345364171 heartbeat IPC: 0.67327 cumulative IPC: 0.720546 (Simulation time: 13 hr 2 min 33 sec) 
Heartbeat CPU 0 instructions: 3400000000 cycles: 6345431112 heartbeat IPC: 0.435451 cumulative IPC: 0.508312 (Simulation time: 13 hr 2 min 33 sec) 
Heartbeat CPU 3 instructions: 4710000002 cycles: 6359152056 heartbeat IPC: 0.725275 cumulative IPC: 0.720556 (Simulation time: 13 hr 4 min 4 sec) 
Heartbeat CPU 1 instructions: 3420000000 cycles: 6364720546 heartbeat IPC: 0.47829 cumulative IPC: 0.513462 (Simulation time: 13 hr 4 min 41 sec) 
Heartbeat CPU 0 instructions: 3410000003 cycles: 6366757980 heartbeat IPC: 0.468892 cumulative IPC: 0.508178 (Simulation time: 13 hr 4 min 55 sec) 
Heartbeat CPU 3 instructions: 4720000000 cycles: 6372160417 heartbeat IPC: 0.768736 cumulative IPC: 0.720656 (Simulation time: 13 hr 5 min 32 sec) 
Heartbeat CPU 3 instructions: 4730000003 cycles: 6385009534 heartbeat IPC: 0.778264 cumulative IPC: 0.720774 (Simulation time: 13 hr 6 min 56 sec) 
Heartbeat CPU 1 instructions: 3430000000 cycles: 6385515556 heartbeat IPC: 0.480885 cumulative IPC: 0.513354 (Simulation time: 13 hr 6 min 59 sec) 
Heartbeat CPU 2 instructions: 1190000003 cycles: 6387635842 heartbeat IPC: 0.157065 cumulative IPC: 0.156569 (Simulation time: 13 hr 7 min 13 sec) 
Heartbeat CPU 0 instructions: 3420000000 cycles: 6390701999 heartbeat IPC: 0.417641 cumulative IPC: 0.507834 (Simulation time: 13 hr 7 min 33 sec) 
Heartbeat CPU 3 instructions: 4740000000 cycles: 6395147752 heartbeat IPC: 0.986366 cumulative IPC: 0.721202 (Simulation time: 13 hr 8 min 3 sec) 
Heartbeat CPU 1 instructions: 3440000000 cycles: 6405604783 heartbeat IPC: 0.497779 cumulative IPC: 0.513304 (Simulation time: 13 hr 9 min 6 sec) 
Heartbeat CPU 3 instructions: 4750000000 cycles: 6412445970 heartbeat IPC: 0.578094 cumulative IPC: 0.72081 (Simulation time: 13 hr 9 min 51 sec) 
Heartbeat CPU 0 instructions: 3430000001 cycles: 6415532772 heartbeat IPC: 0.402726 cumulative IPC: 0.50742 (Simulation time: 13 hr 10 min 11 sec) 
Heartbeat CPU 1 instructions: 3450000000 cycles: 6426250249 heartbeat IPC: 0.484368 cumulative IPC: 0.51321 (Simulation time: 13 hr 11 min 17 sec) 
Heartbeat CPU 3 instructions: 4760000000 cycles: 6429729566 heartbeat IPC: 0.578583 cumulative IPC: 0.720421 (Simulation time: 13 hr 11 min 37 sec) 
Heartbeat CPU 0 instructions: 3440000000 cycles: 6440612647 heartbeat IPC: 0.398726 cumulative IPC: 0.50699 (Simulation time: 13 hr 12 min 46 sec) 
Heartbeat CPU 3 instructions: 4770000002 cycles: 6444137613 heartbeat IPC: 0.694057 cumulative IPC: 0.720361 (Simulation time: 13 hr 13 min 10 sec) 
Heartbeat CPU 1 instructions: 3460000000 cycles: 6446664339 heartbeat IPC: 0.489858 cumulative IPC: 0.513135 (Simulation time: 13 hr 13 min 28 sec) 
Heartbeat CPU 2 instructions: 1200000000 cycles: 6451927023 heartbeat IPC: 0.155542 cumulative IPC: 0.156559 (Simulation time: 13 hr 14 min 1 sec) 
Heartbeat CPU 3 instructions: 4780000000 cycles: 6459189570 heartbeat IPC: 0.664365 cumulative IPC: 0.720229 (Simulation time: 13 hr 14 min 46 sec) 
Heartbeat CPU 0 instructions: 3450000002 cycles: 6464521653 heartbeat IPC: 0.418253 cumulative IPC: 0.506657 (Simulation time: 13 hr 15 min 22 sec) 
Heartbeat CPU 1 instructions: 3470000003 cycles: 6466912896 heartbeat IPC: 0.493863 cumulative IPC: 0.513073 (Simulation time: 13 hr 15 min 39 sec) 
Heartbeat CPU 3 instructions: 4790000002 cycles: 6473127895 heartbeat IPC: 0.717446 cumulative IPC: 0.720223 (Simulation time: 13 hr 16 min 17 sec) 
Heartbeat CPU 3 instructions: 4800000000 cycles: 6486274587 heartbeat IPC: 0.760647 cumulative IPC: 0.720306 (Simulation time: 13 hr 17 min 43 sec) 
Heartbeat CPU 1 instructions: 3480000000 cycles: 6487275625 heartbeat IPC: 0.491093 cumulative IPC: 0.513003 (Simulation time: 13 hr 17 min 50 sec) 
Finished CPU 2 instructions: 1000000003 cycles: 6388227389 cumulative IPC: 0.156538 (Simulation time: 13 hr 17 min 57 sec) 

CPU 0 Branch Prediction Accuracy: 90.5217% MPKI: 12.5685

CPU 1 Branch Prediction Accuracy: 97.334% MPKI: 0.453574

CPU 2 Branch Prediction Accuracy: 99.5281% MPKI: 1.64839

CPU 3 Branch Prediction Accuracy: 99.8422% MPKI: 0.10364

ChampSim completed all CPUs

Total Simulation Statistics (not including warmup)

CPU 0 cumulative IPC: 0.506278 instructions: 3234217568 cycles: 6388227389
L1D TOTAL     ACCESS:  693261095  HIT:  670570689  MISS:   22690406
L1D LOAD      ACCESS:  457424667  HIT:  438100733  MISS:   19323934
L1D RFO       ACCESS:  235836428  HIT:  232469956  MISS:    3366472
L1D PREFETCH  ACCESS:          0  HIT:          0  MISS:          0
L1D WRITEBACK ACCESS:          0  HIT:          0  MISS:          0
L1I TOTAL     ACCESS:  619702155  HIT:  619695137  MISS:       7018
L1I LOAD      ACCESS:  619702155  HIT:  619695137  MISS:       7018
L1I RFO       ACCESS:          0  HIT:          0  MISS:          0
L1I PREFETCH  ACCESS:          0  HIT:          0  MISS:          0
L1I WRITEBACK ACCESS:          0  HIT:          0  MISS:          0
L2C TOTAL     ACCESS:   39742821  HIT:   26028701  MISS:   13714120
L2C LOAD      ACCESS:   19330306  HIT:    8468115  MISS:   10862191
L2C RFO       ACCESS:    3364747  HIT:    1928434  MISS:    1436313
L2C PREFETCH  ACCESS:    2136016  HIT:     756848  MISS:    1379168
L2C WRITEBACK ACCESS:   14911752  HIT:   14875304  MISS:      36448

L2C DA-AMPM prefetcher final stats
LLC TOTAL     ACCESS:   22556238  HIT:    8867725  MISS:   13688513
LLC LOAD      ACCESS:   10806035  HIT:    1394700  MISS:    9411335
LLC RFO       ACCESS:    1435942  HIT:     268186  MISS:    1167756
LLC PREFETCH  ACCESS:    1435603  HIT:     269946  MISS:    1165657
LLC WRITEBACK ACCESS:    8878658  HIT:    6934893  MISS:    1943765

CPU 1 cumulative IPC: 0.513 instructions: 3277157882 cycles: 6388227389
L1D TOTAL     ACCESS:  919500870  HIT:  680655473  MISS:  238845397
L1D LOAD      ACCESS:  335108141  HIT:  298894105  MISS:   36214036
L1D RFO       ACCESS:  584392729  HIT:  381761368  MISS:  202631361
L1D PREFETCH  ACCESS:          0  HIT:          0  MISS:          0
L1D WRITEBACK ACCESS:          0  HIT:          0  MISS:          0
L1I TOTAL     ACCESS:  783772206  HIT:  783772206  MISS:          0
L1I LOAD      ACCESS:  783772206  HIT:  783772206  MISS:          0
L1I RFO       ACCESS:          0  HIT:          0  MISS:          0
L1I PREFETCH  ACCESS:          0  HIT:          0  MISS:          0
L1I WRITEBACK ACCESS:          0  HIT:          0  MISS:          0
L2C TOTAL     ACCESS:  471296361  HIT:  288742104  MISS:  182554257
L2C LOAD      ACCESS:   36214036  HIT:   29632998  MISS:    6581038
L2C RFO       ACCESS:  202631124  HIT:   56321058  MISS:  146310066
L2C PREFETCH  ACCESS:   29819840  HIT:     206337  MISS:   29613503
L2C WRITEBACK ACCESS:  202631361  HIT:  202581711  MISS:      49650

L2C DA-AMPM prefetcher final stats
LLC TOTAL     ACCESS:  328792308  HIT:  184104767  MISS:  144687541
LLC LOAD      ACCESS:    5073394  HIT:      24884  MISS:    5048510
LLC RFO       ACCESS:  146239600  HIT:   37732102  MISS:  108507498
LLC PREFETCH  ACCESS:   31121147  HIT:          5  MISS:   31121142
LLC WRITEBACK ACCESS:  146358167  HIT:  146347776  MISS:      10391

CPU 2 cumulative IPC: 0.156538 instructions: 1000000003 cycles: 6388227389
L1D TOTAL     ACCESS:  179601282  HIT:  107851712  MISS:   71749570
L1D LOAD      ACCESS:  163940180  HIT:   92239465  MISS:   71700715
L1D RFO       ACCESS:   15661102  HIT:   15612247  MISS:      48855
L1D PREFETCH  ACCESS:          0  HIT:          0  MISS:          0
L1D WRITEBACK ACCESS:          0  HIT:          0  MISS:          0
L1I TOTAL     ACCESS:  363665806  HIT:  363665742  MISS:         64
L1I LOAD      ACCESS:  363665806  HIT:  363665742  MISS:         64
L1I RFO       ACCESS:          0  HIT:          0  MISS:          0
L1I PREFETCH  ACCESS:          0  HIT:          0  MISS:          0
L1I WRITEBACK ACCESS:          0  HIT:          0  MISS:          0
L2C TOTAL     ACCESS:  128310887  HIT:   57348070  MISS:   70962817
L2C LOAD      ACCESS:   71700779  HIT:   56475255  MISS:   15225524
L2C RFO       ACCESS:      48855  HIT:       9697  MISS:      39158
L2C PREFETCH  ACCESS:   56287588  HIT:     589516  MISS:   55698072
L2C WRITEBACK ACCESS:     273665  HIT:     273602  MISS:         63

L2C DA-AMPM prefetcher final stats
LLC TOTAL     ACCESS:   71092243  HIT:     218398  MISS:   70873845
LLC LOAD      ACCESS:    5944785  HIT:      73628  MISS:    5871157
LLC RFO       ACCESS:      38686  HIT:       6836  MISS:      31850
LLC PREFETCH  ACCESS:   64979282  HIT:       9668  MISS:   64969614
LLC WRITEBACK ACCESS:     129490  HIT:     128266  MISS:       1224

CPU 3 cumulative IPC: 0.720326 instructions: 4601608933 cycles: 6388227389
L1D TOTAL     ACCESS: 1142229975  HIT: 1020112167  MISS:  122117808
L1D LOAD      ACCESS: 1009222447  HIT:  912286807  MISS:   96935640
L1D RFO       ACCESS:  133007528  HIT:  107825360  MISS:   25182168
L1D PREFETCH  ACCESS:          0  HIT:          0  MISS:          0
L1D WRITEBACK ACCESS:          0  HIT:          0  MISS:          0
L1I TOTAL     ACCESS: 1177404455  HIT: 1177404338  MISS:        117
L1I LOAD      ACCESS: 1177404455  HIT: 1177404338  MISS:        117
L1I RFO       ACCESS:          0  HIT:          0  MISS:          0
L1I PREFETCH  ACCESS:          0  HIT:          0  MISS:          0
L1I WRITEBACK ACCESS:          0  HIT:          0  MISS:          0
L2C TOTAL     ACCESS:  231482046  HIT:  118038108  MISS:  113443938
L2C LOAD      ACCESS:   96935676  HIT:   83909181  MISS:   13026495
L2C RFO       ACCESS:   25182168  HIT:       2746  MISS:   25179422
L2C PREFETCH  ACCESS:   75384816  HIT:     171540  MISS:   75213276
L2C WRITEBACK ACCESS:   33979386  HIT:   33954641  MISS:      24745

L2C DA-AMPM prefetcher final stats
LLC TOTAL     ACCESS:  147164702  HIT:   43690497  MISS:  103474205
LLC LOAD      ACCESS:    7852234  HIT:    1620488  MISS:    6231746
LLC RFO       ACCESS:   25179364  HIT:    1942511  MISS:   23236853
LLC PREFETCH  ACCESS:   80387581  HIT:    6382985  MISS:   74004596
LLC WRITEBACK ACCESS:   33745523  HIT:   33744513  MISS:       1010

Region of Interest Statistics

CPU 0 cumulative IPC: 0.5689 instructions: 1000000000 cycles: 1757778525
L1D TOTAL     ACCESS:  217999191  HIT:  211938995  MISS:    6060196
L1D LOAD      ACCESS:  143629178  HIT:  138474387  MISS:    5154791
L1D RFO       ACCESS:   74370013  HIT:   73464608  MISS:     905405
L1D PREFETCH  ACCESS:          0  HIT:          0  MISS:          0
L1D WRITEBACK ACCESS:          0  HIT:          0  MISS:          0
L1D PREFETCH  REQUESTED:          0  ISSUED:          0  USEFUL:          0  USELESS:          0
L1I TOTAL     ACCESS:  193085895  HIT:  193083701  MISS:       2194
L1I LOAD      ACCESS:  193085895  HIT:  193083701  MISS:       2194
L1I RFO       ACCESS:          0  HIT:          0  MISS:          0
L1I PREFETCH  ACCESS:          0  HIT:          0  MISS:          0
L1I WRITEBACK ACCESS:          0  HIT:          0  MISS:          0
L1I PREFETCH  REQUESTED:          0  ISSUED:          0  USEFUL:          0  USELESS:          0
L2C TOTAL     ACCESS:   10676782  HIT:    7330746  MISS:    3346036
L2C LOAD      ACCESS:    5156797  HIT:    2588006  MISS:    2568791
L2C RFO       ACCESS:     905044  HIT:     530892  MISS:     374152
L2C PREFETCH  ACCESS:     604085  HIT:     211511  MISS:     392574
L2C WRITEBACK ACCESS:    4010856  HIT:    4000337  MISS:      10519
L2C PREFETCH  REQUESTED:    2355414  ISSUED:    2355414  USEFUL:     671044  USELESS:     795144
LLC TOTAL     ACCESS:    5508242  HIT:    2019594  MISS:    3488648
LLC LOAD      ACCESS:    2542981  HIT:     342106  MISS:    2200875
LLC RFO       ACCESS:     374032  HIT:      51307  MISS:     322725
LLC PREFETCH  ACCESS:     418492  HIT:      68912  MISS:     349580
LLC WRITEBACK ACCESS:    2172737  HIT:    1557269  MISS:     615468
LLC PREFETCH  REQUESTED:          0  ISSUED:          0  USEFUL:    1096869  USELESS:  189312335
Major fault: 0 Minor fault: 12493

CPU 1 cumulative IPC: 0.481706 instructions: 1000000000 cycles: 2075954869
L1D TOTAL     ACCESS:  284037047  HIT:  205744475  MISS:   78292572
L1D LOAD      ACCESS:  101438691  HIT:   89567124  MISS:   11871567
L1D RFO       ACCESS:  182598356  HIT:  116177351  MISS:   66421005
L1D PREFETCH  ACCESS:          0  HIT:          0  MISS:          0
L1D WRITEBACK ACCESS:          0  HIT:          0  MISS:          0
L1D PREFETCH  REQUESTED:          0  ISSUED:          0  USEFUL:          0  USELESS:          0
L1I TOTAL     ACCESS:  239883804  HIT:  239883804  MISS:          0
L1I LOAD      ACCESS:  239883804  HIT:  239883804  MISS:          0
L1I RFO       ACCESS:          0  HIT:          0  MISS:          0
L1I PREFETCH  ACCESS:          0  HIT:          0  MISS:          0
L1I WRITEBACK ACCESS:          0  HIT:          0  MISS:          0
L1I PREFETCH  REQUESTED:          0  ISSUED:          0  USEFUL:          0  USELESS:          0
L2C TOTAL     ACCESS:  154462780  HIT:   94703262  MISS:   59759518
L2C LOAD      ACCESS:   11871567  HIT:    9689193  MISS:    2182374
L2C RFO       ACCESS:   66420933  HIT:   18543459  MISS:   47877474
L2C PREFETCH  ACCESS:    9749275  HIT:      67191  MISS:    9682084
L2C WRITEBACK ACCESS:   66421005  HIT:   66403419  MISS:      17586
L2C PREFETCH  REQUESTED:   34573206  ISSUED:   34573206  USEFUL:   31741570  USELESS:        152
LLC TOTAL     ACCESS:  107611700  HIT:   60186443  MISS:   47425257
LLC LOAD      ACCESS:    1672824  HIT:       8825  MISS:    1663999
LLC RFO       ACCESS:   47853087  HIT:   12287088  MISS:   35565999
LLC PREFETCH  ACCESS:   10191634  HIT:          1  MISS:   10191633
LLC WRITEBACK ACCESS:   47894155  HIT:   47890529  MISS:       3626
LLC PREFETCH  REQUESTED:          0  ISSUED:          0  USEFUL:    1096869  USELESS:  189312335
Major fault: 0 Minor fault: 660176

CPU 2 cumulative IPC: 0.156538 instructions: 1000000003 cycles: 6388227389
L1D TOTAL     ACCESS:  179601282  HIT:  107851712  MISS:   71749570
L1D LOAD      ACCESS:  163940180  HIT:   92239465  MISS:   71700715
L1D RFO       ACCESS:   15661102  HIT:   15612247  MISS:      48855
L1D PREFETCH  ACCESS:          0  HIT:          0  MISS:          0
L1D WRITEBACK ACCESS:          0  HIT:          0  MISS:          0
L1D PREFETCH  REQUESTED:          0  ISSUED:          0  USEFUL:          0  USELESS:          0
L1I TOTAL     ACCESS:  363665806  HIT:  363665742  MISS:         64
L1I LOAD      ACCESS:  363665806  HIT:  363665742  MISS:         64
L1I RFO       ACCESS:          0  HIT:          0  MISS:          0
L1I PREFETCH  ACCESS:          0  HIT:          0  MISS:          0
L1I WRITEBACK ACCESS:          0  HIT:          0  MISS:          0
L1I PREFETCH  REQUESTED:          0  ISSUED:          0  USEFUL:          0  USELESS:          0
L2C TOTAL     ACCESS:  128310887  HIT:   57348070  MISS:   70962817
L2C LOAD      ACCESS:   71700779  HIT:   56475255  MISS:   15225524
L2C RFO       ACCESS:      48855  HIT:       9697  MISS:      39158
L2C PREFETCH  ACCESS:   56287588  HIT:     589516  MISS:   55698072
L2C WRITEBACK ACCESS:     273665  HIT:     273602  MISS:         63
L2C PREFETCH  REQUESTED:   80549703  ISSUED:   80549703  USEFUL:   67206229  USELESS:    1980328
LLC TOTAL     ACCESS:   71092243  HIT:     218398  MISS:   70873845
LLC LOAD      ACCESS:    5944785  HIT:      73628  MISS:    5871157
LLC RFO       ACCESS:      38686  HIT:       6836  MISS:      31850
LLC PREFETCH  ACCESS:   64979282  HIT:       9668  MISS:   64969614
LLC WRITEBACK ACCESS:     129490  HIT:     128266  MISS:       1224
LLC PREFETCH  REQUESTED:          0  ISSUED:          0  USEFUL:    1096869  USELESS:  189312335
Major fault: 0 Minor fault: 56669

CPU 3 cumulative IPC: 0.706291 instructions: 1000000003 cycles: 1415847828
L1D TOTAL     ACCESS:  248086675  HIT:  222159271  MISS:   25927404
L1D LOAD      ACCESS:  225683909  HIT:  205585122  MISS:   20098787
L1D RFO       ACCESS:   22402766  HIT:   16574149  MISS:    5828617
L1D PREFETCH  ACCESS:          0  HIT:          0  MISS:          0
L1D WRITEBACK ACCESS:          0  HIT:          0  MISS:          0
L1D PREFETCH  REQUESTED:          0  ISSUED:          0  USEFUL:          0  USELESS:          0
L1I TOTAL     ACCESS:  255447638  HIT:  255447638  MISS:          0
L1I LOAD      ACCESS:  255447638  HIT:  255447638  MISS:          0
L1I RFO       ACCESS:          0  HIT:          0  MISS:          0
L1I PREFETCH  ACCESS:          0  HIT:          0  MISS:          0
L1I WRITEBACK ACCESS:          0  HIT:          0  MISS:          0
L1I PREFETCH  REQUESTED:          0  ISSUED:          0  USEFUL:          0  USELESS:          0
L2C TOTAL     ACCESS:   49236944  HIT:   25055089  MISS:   24181855
L2C LOAD      ACCESS:   20098780  HIT:   17567434  MISS:    2531346
L2C RFO       ACCESS:    5828617  HIT:         37  MISS:    5828580
L2C PREFETCH  ACCESS:   15835045  HIT:      13447  MISS:   15821598
L2C WRITEBACK ACCESS:    7474502  HIT:    7474171  MISS:        331
L2C PREFETCH  REQUESTED:   84849240  ISSUED:   84801362  USEFUL:   69166338  USELESS:    9562521
LLC TOTAL     ACCESS:   31607587  HIT:    7428028  MISS:   24179559
LLC LOAD      ACCESS:    1414747  HIT:       2000  MISS:    1412747
LLC RFO       ACCESS:    5828565  HIT:          0  MISS:    5828565
LLC PREFETCH  ACCESS:   16938212  HIT:        195  MISS:   16938017
LLC WRITEBACK ACCESS:    7426063  HIT:    7425833  MISS:        230
LLC PREFETCH  REQUESTED:          0  ISSUED:          0  USEFUL:    1096869  USELESS:  189312335
Major fault: 0 Minor fault: 209522

L2C DA-AMPM prefetcher final stats

L2C DA-AMPM prefetcher final stats

L2C DA-AMPM prefetcher final stats

L2C DA-AMPM prefetcher final stats

DRAM Statistics
 CHANNEL 0
 RQ ROW_BUFFER_HIT:   45039165  ROW_BUFFER_MISS:  120322705
 DBUS_CONGESTED:  358352004
 WQ ROW_BUFFER_HIT:    6737895  ROW_BUFFER_MISS:   67508178  FULL:          0

 CHANNEL 1
 RQ ROW_BUFFER_HIT:   44982527  ROW_BUFFER_MISS:  120421661
 DBUS_CONGESTED:  358352004
 WQ ROW_BUFFER_HIT:    6695940  ROW_BUFFER_MISS:   67490069  FULL:          0

 AVG_CONGESTED_CYCLE: 13
