
*** ChampSim Multicore Out-of-Order Simulator ***

Warmup Instructions: 200000000
Simulation Instructions: 1000000000
Number of CPUs: 4
LLC sets: 8192
LLC ways: 16
Off-chip DRAM Size: 8192 MB Channels: 2 Width: 64-bit Data Rate: 1600 MT/s

CPU 0 runs /scratch/user/djimenez/champsim-traces/speccpu2017/xz/654.roms_s/654.roms_s-523B.champsimtrace.xz
CPU 1 runs /scratch/user/djimenez/champsim-traces/speccpu2017/xz/649.fotonik3d_s/649.fotonik3d_s-8225B.champsimtrace.xz
CPU 2 runs /scratch/user/djimenez/champsim-traces/speccpu2017/xz/605.mcf_s/605.mcf_s-1554B.champsimtrace.xz
CPU 3 runs /scratch/user/djimenez/champsim-traces/speccpu2017/xz/619.lbm_s/619.lbm_s-4268B.champsimtrace.xz
L2C DA-AMPM prefetcher
L2C DA-AMPM prefetcher
L2C DA-AMPM prefetcher
L2C DA-AMPM prefetcher
Heartbeat CPU 1 instructions: 10000001 cycles: 4395767 heartbeat IPC: 2.27492 cumulative IPC: 2.27492 (Simulation time: 0 hr 1 min 56 sec) 
Heartbeat CPU 0 instructions: 10000000 cycles: 4684704 heartbeat IPC: 2.13461 cumulative IPC: 2.13461 (Simulation time: 0 hr 2 min 4 sec) 
Heartbeat CPU 3 instructions: 10000001 cycles: 4901697 heartbeat IPC: 2.04011 cumulative IPC: 2.04011 (Simulation time: 0 hr 2 min 9 sec) 
Heartbeat CPU 2 instructions: 10000001 cycles: 5409178 heartbeat IPC: 1.84871 cumulative IPC: 1.84871 (Simulation time: 0 hr 2 min 23 sec) 
Heartbeat CPU 1 instructions: 20000000 cycles: 8790555 heartbeat IPC: 2.27542 cumulative IPC: 2.27517 (Simulation time: 0 hr 3 min 52 sec) 
Heartbeat CPU 0 instructions: 20000000 cycles: 9158747 heartbeat IPC: 2.23511 cumulative IPC: 2.1837 (Simulation time: 0 hr 4 min 2 sec) 
Heartbeat CPU 3 instructions: 20000000 cycles: 9796709 heartbeat IPC: 2.0429 cumulative IPC: 2.0415 (Simulation time: 0 hr 4 min 19 sec) 
Heartbeat CPU 2 instructions: 20000000 cycles: 10779366 heartbeat IPC: 1.86213 cumulative IPC: 1.8554 (Simulation time: 0 hr 4 min 47 sec) 
Heartbeat CPU 1 instructions: 30000003 cycles: 13185791 heartbeat IPC: 2.27519 cumulative IPC: 2.27518 (Simulation time: 0 hr 5 min 53 sec) 
Heartbeat CPU 3 instructions: 30000000 cycles: 14679616 heartbeat IPC: 2.04796 cumulative IPC: 2.04365 (Simulation time: 0 hr 6 min 33 sec) 
Heartbeat CPU 0 instructions: 30000002 cycles: 14859455 heartbeat IPC: 1.75417 cumulative IPC: 2.01892 (Simulation time: 0 hr 6 min 38 sec) 
Heartbeat CPU 2 instructions: 30000003 cycles: 16113621 heartbeat IPC: 1.87468 cumulative IPC: 1.86178 (Simulation time: 0 hr 7 min 13 sec) 
Heartbeat CPU 1 instructions: 40000000 cycles: 17580558 heartbeat IPC: 2.27543 cumulative IPC: 2.27524 (Simulation time: 0 hr 7 min 55 sec) 
Heartbeat CPU 3 instructions: 40000000 cycles: 19588490 heartbeat IPC: 2.03713 cumulative IPC: 2.04202 (Simulation time: 0 hr 8 min 51 sec) 
Heartbeat CPU 0 instructions: 40000000 cycles: 19607138 heartbeat IPC: 2.10629 cumulative IPC: 2.04007 (Simulation time: 0 hr 8 min 52 sec) 
Heartbeat CPU 2 instructions: 40000000 cycles: 21465988 heartbeat IPC: 1.86833 cumulative IPC: 1.86341 (Simulation time: 0 hr 9 min 43 sec) 
Heartbeat CPU 1 instructions: 50000002 cycles: 21976622 heartbeat IPC: 2.27476 cumulative IPC: 2.27515 (Simulation time: 0 hr 9 min 57 sec) 
Heartbeat CPU 3 instructions: 50000001 cycles: 24503590 heartbeat IPC: 2.03455 cumulative IPC: 2.04052 (Simulation time: 0 hr 11 min 8 sec) 
Heartbeat CPU 0 instructions: 50000001 cycles: 24927036 heartbeat IPC: 1.87974 cumulative IPC: 2.00585 (Simulation time: 0 hr 11 min 19 sec) 
Heartbeat CPU 1 instructions: 60000000 cycles: 26372397 heartbeat IPC: 2.27491 cumulative IPC: 2.27511 (Simulation time: 0 hr 12 min 0 sec) 
Heartbeat CPU 2 instructions: 50000003 cycles: 26814660 heartbeat IPC: 1.86962 cumulative IPC: 1.86465 (Simulation time: 0 hr 12 min 12 sec) 
Heartbeat CPU 3 instructions: 60000000 cycles: 29438149 heartbeat IPC: 2.02652 cumulative IPC: 2.03817 (Simulation time: 0 hr 13 min 24 sec) 
Heartbeat CPU 0 instructions: 60000000 cycles: 30140057 heartbeat IPC: 1.91827 cumulative IPC: 1.99071 (Simulation time: 0 hr 13 min 43 sec) 
Heartbeat CPU 1 instructions: 70000001 cycles: 30767696 heartbeat IPC: 2.27516 cumulative IPC: 2.27511 (Simulation time: 0 hr 14 min 1 sec) 
Heartbeat CPU 2 instructions: 60000000 cycles: 32139860 heartbeat IPC: 1.87786 cumulative IPC: 1.86684 (Simulation time: 0 hr 14 min 37 sec) 
Heartbeat CPU 3 instructions: 70000003 cycles: 34361899 heartbeat IPC: 2.03097 cumulative IPC: 2.03714 (Simulation time: 0 hr 15 min 40 sec) 
Heartbeat CPU 1 instructions: 80000000 cycles: 35162067 heartbeat IPC: 2.27564 cumulative IPC: 2.27518 (Simulation time: 0 hr 16 min 2 sec) 
Heartbeat CPU 0 instructions: 70000002 cycles: 35189042 heartbeat IPC: 1.9806 cumulative IPC: 1.98926 (Simulation time: 0 hr 16 min 3 sec) 
Heartbeat CPU 2 instructions: 70000001 cycles: 37510686 heartbeat IPC: 1.86191 cumulative IPC: 1.86613 (Simulation time: 0 hr 17 min 5 sec) 
Heartbeat CPU 3 instructions: 80000000 cycles: 39260581 heartbeat IPC: 2.04136 cumulative IPC: 2.03767 (Simulation time: 0 hr 17 min 50 sec) 
Heartbeat CPU 1 instructions: 90000002 cycles: 39556859 heartbeat IPC: 2.27542 cumulative IPC: 2.27521 (Simulation time: 0 hr 17 min 58 sec) 
Heartbeat CPU 0 instructions: 80000000 cycles: 40310534 heartbeat IPC: 1.95256 cumulative IPC: 1.98459 (Simulation time: 0 hr 18 min 17 sec) 
Heartbeat CPU 2 instructions: 80000000 cycles: 42887295 heartbeat IPC: 1.85991 cumulative IPC: 1.86535 (Simulation time: 0 hr 19 min 24 sec) 
Heartbeat CPU 1 instructions: 100000000 cycles: 43951264 heartbeat IPC: 2.27562 cumulative IPC: 2.27525 (Simulation time: 0 hr 19 min 50 sec) 
Heartbeat CPU 3 instructions: 90000000 cycles: 44176947 heartbeat IPC: 2.03402 cumulative IPC: 2.03726 (Simulation time: 0 hr 19 min 56 sec) 
Heartbeat CPU 0 instructions: 90000002 cycles: 45025099 heartbeat IPC: 2.12109 cumulative IPC: 1.99889 (Simulation time: 0 hr 20 min 17 sec) 
Heartbeat CPU 2 instructions: 90000003 cycles: 48230657 heartbeat IPC: 1.87148 cumulative IPC: 1.86603 (Simulation time: 0 hr 21 min 35 sec) 
Heartbeat CPU 1 instructions: 110000000 cycles: 48347139 heartbeat IPC: 2.27486 cumulative IPC: 2.27521 (Simulation time: 0 hr 21 min 38 sec) 
Heartbeat CPU 3 instructions: 100000000 cycles: 49075314 heartbeat IPC: 2.0415 cumulative IPC: 2.03768 (Simulation time: 0 hr 21 min 57 sec) 
Heartbeat CPU 0 instructions: 100000000 cycles: 49433187 heartbeat IPC: 2.26856 cumulative IPC: 2.02293 (Simulation time: 0 hr 22 min 6 sec) 
Heartbeat CPU 1 instructions: 120000000 cycles: 52743180 heartbeat IPC: 2.27477 cumulative IPC: 2.27518 (Simulation time: 0 hr 23 min 33 sec) 
Heartbeat CPU 2 instructions: 100000000 cycles: 53577518 heartbeat IPC: 1.87026 cumulative IPC: 1.86645 (Simulation time: 0 hr 23 min 54 sec) 
Heartbeat CPU 3 instructions: 110000002 cycles: 53992343 heartbeat IPC: 2.03375 cumulative IPC: 2.03733 (Simulation time: 0 hr 24 min 5 sec) 
Heartbeat CPU 0 instructions: 110000002 cycles: 55107992 heartbeat IPC: 1.76218 cumulative IPC: 1.99608 (Simulation time: 0 hr 24 min 34 sec) 
Heartbeat CPU 1 instructions: 130000002 cycles: 57138299 heartbeat IPC: 2.27525 cumulative IPC: 2.27518 (Simulation time: 0 hr 25 min 27 sec) 
Heartbeat CPU 2 instructions: 110000002 cycles: 58911660 heartbeat IPC: 1.87472 cumulative IPC: 1.8672 (Simulation time: 0 hr 26 min 15 sec) 
Heartbeat CPU 3 instructions: 120000000 cycles: 58925881 heartbeat IPC: 2.02694 cumulative IPC: 2.03646 (Simulation time: 0 hr 26 min 15 sec) 
Heartbeat CPU 0 instructions: 120000000 cycles: 59882597 heartbeat IPC: 2.09441 cumulative IPC: 2.00392 (Simulation time: 0 hr 26 min 41 sec) 
Heartbeat CPU 1 instructions: 140000000 cycles: 61533300 heartbeat IPC: 2.27531 cumulative IPC: 2.27519 (Simulation time: 0 hr 27 min 25 sec) 
Heartbeat CPU 3 instructions: 130000003 cycles: 63824809 heartbeat IPC: 2.04126 cumulative IPC: 2.03683 (Simulation time: 0 hr 28 min 26 sec) 
Heartbeat CPU 2 instructions: 120000000 cycles: 64179110 heartbeat IPC: 1.89845 cumulative IPC: 1.86977 (Simulation time: 0 hr 28 min 35 sec) 
Heartbeat CPU 0 instructions: 130000001 cycles: 65186137 heartbeat IPC: 1.88553 cumulative IPC: 1.99429 (Simulation time: 0 hr 29 min 2 sec) 
Heartbeat CPU 1 instructions: 150000000 cycles: 65928315 heartbeat IPC: 2.27531 cumulative IPC: 2.2752 (Simulation time: 0 hr 29 min 21 sec) 
Heartbeat CPU 3 instructions: 140000000 cycles: 68733872 heartbeat IPC: 2.03705 cumulative IPC: 2.03684 (Simulation time: 0 hr 30 min 36 sec) 
Heartbeat CPU 2 instructions: 130000003 cycles: 69504848 heartbeat IPC: 1.87767 cumulative IPC: 1.87037 (Simulation time: 0 hr 30 min 55 sec) 
Heartbeat CPU 1 instructions: 160000000 cycles: 70323519 heartbeat IPC: 2.27521 cumulative IPC: 2.2752 (Simulation time: 0 hr 31 min 17 sec) 
Heartbeat CPU 0 instructions: 140000000 cycles: 70382475 heartbeat IPC: 1.92443 cumulative IPC: 1.98913 (Simulation time: 0 hr 31 min 18 sec) 
Heartbeat CPU 3 instructions: 150000000 cycles: 73663959 heartbeat IPC: 2.02836 cumulative IPC: 2.03627 (Simulation time: 0 hr 32 min 49 sec) 
Heartbeat CPU 1 instructions: 170000002 cycles: 74720056 heartbeat IPC: 2.27452 cumulative IPC: 2.27516 (Simulation time: 0 hr 33 min 18 sec) 
Heartbeat CPU 2 instructions: 140000000 cycles: 74802206 heartbeat IPC: 1.88773 cumulative IPC: 1.8716 (Simulation time: 0 hr 33 min 20 sec) 
Heartbeat CPU 0 instructions: 150000003 cycles: 75469952 heartbeat IPC: 1.96561 cumulative IPC: 1.98755 (Simulation time: 0 hr 33 min 38 sec) 
Heartbeat CPU 3 instructions: 160000000 cycles: 78607617 heartbeat IPC: 2.02279 cumulative IPC: 2.03543 (Simulation time: 0 hr 35 min 1 sec) 
Heartbeat CPU 1 instructions: 180000000 cycles: 79115708 heartbeat IPC: 2.27497 cumulative IPC: 2.27515 (Simulation time: 0 hr 35 min 14 sec) 
Heartbeat CPU 2 instructions: 150000001 cycles: 80085996 heartbeat IPC: 1.89258 cumulative IPC: 1.87299 (Simulation time: 0 hr 35 min 40 sec) 
Heartbeat CPU 0 instructions: 160000000 cycles: 80576892 heartbeat IPC: 1.95812 cumulative IPC: 1.98568 (Simulation time: 0 hr 35 min 53 sec) 
Heartbeat CPU 1 instructions: 190000000 cycles: 83510285 heartbeat IPC: 2.27553 cumulative IPC: 2.27517 (Simulation time: 0 hr 37 min 11 sec) 
Heartbeat CPU 3 instructions: 170000000 cycles: 83541531 heartbeat IPC: 2.02679 cumulative IPC: 2.03492 (Simulation time: 0 hr 37 min 12 sec) 
Heartbeat CPU 0 instructions: 170000002 cycles: 85290483 heartbeat IPC: 2.12153 cumulative IPC: 1.99319 (Simulation time: 0 hr 37 min 55 sec) 
Heartbeat CPU 2 instructions: 160000000 cycles: 85315081 heartbeat IPC: 1.91238 cumulative IPC: 1.8754 (Simulation time: 0 hr 37 min 56 sec) 
Heartbeat CPU 1 instructions: 200000000 cycles: 87905535 heartbeat IPC: 2.27518 cumulative IPC: 2.27517 (Simulation time: 0 hr 39 min 5 sec) 
Heartbeat CPU 3 instructions: 180000000 cycles: 88470089 heartbeat IPC: 2.02899 cumulative IPC: 2.03459 (Simulation time: 0 hr 39 min 20 sec) 
Heartbeat CPU 0 instructions: 180000000 cycles: 89607773 heartbeat IPC: 2.31627 cumulative IPC: 2.00875 (Simulation time: 0 hr 39 min 52 sec) 
Heartbeat CPU 2 instructions: 170000002 cycles: 90525958 heartbeat IPC: 1.91906 cumulative IPC: 1.87791 (Simulation time: 0 hr 40 min 18 sec) 
Heartbeat CPU 1 instructions: 210000002 cycles: 92300514 heartbeat IPC: 2.27532 cumulative IPC: 0.108342 (Simulation time: 0 hr 41 min 8 sec) 
Heartbeat CPU 3 instructions: 190000001 cycles: 93407952 heartbeat IPC: 2.02517 cumulative IPC: 2.03409 (Simulation time: 0 hr 41 min 39 sec) 
Heartbeat CPU 0 instructions: 190000001 cycles: 95293392 heartbeat IPC: 1.75882 cumulative IPC: 1.99384 (Simulation time: 0 hr 42 min 31 sec) 
Heartbeat CPU 2 instructions: 180000000 cycles: 95742344 heartbeat IPC: 1.91704 cumulative IPC: 1.88005 (Simulation time: 0 hr 42 min 43 sec) 
Heartbeat CPU 1 instructions: 220000000 cycles: 96696314 heartbeat IPC: 2.2749 cumulative IPC: 0.206833 (Simulation time: 0 hr 43 min 9 sec) 
Heartbeat CPU 3 instructions: 200000000 cycles: 98336381 heartbeat IPC: 2.02904 cumulative IPC: 2.03384 (Simulation time: 0 hr 43 min 56 sec) 
Heartbeat CPU 0 instructions: 200000000 cycles: 100102173 heartbeat IPC: 2.07953 cumulative IPC: 1.99796 (Simulation time: 0 hr 44 min 46 sec) 
Heartbeat CPU 2 instructions: 190000001 cycles: 100987010 heartbeat IPC: 1.9067 cumulative IPC: 1.88143 (Simulation time: 0 hr 45 min 12 sec) 
Heartbeat CPU 1 instructions: 230000001 cycles: 101092712 heartbeat IPC: 2.27459 cumulative IPC: 0.296757 (Simulation time: 0 hr 45 min 15 sec) 
Heartbeat CPU 3 instructions: 210000001 cycles: 103289817 heartbeat IPC: 2.0188 cumulative IPC: 0.096815 (Simulation time: 0 hr 46 min 17 sec) 
Heartbeat CPU 0 instructions: 210000000 cycles: 105392064 heartbeat IPC: 1.8904 cumulative IPC: 0.0948838 (Simulation time: 0 hr 47 min 16 sec) 
Heartbeat CPU 1 instructions: 240000000 cycles: 105488485 heartbeat IPC: 2.27491 cumulative IPC: 0.379188 (Simulation time: 0 hr 47 min 19 sec) 
Heartbeat CPU 2 instructions: 200000000 cycles: 106179075 heartbeat IPC: 1.92602 cumulative IPC: 1.88361 (Simulation time: 0 hr 47 min 38 sec) 

Warmup complete CPU 0 instructions: 211502873 cycles: 106179082 (Simulation time: 0 hr 47 min 38 sec) 
Warmup complete CPU 1 instructions: 241571328 cycles: 106179082 (Simulation time: 0 hr 47 min 38 sec) 
Warmup complete CPU 2 instructions: 200000001 cycles: 106179082 (Simulation time: 0 hr 47 min 38 sec) 
Warmup complete CPU 3 instructions: 215820202 cycles: 106179081 (Simulation time: 0 hr 47 min 38 sec) 

Heartbeat CPU 3 instructions: 220000000 cycles: 115820539 heartbeat IPC: 0.798039 cumulative IPC: 0.433523 (Simulation time: 0 hr 49 min 11 sec) 
Heartbeat CPU 1 instructions: 250000000 cycles: 117444530 heartbeat IPC: 0.836397 cumulative IPC: 0.748188 (Simulation time: 0 hr 49 min 26 sec) 
Heartbeat CPU 0 instructions: 220000000 cycles: 119882976 heartbeat IPC: 0.690088 cumulative IPC: 0.620052 (Simulation time: 0 hr 49 min 49 sec) 
Heartbeat CPU 1 instructions: 260000000 cycles: 130518823 heartbeat IPC: 0.76486 cumulative IPC: 0.757143 (Simulation time: 0 hr 51 min 32 sec) 
Heartbeat CPU 2 instructions: 210000000 cycles: 134642886 heartbeat IPC: 0.351323 cumulative IPC: 0.351323 (Simulation time: 0 hr 52 min 9 sec) 
Heartbeat CPU 0 instructions: 230000003 cycles: 135664968 heartbeat IPC: 0.633634 cumulative IPC: 0.627321 (Simulation time: 0 hr 52 min 19 sec) 
Heartbeat CPU 3 instructions: 230000002 cycles: 138713890 heartbeat IPC: 0.436808 cumulative IPC: 0.435835 (Simulation time: 0 hr 52 min 47 sec) 
Heartbeat CPU 1 instructions: 270000001 cycles: 143786459 heartbeat IPC: 0.753714 cumulative IPC: 0.755933 (Simulation time: 0 hr 53 min 32 sec) 
Heartbeat CPU 0 instructions: 240000000 cycles: 149197021 heartbeat IPC: 0.738986 cumulative IPC: 0.662448 (Simulation time: 0 hr 54 min 23 sec) 
Heartbeat CPU 1 instructions: 280000000 cycles: 157165868 heartbeat IPC: 0.747417 cumulative IPC: 0.753699 (Simulation time: 0 hr 55 min 39 sec) 
Heartbeat CPU 3 instructions: 240000000 cycles: 161872211 heartbeat IPC: 0.43181 cumulative IPC: 0.434161 (Simulation time: 0 hr 56 min 28 sec) 
Heartbeat CPU 0 instructions: 250000000 cycles: 161985950 heartbeat IPC: 0.781926 cumulative IPC: 0.689828 (Simulation time: 0 hr 56 min 29 sec) 
Heartbeat CPU 2 instructions: 220000000 cycles: 165363551 heartbeat IPC: 0.325514 cumulative IPC: 0.337926 (Simulation time: 0 hr 57 min 5 sec) 
Heartbeat CPU 1 instructions: 290000001 cycles: 170098204 heartbeat IPC: 0.773256 cumulative IPC: 0.757656 (Simulation time: 0 hr 57 min 55 sec) 
Heartbeat CPU 0 instructions: 260000000 cycles: 173390192 heartbeat IPC: 0.876867 cumulative IPC: 0.721564 (Simulation time: 0 hr 58 min 25 sec) 
Heartbeat CPU 1 instructions: 300000000 cycles: 183475758 heartbeat IPC: 0.747521 cumulative IPC: 0.755901 (Simulation time: 1 hr 0 min 4 sec) 
Heartbeat CPU 3 instructions: 250000000 cycles: 183581112 heartbeat IPC: 0.460641 cumulative IPC: 0.441588 (Simulation time: 1 hr 0 min 5 sec) 
Heartbeat CPU 2 instructions: 230000000 cycles: 192143739 heartbeat IPC: 0.37341 cumulative IPC: 0.348981 (Simulation time: 1 hr 1 min 22 sec) 
Heartbeat CPU 0 instructions: 270000000 cycles: 192436341 heartbeat IPC: 0.525041 cumulative IPC: 0.678171 (Simulation time: 1 hr 1 min 25 sec) 
Heartbeat CPU 1 instructions: 310000000 cycles: 196946655 heartbeat IPC: 0.742341 cumulative IPC: 0.753889 (Simulation time: 1 hr 2 min 7 sec) 
Heartbeat CPU 3 instructions: 260000000 cycles: 206360709 heartbeat IPC: 0.438989 cumulative IPC: 0.440997 (Simulation time: 1 hr 3 min 31 sec) 
Heartbeat CPU 1 instructions: 320000000 cycles: 210285284 heartbeat IPC: 0.749702 cumulative IPC: 0.753353 (Simulation time: 1 hr 4 min 5 sec) 
Heartbeat CPU 0 instructions: 280000000 cycles: 211897441 heartbeat IPC: 0.513846 cumulative IPC: 0.647921 (Simulation time: 1 hr 4 min 19 sec) 
Heartbeat CPU 2 instructions: 240000000 cycles: 221708657 heartbeat IPC: 0.338239 cumulative IPC: 0.346232 (Simulation time: 1 hr 5 min 57 sec) 
Heartbeat CPU 1 instructions: 330000002 cycles: 223633544 heartbeat IPC: 0.749161 cumulative IPC: 0.752876 (Simulation time: 1 hr 6 min 15 sec) 
Heartbeat CPU 0 instructions: 290000002 cycles: 226369061 heartbeat IPC: 0.691008 cumulative IPC: 0.653109 (Simulation time: 1 hr 6 min 42 sec) 
Heartbeat CPU 3 instructions: 270000002 cycles: 229076755 heartbeat IPC: 0.440218 cumulative IPC: 0.440853 (Simulation time: 1 hr 7 min 12 sec) 
Heartbeat CPU 1 instructions: 340000000 cycles: 236860936 heartbeat IPC: 0.756007 cumulative IPC: 0.753193 (Simulation time: 1 hr 8 min 25 sec) 
Heartbeat CPU 0 instructions: 300000000 cycles: 242207470 heartbeat IPC: 0.631376 cumulative IPC: 0.650578 (Simulation time: 1 hr 9 min 18 sec) 
Heartbeat CPU 1 instructions: 350000001 cycles: 249926891 heartbeat IPC: 0.765348 cumulative IPC: 0.754298 (Simulation time: 1 hr 10 min 39 sec) 
Heartbeat CPU 3 instructions: 280000000 cycles: 251353430 heartbeat IPC: 0.4489 cumulative IPC: 0.442088 (Simulation time: 1 hr 10 min 53 sec) 
Heartbeat CPU 2 instructions: 250000000 cycles: 253548344 heartbeat IPC: 0.314073 cumulative IPC: 0.339284 (Simulation time: 1 hr 11 min 13 sec) 
Heartbeat CPU 0 instructions: 310000001 cycles: 257590350 heartbeat IPC: 0.650073 cumulative IPC: 0.650527 (Simulation time: 1 hr 11 min 54 sec) 
Heartbeat CPU 1 instructions: 360000000 cycles: 263246458 heartbeat IPC: 0.750775 cumulative IPC: 0.753999 (Simulation time: 1 hr 12 min 56 sec) 
Heartbeat CPU 0 instructions: 320000000 cycles: 270811352 heartbeat IPC: 0.756372 cumulative IPC: 0.659027 (Simulation time: 1 hr 14 min 12 sec) 
Heartbeat CPU 3 instructions: 290000001 cycles: 273468987 heartbeat IPC: 0.45217 cumulative IPC: 0.443421 (Simulation time: 1 hr 14 min 39 sec) 
Heartbeat CPU 1 instructions: 370000000 cycles: 276474895 heartbeat IPC: 0.755947 cumulative IPC: 0.754151 (Simulation time: 1 hr 15 min 11 sec) 
Heartbeat CPU 2 instructions: 260000000 cycles: 276497970 heartbeat IPC: 0.435737 cumulative IPC: 0.35228 (Simulation time: 1 hr 15 min 11 sec) 
Heartbeat CPU 0 instructions: 330000002 cycles: 283719348 heartbeat IPC: 0.774714 cumulative IPC: 0.667438 (Simulation time: 1 hr 16 min 22 sec) 
Heartbeat CPU 1 instructions: 380000000 cycles: 289493874 heartbeat IPC: 0.768109 cumulative IPC: 0.755142 (Simulation time: 1 hr 17 min 25 sec) 
Heartbeat CPU 0 instructions: 340000000 cycles: 294818755 heartbeat IPC: 0.900949 cumulative IPC: 0.681178 (Simulation time: 1 hr 18 min 17 sec) 
Heartbeat CPU 3 instructions: 300000000 cycles: 296124949 heartbeat IPC: 0.441385 cumulative IPC: 0.443178 (Simulation time: 1 hr 18 min 29 sec) 
Heartbeat CPU 1 instructions: 390000003 cycles: 302684652 heartbeat IPC: 0.758106 cumulative IPC: 0.755341 (Simulation time: 1 hr 19 min 25 sec) 
Heartbeat CPU 2 instructions: 270000002 cycles: 311761690 heartbeat IPC: 0.283578 cumulative IPC: 0.340496 (Simulation time: 1 hr 20 min 49 sec) 
Heartbeat CPU 0 instructions: 350000001 cycles: 314335512 heartbeat IPC: 0.51238 cumulative IPC: 0.665351 (Simulation time: 1 hr 21 min 12 sec) 
Heartbeat CPU 1 instructions: 400000000 cycles: 316020712 heartbeat IPC: 0.749846 cumulative IPC: 0.754992 (Simulation time: 1 hr 21 min 27 sec) 
Heartbeat CPU 3 instructions: 310000002 cycles: 319590141 heartbeat IPC: 0.426163 cumulative IPC: 0.441307 (Simulation time: 1 hr 21 min 58 sec) 
Heartbeat CPU 1 instructions: 410000000 cycles: 329394816 heartbeat IPC: 0.747714 cumulative IPC: 0.754556 (Simulation time: 1 hr 23 min 22 sec) 
Heartbeat CPU 0 instructions: 360000000 cycles: 334131672 heartbeat IPC: 0.505148 cumulative IPC: 0.651439 (Simulation time: 1 hr 24 min 2 sec) 
Heartbeat CPU 1 instructions: 420000000 cycles: 342934454 heartbeat IPC: 0.738572 cumulative IPC: 0.753641 (Simulation time: 1 hr 25 min 17 sec) 
Heartbeat CPU 3 instructions: 320000000 cycles: 343309471 heartbeat IPC: 0.421597 cumulative IPC: 0.439335 (Simulation time: 1 hr 25 min 20 sec) 
Heartbeat CPU 0 instructions: 370000000 cycles: 349294719 heartbeat IPC: 0.659498 cumulative IPC: 0.651941 (Simulation time: 1 hr 26 min 18 sec) 
Heartbeat CPU 1 instructions: 430000003 cycles: 356142278 heartbeat IPC: 0.757127 cumulative IPC: 0.753826 (Simulation time: 1 hr 27 min 25 sec) 
Heartbeat CPU 2 instructions: 280000000 cycles: 356209575 heartbeat IPC: 0.224983 cumulative IPC: 0.319961 (Simulation time: 1 hr 27 min 26 sec) 
Heartbeat CPU 0 instructions: 380000000 cycles: 364982532 heartbeat IPC: 0.637437 cumulative IPC: 0.651062 (Simulation time: 1 hr 28 min 51 sec) 
Heartbeat CPU 3 instructions: 330000003 cycles: 365627630 heartbeat IPC: 0.448066 cumulative IPC: 0.440086 (Simulation time: 1 hr 28 min 58 sec) 
Heartbeat CPU 1 instructions: 440000000 cycles: 369300165 heartbeat IPC: 0.76 cumulative IPC: 0.754134 (Simulation time: 1 hr 29 min 35 sec) 
Heartbeat CPU 0 instructions: 390000001 cycles: 380291467 heartbeat IPC: 0.653213 cumulative IPC: 0.651182 (Simulation time: 1 hr 31 min 19 sec) 
Heartbeat CPU 1 instructions: 450000000 cycles: 382653671 heartbeat IPC: 0.748867 cumulative IPC: 0.75388 (Simulation time: 1 hr 31 min 44 sec) 
Heartbeat CPU 2 instructions: 290000000 cycles: 384095808 heartbeat IPC: 0.3586 cumulative IPC: 0.323838 (Simulation time: 1 hr 31 min 58 sec) 
Heartbeat CPU 3 instructions: 340000000 cycles: 387786863 heartbeat IPC: 0.451279 cumulative IPC: 0.440967 (Simulation time: 1 hr 32 min 37 sec) 
Heartbeat CPU 0 instructions: 400000000 cycles: 393372013 heartbeat IPC: 0.764494 cumulative IPC: 0.656343 (Simulation time: 1 hr 33 min 38 sec) 
Heartbeat CPU 1 instructions: 460000000 cycles: 395816118 heartbeat IPC: 0.759737 cumulative IPC: 0.754146 (Simulation time: 1 hr 34 min 4 sec) 
Heartbeat CPU 0 instructions: 410000002 cycles: 406554968 heartbeat IPC: 0.758555 cumulative IPC: 0.660829 (Simulation time: 1 hr 35 min 50 sec) 
Heartbeat CPU 1 instructions: 470000000 cycles: 409093978 heartbeat IPC: 0.753133 cumulative IPC: 0.754102 (Simulation time: 1 hr 36 min 17 sec) 
Heartbeat CPU 3 instructions: 350000002 cycles: 409278198 heartbeat IPC: 0.465304 cumulative IPC: 0.442693 (Simulation time: 1 hr 36 min 19 sec) 
Heartbeat CPU 2 instructions: 300000000 cycles: 410690290 heartbeat IPC: 0.376018 cumulative IPC: 0.328395 (Simulation time: 1 hr 36 min 34 sec) 
Heartbeat CPU 0 instructions: 420000000 cycles: 417501241 heartbeat IPC: 0.913553 cumulative IPC: 0.669715 (Simulation time: 1 hr 37 min 37 sec) 
Heartbeat CPU 1 instructions: 480000000 cycles: 422195012 heartbeat IPC: 0.763299 cumulative IPC: 0.754483 (Simulation time: 1 hr 38 min 14 sec) 
Heartbeat CPU 3 instructions: 360000000 cycles: 431791256 heartbeat IPC: 0.444187 cumulative IPC: 0.442796 (Simulation time: 1 hr 39 min 41 sec) 
Heartbeat CPU 1 instructions: 490000001 cycles: 435515937 heartbeat IPC: 0.750699 cumulative IPC: 0.75433 (Simulation time: 1 hr 40 min 16 sec) 
Heartbeat CPU 0 instructions: 430000001 cycles: 436943805 heartbeat IPC: 0.514336 cumulative IPC: 0.660582 (Simulation time: 1 hr 40 min 28 sec) 
Heartbeat CPU 1 instructions: 500000000 cycles: 448883604 heartbeat IPC: 0.748074 cumulative IPC: 0.754086 (Simulation time: 1 hr 42 min 12 sec) 
Heartbeat CPU 2 instructions: 310000003 cycles: 450884378 heartbeat IPC: 0.248793 cumulative IPC: 0.319113 (Simulation time: 1 hr 42 min 31 sec) 
Heartbeat CPU 3 instructions: 370000001 cycles: 454310989 heartbeat IPC: 0.444055 cumulative IPC: 0.442878 (Simulation time: 1 hr 42 min 59 sec) 
Heartbeat CPU 0 instructions: 440000000 cycles: 456554225 heartbeat IPC: 0.509933 cumulative IPC: 0.65215 (Simulation time: 1 hr 43 min 18 sec) 
Heartbeat CPU 1 instructions: 510000000 cycles: 462418040 heartbeat IPC: 0.738856 cumulative IPC: 0.753507 (Simulation time: 1 hr 44 min 8 sec) 
Heartbeat CPU 0 instructions: 450000001 cycles: 471485083 heartbeat IPC: 0.669754 cumulative IPC: 0.652869 (Simulation time: 1 hr 45 min 42 sec) 
Heartbeat CPU 1 instructions: 520000000 cycles: 475491982 heartbeat IPC: 0.76488 cumulative IPC: 0.75391 (Simulation time: 1 hr 46 min 24 sec) 
Heartbeat CPU 3 instructions: 380000000 cycles: 476909039 heartbeat IPC: 0.442516 cumulative IPC: 0.442855 (Simulation time: 1 hr 46 min 36 sec) 
Heartbeat CPU 0 instructions: 460000000 cycles: 487429371 heartbeat IPC: 0.627184 cumulative IPC: 0.651795 (Simulation time: 1 hr 48 min 6 sec) 
Heartbeat CPU 1 instructions: 530000002 cycles: 488899666 heartbeat IPC: 0.745841 cumulative IPC: 0.753627 (Simulation time: 1 hr 48 min 20 sec) 
Heartbeat CPU 2 instructions: 320000000 cycles: 494720381 heartbeat IPC: 0.228123 cumulative IPC: 0.308847 (Simulation time: 1 hr 49 min 13 sec) 
Heartbeat CPU 3 instructions: 390000000 cycles: 499895057 heartbeat IPC: 0.435047 cumulative IPC: 0.4424 (Simulation time: 1 hr 49 min 54 sec) 
Heartbeat CPU 1 instructions: 540000000 cycles: 502093484 heartbeat IPC: 0.757931 cumulative IPC: 0.753771 (Simulation time: 1 hr 50 min 12 sec) 
Heartbeat CPU 0 instructions: 470000003 cycles: 503023974 heartbeat IPC: 0.641248 cumulative IPC: 0.651381 (Simulation time: 1 hr 50 min 19 sec) 
Heartbeat CPU 1 instructions: 550000003 cycles: 515335734 heartbeat IPC: 0.755159 cumulative IPC: 0.753816 (Simulation time: 1 hr 52 min 15 sec) 
Heartbeat CPU 0 instructions: 480000000 cycles: 516296493 heartbeat IPC: 0.753436 cumulative IPC: 0.654684 (Simulation time: 1 hr 52 min 24 sec) 
Heartbeat CPU 3 instructions: 400000000 cycles: 522236945 heartbeat IPC: 0.44759 cumulative IPC: 0.442678 (Simulation time: 1 hr 53 min 17 sec) 
Heartbeat CPU 1 instructions: 560000000 cycles: 528707490 heartbeat IPC: 0.747845 cumulative IPC: 0.753627 (Simulation time: 1 hr 54 min 13 sec) 
Heartbeat CPU 0 instructions: 490000003 cycles: 529902476 heartbeat IPC: 0.734971 cumulative IPC: 0.657262 (Simulation time: 1 hr 54 min 23 sec) 
Heartbeat CPU 2 instructions: 330000001 cycles: 539611312 heartbeat IPC: 0.222762 cumulative IPC: 0.299932 (Simulation time: 1 hr 55 min 55 sec) 
Heartbeat CPU 0 instructions: 500000000 cycles: 540612889 heartbeat IPC: 0.933671 cumulative IPC: 0.664076 (Simulation time: 1 hr 56 min 6 sec) 
Heartbeat CPU 1 instructions: 570000003 cycles: 541712725 heartbeat IPC: 0.768921 cumulative IPC: 0.754083 (Simulation time: 1 hr 56 min 16 sec) 
Heartbeat CPU 3 instructions: 410000001 cycles: 544570448 heartbeat IPC: 0.447758 cumulative IPC: 0.442937 (Simulation time: 1 hr 56 min 40 sec) 
Heartbeat CPU 1 instructions: 580000000 cycles: 555064151 heartbeat IPC: 0.748983 cumulative IPC: 0.753932 (Simulation time: 1 hr 58 min 3 sec) 
Heartbeat CPU 0 instructions: 510000003 cycles: 560424535 heartbeat IPC: 0.504754 cumulative IPC: 0.657127 (Simulation time: 1 hr 58 min 49 sec) 
Heartbeat CPU 3 instructions: 420000000 cycles: 567896118 heartbeat IPC: 0.428712 cumulative IPC: 0.442218 (Simulation time: 1 hr 59 min 55 sec) 
Heartbeat CPU 1 instructions: 590000001 cycles: 568527979 heartbeat IPC: 0.742731 cumulative IPC: 0.753605 (Simulation time: 2 hr 0 min 1 sec) 
Heartbeat CPU 0 instructions: 520000000 cycles: 580192234 heartbeat IPC: 0.505876 cumulative IPC: 0.65082 (Simulation time: 2 hr 1 min 37 sec) 
Heartbeat CPU 1 instructions: 600000000 cycles: 581699544 heartbeat IPC: 0.759211 cumulative IPC: 0.753761 (Simulation time: 2 hr 1 min 49 sec) 
Heartbeat CPU 3 instructions: 430000003 cycles: 591978582 heartbeat IPC: 0.41524 cumulative IPC: 0.440881 (Simulation time: 2 hr 3 min 19 sec) 
Heartbeat CPU 1 instructions: 610000003 cycles: 595155794 heartbeat IPC: 0.743149 cumulative IPC: 0.753469 (Simulation time: 2 hr 3 min 49 sec) 
Heartbeat CPU 0 instructions: 530000000 cycles: 595575909 heartbeat IPC: 0.65004 cumulative IPC: 0.650795 (Simulation time: 2 hr 3 min 53 sec) 
Heartbeat CPU 2 instructions: 340000000 cycles: 601506830 heartbeat IPC: 0.161563 cumulative IPC: 0.282641 (Simulation time: 2 hr 4 min 50 sec) 
Heartbeat CPU 1 instructions: 620000000 cycles: 608388747 heartbeat IPC: 0.755689 cumulative IPC: 0.753527 (Simulation time: 2 hr 6 min 3 sec) 
Heartbeat CPU 0 instructions: 540000000 cycles: 611568649 heartbeat IPC: 0.625284 cumulative IPC: 0.649988 (Simulation time: 2 hr 6 min 38 sec) 
Heartbeat CPU 3 instructions: 440000000 cycles: 615094651 heartbeat IPC: 0.432599 cumulative IPC: 0.440505 (Simulation time: 2 hr 7 min 20 sec) 
Heartbeat CPU 1 instructions: 630000000 cycles: 621361471 heartbeat IPC: 0.770848 cumulative IPC: 0.753963 (Simulation time: 2 hr 8 min 27 sec) 
Heartbeat CPU 0 instructions: 550000003 cycles: 626890885 heartbeat IPC: 0.652646 cumulative IPC: 0.650066 (Simulation time: 2 hr 9 min 16 sec) 
Heartbeat CPU 1 instructions: 640000000 cycles: 634795342 heartbeat IPC: 0.744387 cumulative IPC: 0.75372 (Simulation time: 2 hr 10 min 28 sec) 
Heartbeat CPU 3 instructions: 450000002 cycles: 637934362 heartbeat IPC: 0.437834 cumulative IPC: 0.44039 (Simulation time: 2 hr 11 min 1 sec) 
Heartbeat CPU 0 instructions: 560000000 cycles: 640476468 heartbeat IPC: 0.736074 cumulative IPC: 0.652253 (Simulation time: 2 hr 11 min 26 sec) 
Heartbeat CPU 1 instructions: 650000003 cycles: 648062234 heartbeat IPC: 0.753756 cumulative IPC: 0.753721 (Simulation time: 2 hr 12 min 33 sec) 
Heartbeat CPU 0 instructions: 570000000 cycles: 654266422 heartbeat IPC: 0.725166 cumulative IPC: 0.654088 (Simulation time: 2 hr 13 min 32 sec) 
Heartbeat CPU 2 instructions: 350000000 cycles: 657832500 heartbeat IPC: 0.177539 cumulative IPC: 0.27191 (Simulation time: 2 hr 14 min 11 sec) 
Heartbeat CPU 3 instructions: 460000000 cycles: 659767593 heartbeat IPC: 0.458017 cumulative IPC: 0.441085 (Simulation time: 2 hr 14 min 31 sec) 
Heartbeat CPU 1 instructions: 660000000 cycles: 661037939 heartbeat IPC: 0.770671 cumulative IPC: 0.754117 (Simulation time: 2 hr 14 min 44 sec) 
Heartbeat CPU 0 instructions: 580000000 cycles: 664738510 heartbeat IPC: 0.954919 cumulative IPC: 0.659728 (Simulation time: 2 hr 15 min 20 sec) 
Heartbeat CPU 1 instructions: 670000000 cycles: 674181570 heartbeat IPC: 0.760825 cumulative IPC: 0.754273 (Simulation time: 2 hr 16 min 44 sec) 
Heartbeat CPU 3 instructions: 470000000 cycles: 681345580 heartbeat IPC: 0.463435 cumulative IPC: 0.441924 (Simulation time: 2 hr 17 min 54 sec) 
Heartbeat CPU 0 instructions: 590000003 cycles: 684284821 heartbeat IPC: 0.511606 cumulative IPC: 0.65472 (Simulation time: 2 hr 18 min 19 sec) 
Heartbeat CPU 1 instructions: 680000000 cycles: 687467789 heartbeat IPC: 0.75266 cumulative IPC: 0.754236 (Simulation time: 2 hr 18 min 46 sec) 
Heartbeat CPU 1 instructions: 690000001 cycles: 700674065 heartbeat IPC: 0.757216 cumulative IPC: 0.754302 (Simulation time: 2 hr 20 min 45 sec) 
Heartbeat CPU 3 instructions: 480000000 cycles: 702883365 heartbeat IPC: 0.4643 cumulative IPC: 0.442732 (Simulation time: 2 hr 21 min 4 sec) 
Heartbeat CPU 2 instructions: 360000000 cycles: 703388001 heartbeat IPC: 0.219512 cumulative IPC: 0.267913 (Simulation time: 2 hr 21 min 8 sec) 
Heartbeat CPU 0 instructions: 600000000 cycles: 703911958 heartbeat IPC: 0.509499 cumulative IPC: 0.649951 (Simulation time: 2 hr 21 min 12 sec) 
Heartbeat CPU 1 instructions: 700000000 cycles: 714198852 heartbeat IPC: 0.739383 cumulative IPC: 0.75397 (Simulation time: 2 hr 22 min 44 sec) 
Heartbeat CPU 0 instructions: 610000003 cycles: 719442120 heartbeat IPC: 0.643909 cumulative IPC: 0.649798 (Simulation time: 2 hr 23 min 32 sec) 
Heartbeat CPU 3 instructions: 490000000 cycles: 723253794 heartbeat IPC: 0.490908 cumulative IPC: 0.444322 (Simulation time: 2 hr 24 min 11 sec) 
Heartbeat CPU 1 instructions: 710000002 cycles: 727196636 heartbeat IPC: 0.769362 cumulative IPC: 0.754292 (Simulation time: 2 hr 24 min 48 sec) 
Heartbeat CPU 0 instructions: 620000000 cycles: 735314010 heartbeat IPC: 0.630045 cumulative IPC: 0.6493 (Simulation time: 2 hr 25 min 59 sec) 
Heartbeat CPU 1 instructions: 720000000 cycles: 740420739 heartbeat IPC: 0.756195 cumulative IPC: 0.754332 (Simulation time: 2 hr 26 min 51 sec) 
Heartbeat CPU 3 instructions: 500000000 cycles: 742388222 heartbeat IPC: 0.522618 cumulative IPC: 0.446677 (Simulation time: 2 hr 27 min 11 sec) 
Heartbeat CPU 2 instructions: 370000000 cycles: 747543659 heartbeat IPC: 0.226472 cumulative IPC: 0.26506 (Simulation time: 2 hr 27 min 58 sec) 
Heartbeat CPU 0 instructions: 630000001 cycles: 750180117 heartbeat IPC: 0.672671 cumulative IPC: 0.649839 (Simulation time: 2 hr 28 min 21 sec) 
Heartbeat CPU 1 instructions: 730000000 cycles: 753672331 heartbeat IPC: 0.754626 cumulative IPC: 0.754338 (Simulation time: 2 hr 28 min 50 sec) 
Heartbeat CPU 3 instructions: 510000000 cycles: 760984745 heartbeat IPC: 0.537735 cumulative IPC: 0.449263 (Simulation time: 2 hr 30 min 1 sec) 
Heartbeat CPU 0 instructions: 640000000 cycles: 763781691 heartbeat IPC: 0.735209 cumulative IPC: 0.651605 (Simulation time: 2 hr 30 min 31 sec) 
Heartbeat CPU 1 instructions: 740000000 cycles: 766731047 heartbeat IPC: 0.765772 cumulative IPC: 0.754564 (Simulation time: 2 hr 31 min 0 sec) 
Heartbeat CPU 0 instructions: 650000001 cycles: 777101722 heartbeat IPC: 0.750749 cumulative IPC: 0.653573 (Simulation time: 2 hr 32 min 45 sec) 
Heartbeat CPU 3 instructions: 520000000 cycles: 778107334 heartbeat IPC: 0.584024 cumulative IPC: 0.452697 (Simulation time: 2 hr 32 min 57 sec) 
Heartbeat CPU 1 instructions: 750000002 cycles: 779873239 heartbeat IPC: 0.760908 cumulative IPC: 0.754688 (Simulation time: 2 hr 33 min 16 sec) 
Heartbeat CPU 2 instructions: 380000000 cycles: 780001790 heartbeat IPC: 0.308089 cumulative IPC: 0.267133 (Simulation time: 2 hr 33 min 17 sec) 
Heartbeat CPU 0 instructions: 660000000 cycles: 787423732 heartbeat IPC: 0.968803 cumulative IPC: 0.65835 (Simulation time: 2 hr 34 min 36 sec) 
Heartbeat CPU 1 instructions: 760000000 cycles: 792718831 heartbeat IPC: 0.778477 cumulative IPC: 0.755133 (Simulation time: 2 hr 35 min 32 sec) 
Heartbeat CPU 3 instructions: 530000000 cycles: 794007442 heartbeat IPC: 0.628927 cumulative IPC: 0.456771 (Simulation time: 2 hr 35 min 43 sec) 
Heartbeat CPU 1 instructions: 770000000 cycles: 805947691 heartbeat IPC: 0.755923 cumulative IPC: 0.755148 (Simulation time: 2 hr 37 min 46 sec) 
Heartbeat CPU 0 instructions: 670000001 cycles: 805967313 heartbeat IPC: 0.53927 cumulative IPC: 0.655194 (Simulation time: 2 hr 37 min 47 sec) 
Heartbeat CPU 2 instructions: 390000002 cycles: 807753109 heartbeat IPC: 0.360343 cumulative IPC: 0.27082 (Simulation time: 2 hr 38 min 6 sec) 
Heartbeat CPU 3 instructions: 540000000 cycles: 809990411 heartbeat IPC: 0.625666 cumulative IPC: 0.460606 (Simulation time: 2 hr 38 min 30 sec) 
Heartbeat CPU 1 instructions: 780000000 cycles: 819139237 heartbeat IPC: 0.758061 cumulative IPC: 0.755202 (Simulation time: 2 hr 40 min 3 sec) 
Heartbeat CPU 0 instructions: 680000000 cycles: 824092126 heartbeat IPC: 0.55173 cumulative IPC: 0.652582 (Simulation time: 2 hr 40 min 56 sec) 
Heartbeat CPU 3 instructions: 550000000 cycles: 825143908 heartbeat IPC: 0.659914 cumulative IPC: 0.464807 (Simulation time: 2 hr 41 min 6 sec) 
Heartbeat CPU 1 instructions: 790000001 cycles: 832436413 heartbeat IPC: 0.752039 cumulative IPC: 0.755144 (Simulation time: 2 hr 42 min 15 sec) 
Heartbeat CPU 0 instructions: 690000003 cycles: 839154406 heartbeat IPC: 0.66391 cumulative IPC: 0.652815 (Simulation time: 2 hr 43 min 24 sec) 
Heartbeat CPU 3 instructions: 560000000 cycles: 840707036 heartbeat IPC: 0.642544 cumulative IPC: 0.468573 (Simulation time: 2 hr 43 min 40 sec) 
Heartbeat CPU 2 instructions: 400000000 cycles: 841552873 heartbeat IPC: 0.29586 cumulative IPC: 0.271971 (Simulation time: 2 hr 43 min 50 sec) 
Heartbeat CPU 1 instructions: 800000000 cycles: 845218158 heartbeat IPC: 0.782366 cumulative IPC: 0.755615 (Simulation time: 2 hr 44 min 31 sec) 
Heartbeat CPU 0 instructions: 700000000 cycles: 854716460 heartbeat IPC: 0.642588 cumulative IPC: 0.652602 (Simulation time: 2 hr 46 min 11 sec) 
Heartbeat CPU 3 instructions: 570000001 cycles: 855097022 heartbeat IPC: 0.694928 cumulative IPC: 0.472922 (Simulation time: 2 hr 46 min 16 sec) 
Heartbeat CPU 1 instructions: 810000001 cycles: 858367151 heartbeat IPC: 0.760515 cumulative IPC: 0.7557 (Simulation time: 2 hr 46 min 52 sec) 
Heartbeat CPU 2 instructions: 410000003 cycles: 867892775 heartbeat IPC: 0.379652 cumulative IPC: 0.275694 (Simulation time: 2 hr 48 min 37 sec) 
Heartbeat CPU 0 instructions: 710000002 cycles: 868958920 heartbeat IPC: 0.702126 cumulative IPC: 0.653527 (Simulation time: 2 hr 48 min 49 sec) 
Heartbeat CPU 3 instructions: 580000000 cycles: 869244255 heartbeat IPC: 0.706852 cumulative IPC: 0.477259 (Simulation time: 2 hr 48 min 52 sec) 
Heartbeat CPU 1 instructions: 820000000 cycles: 871585956 heartbeat IPC: 0.756498 cumulative IPC: 0.755714 (Simulation time: 2 hr 49 min 18 sec) 
Heartbeat CPU 0 instructions: 720000000 cycles: 882366576 heartbeat IPC: 0.745842 cumulative IPC: 0.655122 (Simulation time: 2 hr 51 min 19 sec) 
Heartbeat CPU 3 instructions: 590000003 cycles: 882798005 heartbeat IPC: 0.737803 cumulative IPC: 0.481806 (Simulation time: 2 hr 51 min 25 sec) 
Heartbeat CPU 1 instructions: 830000003 cycles: 884466305 heartbeat IPC: 0.776377 cumulative IPC: 0.756056 (Simulation time: 2 hr 51 min 43 sec) 
Heartbeat CPU 0 instructions: 730000003 cycles: 895782606 heartbeat IPC: 0.745377 cumulative IPC: 0.656655 (Simulation time: 2 hr 53 min 42 sec) 
Heartbeat CPU 3 instructions: 600000000 cycles: 896317081 heartbeat IPC: 0.739695 cumulative IPC: 0.486219 (Simulation time: 2 hr 53 min 49 sec) 
Heartbeat CPU 2 instructions: 420000000 cycles: 897160336 heartbeat IPC: 0.341675 cumulative IPC: 0.278136 (Simulation time: 2 hr 53 min 59 sec) 
Heartbeat CPU 1 instructions: 840000000 cycles: 897354110 heartbeat IPC: 0.775927 cumulative IPC: 0.75638 (Simulation time: 2 hr 54 min 2 sec) 
Heartbeat CPU 0 instructions: 740000000 cycles: 906027243 heartbeat IPC: 0.97612 cumulative IPC: 0.660747 (Simulation time: 2 hr 55 min 40 sec) 
Heartbeat CPU 3 instructions: 610000002 cycles: 908832235 heartbeat IPC: 0.799031 cumulative IPC: 0.491096 (Simulation time: 2 hr 56 min 10 sec) 
Heartbeat CPU 1 instructions: 850000001 cycles: 910021898 heartbeat IPC: 0.789404 cumulative IPC: 0.7569 (Simulation time: 2 hr 56 min 22 sec) 
Heartbeat CPU 3 instructions: 620000000 cycles: 922239106 heartbeat IPC: 0.745886 cumulative IPC: 0.495282 (Simulation time: 2 hr 58 min 26 sec) 
Heartbeat CPU 1 instructions: 860000000 cycles: 923022148 heartbeat IPC: 0.769216 cumulative IPC: 0.757096 (Simulation time: 2 hr 58 min 35 sec) 
Heartbeat CPU 0 instructions: 750000000 cycles: 924058314 heartbeat IPC: 0.554598 cumulative IPC: 0.658407 (Simulation time: 2 hr 58 min 45 sec) 
Heartbeat CPU 3 instructions: 630000002 cycles: 935553052 heartbeat IPC: 0.751092 cumulative IPC: 0.499388 (Simulation time: 3 hr 0 min 39 sec) 
Heartbeat CPU 1 instructions: 870000000 cycles: 936170014 heartbeat IPC: 0.76058 cumulative IPC: 0.757151 (Simulation time: 3 hr 0 min 45 sec) 
Heartbeat CPU 2 instructions: 430000001 cycles: 936542254 heartbeat IPC: 0.253924 cumulative IPC: 0.276987 (Simulation time: 3 hr 0 min 49 sec) 
Heartbeat CPU 0 instructions: 760000000 cycles: 942297107 heartbeat IPC: 0.548282 cumulative IPC: 0.656004 (Simulation time: 3 hr 1 min 53 sec) 
Heartbeat CPU 3 instructions: 640000000 cycles: 948456037 heartbeat IPC: 0.775014 cumulative IPC: 0.503611 (Simulation time: 3 hr 2 min 54 sec) 
Heartbeat CPU 1 instructions: 880000000 cycles: 949264575 heartbeat IPC: 0.763676 cumulative IPC: 0.757253 (Simulation time: 3 hr 3 min 2 sec) 
Heartbeat CPU 0 instructions: 770000002 cycles: 957311675 heartbeat IPC: 0.66602 cumulative IPC: 0.656181 (Simulation time: 3 hr 4 min 31 sec) 
Heartbeat CPU 3 instructions: 650000001 cycles: 960957340 heartbeat IPC: 0.799917 cumulative IPC: 0.507944 (Simulation time: 3 hr 5 min 12 sec) 
Heartbeat CPU 1 instructions: 890000003 cycles: 961958668 heartbeat IPC: 0.787768 cumulative IPC: 0.757705 (Simulation time: 3 hr 5 min 24 sec) 
Heartbeat CPU 2 instructions: 440000000 cycles: 965409710 heartbeat IPC: 0.346411 cumulative IPC: 0.27932 (Simulation time: 3 hr 6 min 0 sec) 
Heartbeat CPU 0 instructions: 780000000 cycles: 972823832 heartbeat IPC: 0.644656 cumulative IPC: 0.655975 (Simulation time: 3 hr 7 min 14 sec) 
Heartbeat CPU 3 instructions: 660000000 cycles: 973389755 heartbeat IPC: 0.804349 cumulative IPC: 0.512194 (Simulation time: 3 hr 7 min 19 sec) 
Heartbeat CPU 1 instructions: 900000000 cycles: 974943230 heartbeat IPC: 0.770145 cumulative IPC: 0.757891 (Simulation time: 3 hr 7 min 35 sec) 
Heartbeat CPU 3 instructions: 670000001 cycles: 985432435 heartbeat IPC: 0.83038 cumulative IPC: 0.516552 (Simulation time: 3 hr 9 min 33 sec) 
Heartbeat CPU 0 instructions: 790000002 cycles: 987019326 heartbeat IPC: 0.704449 cumulative IPC: 0.656756 (Simulation time: 3 hr 9 min 50 sec) 
Heartbeat CPU 1 instructions: 910000001 cycles: 987582963 heartbeat IPC: 0.791156 cumulative IPC: 0.758368 (Simulation time: 3 hr 9 min 56 sec) 
Heartbeat CPU 2 instructions: 450000000 cycles: 992067742 heartbeat IPC: 0.375121 cumulative IPC: 0.282203 (Simulation time: 3 hr 10 min 45 sec) 
Heartbeat CPU 3 instructions: 680000000 cycles: 997381908 heartbeat IPC: 0.836857 cumulative IPC: 0.520846 (Simulation time: 3 hr 11 min 47 sec) 
Heartbeat CPU 0 instructions: 800000000 cycles: 1000246920 heartbeat IPC: 0.755995 cumulative IPC: 0.658224 (Simulation time: 3 hr 12 min 21 sec) 
Heartbeat CPU 1 instructions: 920000000 cycles: 1000370556 heartbeat IPC: 0.782008 cumulative IPC: 0.758706 (Simulation time: 3 hr 12 min 22 sec) 
Heartbeat CPU 3 instructions: 690000000 cycles: 1009377585 heartbeat IPC: 0.833634 cumulative IPC: 0.525001 (Simulation time: 3 hr 14 min 4 sec) 
Heartbeat CPU 0 instructions: 810000000 cycles: 1013253499 heartbeat IPC: 0.768842 cumulative IPC: 0.65981 (Simulation time: 3 hr 14 min 48 sec) 
Heartbeat CPU 1 instructions: 930000000 cycles: 1013287893 heartbeat IPC: 0.774153 cumulative IPC: 0.758926 (Simulation time: 3 hr 14 min 48 sec) 
Heartbeat CPU 2 instructions: 460000000 cycles: 1013849249 heartbeat IPC: 0.459105 cumulative IPC: 0.286448 (Simulation time: 3 hr 14 min 55 sec) 
Heartbeat CPU 3 instructions: 700000000 cycles: 1021041612 heartbeat IPC: 0.857337 cumulative IPC: 0.529238 (Simulation time: 3 hr 16 min 18 sec) 
Heartbeat CPU 0 instructions: 820000000 cycles: 1023383145 heartbeat IPC: 0.987201 cumulative IPC: 0.663426 (Simulation time: 3 hr 16 min 43 sec) 
Heartbeat CPU 1 instructions: 940000000 cycles: 1025751617 heartbeat IPC: 0.802328 cumulative IPC: 0.759515 (Simulation time: 3 hr 17 min 9 sec) 
Heartbeat CPU 3 instructions: 710000001 cycles: 1032873111 heartbeat IPC: 0.845202 cumulative IPC: 0.533272 (Simulation time: 3 hr 18 min 25 sec) 
Heartbeat CPU 1 instructions: 950000002 cycles: 1038729234 heartbeat IPC: 0.770558 cumulative IPC: 0.759668 (Simulation time: 3 hr 19 min 24 sec) 
Heartbeat CPU 2 instructions: 470000001 cycles: 1039007561 heartbeat IPC: 0.397483 cumulative IPC: 0.289442 (Simulation time: 3 hr 19 min 27 sec) 
Heartbeat CPU 0 instructions: 830000000 cycles: 1040867715 heartbeat IPC: 0.571933 cumulative IPC: 0.661715 (Simulation time: 3 hr 19 min 47 sec) 
Heartbeat CPU 3 instructions: 720000000 cycles: 1044969180 heartbeat IPC: 0.826715 cumulative IPC: 0.537053 (Simulation time: 3 hr 20 min 31 sec) 
Heartbeat CPU 1 instructions: 960000000 cycles: 1051661342 heartbeat IPC: 0.773269 cumulative IPC: 0.759854 (Simulation time: 3 hr 21 min 42 sec) 
Heartbeat CPU 3 instructions: 730000000 cycles: 1056976860 heartbeat IPC: 0.8328 cumulative IPC: 0.540788 (Simulation time: 3 hr 22 min 35 sec) 
Heartbeat CPU 0 instructions: 840000000 cycles: 1058569634 heartbeat IPC: 0.564911 cumulative IPC: 0.659915 (Simulation time: 3 hr 22 min 52 sec) 
Heartbeat CPU 1 instructions: 970000000 cycles: 1064634082 heartbeat IPC: 0.770847 cumulative IPC: 0.760003 (Simulation time: 3 hr 23 min 56 sec) 
Heartbeat CPU 2 instructions: 480000000 cycles: 1066051157 heartbeat IPC: 0.369773 cumulative IPC: 0.291706 (Simulation time: 3 hr 24 min 11 sec) 
Heartbeat CPU 3 instructions: 740000000 cycles: 1069054993 heartbeat IPC: 0.827943 cumulative IPC: 0.54439 (Simulation time: 3 hr 24 min 45 sec) 
Heartbeat CPU 0 instructions: 850000001 cycles: 1073327387 heartbeat IPC: 0.67761 cumulative IPC: 0.660185 (Simulation time: 3 hr 25 min 30 sec) 
Heartbeat CPU 1 instructions: 980000000 cycles: 1077422493 heartbeat IPC: 0.781958 cumulative IPC: 0.760292 (Simulation time: 3 hr 26 min 14 sec) 
Heartbeat CPU 3 instructions: 750000001 cycles: 1081044562 heartbeat IPC: 0.834058 cumulative IPC: 0.547952 (Simulation time: 3 hr 26 min 51 sec) 
Heartbeat CPU 0 instructions: 860000000 cycles: 1088732228 heartbeat IPC: 0.649146 cumulative IPC: 0.660012 (Simulation time: 3 hr 28 min 9 sec) 
Heartbeat CPU 1 instructions: 990000000 cycles: 1090292202 heartbeat IPC: 0.777018 cumulative IPC: 0.760511 (Simulation time: 3 hr 28 min 27 sec) 
Heartbeat CPU 3 instructions: 760000000 cycles: 1092975690 heartbeat IPC: 0.838144 cumulative IPC: 0.551461 (Simulation time: 3 hr 28 min 59 sec) 
Heartbeat CPU 2 instructions: 490000002 cycles: 1095081674 heartbeat IPC: 0.344465 cumulative IPC: 0.293254 (Simulation time: 3 hr 29 min 24 sec) 
Heartbeat CPU 0 instructions: 870000003 cycles: 1102786215 heartbeat IPC: 0.711542 cumulative IPC: 0.660739 (Simulation time: 3 hr 30 min 44 sec) 
Heartbeat CPU 1 instructions: 1000000000 cycles: 1103066411 heartbeat IPC: 0.782827 cumulative IPC: 0.760797 (Simulation time: 3 hr 30 min 46 sec) 
Heartbeat CPU 3 instructions: 770000001 cycles: 1104897861 heartbeat IPC: 0.838773 cumulative IPC: 0.554891 (Simulation time: 3 hr 31 min 6 sec) 
Heartbeat CPU 1 instructions: 1010000001 cycles: 1115808698 heartbeat IPC: 0.784789 cumulative IPC: 0.7611 (Simulation time: 3 hr 33 min 9 sec) 
Heartbeat CPU 0 instructions: 880000000 cycles: 1116518565 heartbeat IPC: 0.728207 cumulative IPC: 0.661656 (Simulation time: 3 hr 33 min 17 sec) 
Heartbeat CPU 3 instructions: 780000000 cycles: 1116610574 heartbeat IPC: 0.853773 cumulative IPC: 0.558355 (Simulation time: 3 hr 33 min 18 sec) 
Heartbeat CPU 2 instructions: 500000000 cycles: 1124612118 heartbeat IPC: 0.338634 cumulative IPC: 0.29457 (Simulation time: 3 hr 34 min 47 sec) 
Heartbeat CPU 3 instructions: 790000002 cycles: 1128472851 heartbeat IPC: 0.843009 cumulative IPC: 0.561658 (Simulation time: 3 hr 35 min 30 sec) 
Heartbeat CPU 1 instructions: 1020000000 cycles: 1128781290 heartbeat IPC: 0.770856 cumulative IPC: 0.761223 (Simulation time: 3 hr 35 min 34 sec) 
Heartbeat CPU 0 instructions: 890000002 cycles: 1129812526 heartbeat IPC: 0.752221 cumulative IPC: 0.662832 (Simulation time: 3 hr 35 min 46 sec) 
Heartbeat CPU 3 instructions: 800000000 cycles: 1139726401 heartbeat IPC: 0.888608 cumulative IPC: 0.565218 (Simulation time: 3 hr 37 min 37 sec) 
Heartbeat CPU 0 instructions: 900000000 cycles: 1139982109 heartbeat IPC: 0.983324 cumulative IPC: 0.665985 (Simulation time: 3 hr 37 min 40 sec) 
Heartbeat CPU 1 instructions: 1030000003 cycles: 1141372481 heartbeat IPC: 0.794206 cumulative IPC: 0.761625 (Simulation time: 3 hr 37 min 56 sec) 
Heartbeat CPU 2 instructions: 510000002 cycles: 1148353354 heartbeat IPC: 0.421208 cumulative IPC: 0.297455 (Simulation time: 3 hr 39 min 11 sec) 
Heartbeat CPU 3 instructions: 810000001 cycles: 1151482404 heartbeat IPC: 0.850629 cumulative IPC: 0.568428 (Simulation time: 3 hr 39 min 44 sec) 
Heartbeat CPU 1 instructions: 1040000000 cycles: 1154209160 heartbeat IPC: 0.779017 cumulative IPC: 0.761838 (Simulation time: 3 hr 40 min 14 sec) 
Heartbeat CPU 0 instructions: 910000001 cycles: 1157030523 heartbeat IPC: 0.586565 cumulative IPC: 0.664696 (Simulation time: 3 hr 40 min 44 sec) 
Heartbeat CPU 3 instructions: 820000000 cycles: 1163397062 heartbeat IPC: 0.839302 cumulative IPC: 0.571481 (Simulation time: 3 hr 41 min 52 sec) 
Heartbeat CPU 1 instructions: 1050000000 cycles: 1167013532 heartbeat IPC: 0.780983 cumulative IPC: 0.762069 (Simulation time: 3 hr 42 min 31 sec) 
Heartbeat CPU 2 instructions: 520000000 cycles: 1174510554 heartbeat IPC: 0.382304 cumulative IPC: 0.299533 (Simulation time: 3 hr 43 min 50 sec) 
Heartbeat CPU 0 instructions: 920000000 cycles: 1174587502 heartbeat IPC: 0.569574 cumulative IPC: 0.663133 (Simulation time: 3 hr 43 min 51 sec) 
Heartbeat CPU 3 instructions: 830000002 cycles: 1175042278 heartbeat IPC: 0.858722 cumulative IPC: 0.57461 (Simulation time: 3 hr 43 min 55 sec) 
Heartbeat CPU 1 instructions: 1060000000 cycles: 1180087492 heartbeat IPC: 0.764879 cumulative IPC: 0.762103 (Simulation time: 3 hr 44 min 46 sec) 
Heartbeat CPU 3 instructions: 840000000 cycles: 1187424935 heartbeat IPC: 0.807581 cumulative IPC: 0.577278 (Simulation time: 3 hr 46 min 4 sec) 
Heartbeat CPU 0 instructions: 930000000 cycles: 1189725847 heartbeat IPC: 0.660574 cumulative IPC: 0.663098 (Simulation time: 3 hr 46 min 32 sec) 
Heartbeat CPU 1 instructions: 1070000002 cycles: 1192928802 heartbeat IPC: 0.778737 cumulative IPC: 0.762299 (Simulation time: 3 hr 47 min 11 sec) 
Heartbeat CPU 3 instructions: 850000000 cycles: 1198843582 heartbeat IPC: 0.87576 cumulative IPC: 0.580398 (Simulation time: 3 hr 48 min 20 sec) 
Heartbeat CPU 2 instructions: 530000000 cycles: 1202394657 heartbeat IPC: 0.358627 cumulative IPC: 0.301036 (Simulation time: 3 hr 49 min 2 sec) 
Heartbeat CPU 0 instructions: 940000000 cycles: 1204780327 heartbeat IPC: 0.664254 cumulative IPC: 0.663113 (Simulation time: 3 hr 49 min 35 sec) 
Heartbeat CPU 1 instructions: 1080000000 cycles: 1205963593 heartbeat IPC: 0.767177 cumulative IPC: 0.762357 (Simulation time: 3 hr 49 min 53 sec) 
Heartbeat CPU 3 instructions: 860000000 cycles: 1210587516 heartbeat IPC: 0.851503 cumulative IPC: 0.58328 (Simulation time: 3 hr 50 min 51 sec) 
Heartbeat CPU 1 instructions: 1090000000 cycles: 1218545178 heartbeat IPC: 0.794812 cumulative IPC: 0.762724 (Simulation time: 3 hr 52 min 23 sec) 
Heartbeat CPU 0 instructions: 950000000 cycles: 1218588727 heartbeat IPC: 0.724197 cumulative IPC: 0.663872 (Simulation time: 3 hr 52 min 23 sec) 
Heartbeat CPU 3 instructions: 870000003 cycles: 1222239715 heartbeat IPC: 0.858207 cumulative IPC: 0.586151 (Simulation time: 3 hr 53 min 3 sec) 
Heartbeat CPU 2 instructions: 540000000 cycles: 1225856720 heartbeat IPC: 0.42622 cumulative IPC: 0.303659 (Simulation time: 3 hr 53 min 45 sec) 
Heartbeat CPU 1 instructions: 1100000000 cycles: 1231302644 heartbeat IPC: 0.783855 cumulative IPC: 0.762964 (Simulation time: 3 hr 54 min 50 sec) 
Heartbeat CPU 0 instructions: 960000000 cycles: 1232286460 heartbeat IPC: 0.730048 cumulative IPC: 0.664676 (Simulation time: 3 hr 55 min 2 sec) 
Heartbeat CPU 3 instructions: 880000000 cycles: 1233770988 heartbeat IPC: 0.867207 cumulative IPC: 0.589025 (Simulation time: 3 hr 55 min 20 sec) 
Heartbeat CPU 1 instructions: 1110000003 cycles: 1244025760 heartbeat IPC: 0.785971 cumulative IPC: 0.763221 (Simulation time: 3 hr 57 min 23 sec) 
Heartbeat CPU 0 instructions: 970000002 cycles: 1245556477 heartbeat IPC: 0.753579 cumulative IPC: 0.665712 (Simulation time: 3 hr 57 min 44 sec) 
Heartbeat CPU 3 instructions: 890000003 cycles: 1245575707 heartbeat IPC: 0.847119 cumulative IPC: 0.591699 (Simulation time: 3 hr 57 min 44 sec) 
Heartbeat CPU 2 instructions: 550000001 cycles: 1250019548 heartbeat IPC: 0.413859 cumulative IPC: 0.305987 (Simulation time: 3 hr 58 min 37 sec) 
Heartbeat CPU 0 instructions: 980000000 cycles: 1255659442 heartbeat IPC: 0.989808 cumulative IPC: 0.66856 (Simulation time: 3 hr 59 min 45 sec) 
Heartbeat CPU 1 instructions: 1120000000 cycles: 1256352767 heartbeat IPC: 0.811227 cumulative IPC: 0.763736 (Simulation time: 3 hr 59 min 53 sec) 
Heartbeat CPU 3 instructions: 900000000 cycles: 1256837068 heartbeat IPC: 0.887992 cumulative IPC: 0.594599 (Simulation time: 3 hr 59 min 59 sec) 
Heartbeat CPU 3 instructions: 910000002 cycles: 1268553774 heartbeat IPC: 0.853482 cumulative IPC: 0.597208 (Simulation time: 4 hr 2 min 5 sec) 
Heartbeat CPU 1 instructions: 1130000001 cycles: 1269120654 heartbeat IPC: 0.783215 cumulative IPC: 0.76395 (Simulation time: 4 hr 2 min 11 sec) 
Heartbeat CPU 0 instructions: 990000000 cycles: 1272918770 heartbeat IPC: 0.579397 cumulative IPC: 0.667242 (Simulation time: 4 hr 2 min 50 sec) 
Heartbeat CPU 3 instructions: 920000000 cycles: 1280820982 heartbeat IPC: 0.815181 cumulative IPC: 0.599485 (Simulation time: 4 hr 4 min 8 sec) 
Heartbeat CPU 1 instructions: 1140000000 cycles: 1282400419 heartbeat IPC: 0.753025 cumulative IPC: 0.763826 (Simulation time: 4 hr 4 min 23 sec) 
Heartbeat CPU 2 instructions: 560000000 cycles: 1284262394 heartbeat IPC: 0.292032 cumulative IPC: 0.305581 (Simulation time: 4 hr 4 min 41 sec) 
Heartbeat CPU 0 instructions: 1000000000 cycles: 1291379175 heartbeat IPC: 0.5417 cumulative IPC: 0.665286 (Simulation time: 4 hr 5 min 53 sec) 
Heartbeat CPU 3 instructions: 930000001 cycles: 1292851282 heartbeat IPC: 0.831235 cumulative IPC: 0.601834 (Simulation time: 4 hr 6 min 8 sec) 
Heartbeat CPU 1 instructions: 1150000000 cycles: 1295341237 heartbeat IPC: 0.772749 cumulative IPC: 0.763923 (Simulation time: 4 hr 6 min 34 sec) 
Heartbeat CPU 3 instructions: 940000000 cycles: 1304999706 heartbeat IPC: 0.823152 cumulative IPC: 0.604077 (Simulation time: 4 hr 8 min 25 sec) 
Heartbeat CPU 0 instructions: 1010000003 cycles: 1306445530 heartbeat IPC: 0.663731 cumulative IPC: 0.665267 (Simulation time: 4 hr 8 min 42 sec) 
Heartbeat CPU 1 instructions: 1160000000 cycles: 1308290004 heartbeat IPC: 0.772274 cumulative IPC: 0.764013 (Simulation time: 4 hr 9 min 4 sec) 
Heartbeat CPU 2 instructions: 570000003 cycles: 1313401334 heartbeat IPC: 0.343183 cumulative IPC: 0.306489 (Simulation time: 4 hr 10 min 4 sec) 
Heartbeat CPU 1 instructions: 1170000002 cycles: 1321473689 heartbeat IPC: 0.758513 cumulative IPC: 0.763954 (Simulation time: 4 hr 11 min 11 sec) 
Heartbeat CPU 0 instructions: 1020000000 cycles: 1322113468 heartbeat IPC: 0.638246 cumulative IPC: 0.664918 (Simulation time: 4 hr 11 min 19 sec) 
Heartbeat CPU 1 instructions: 1180000000 cycles: 1334973453 heartbeat IPC: 0.740754 cumulative IPC: 0.763699 (Simulation time: 4 hr 13 min 11 sec) 
Heartbeat CPU 3 instructions: 950000002 cycles: 1335051943 heartbeat IPC: 0.332754 cumulative IPC: 0.597442 (Simulation time: 4 hr 13 min 12 sec) 
Heartbeat CPU 0 instructions: 1030000003 cycles: 1337314454 heartbeat IPC: 0.657852 cumulative IPC: 0.664831 (Simulation time: 4 hr 13 min 29 sec) 
Heartbeat CPU 1 instructions: 1190000000 cycles: 1348607294 heartbeat IPC: 0.733469 cumulative IPC: 0.763367 (Simulation time: 4 hr 14 min 59 sec) 
Heartbeat CPU 0 instructions: 1040000000 cycles: 1352617390 heartbeat IPC: 0.653469 cumulative IPC: 0.664692 (Simulation time: 4 hr 15 min 39 sec) 
Heartbeat CPU 3 instructions: 960000000 cycles: 1360023279 heartbeat IPC: 0.400459 cumulative IPC: 0.593519 (Simulation time: 4 hr 16 min 53 sec) 
Heartbeat CPU 1 instructions: 1200000000 cycles: 1361797086 heartbeat IPC: 0.758162 cumulative IPC: 0.763312 (Simulation time: 4 hr 17 min 11 sec) 
Heartbeat CPU 0 instructions: 1050000000 cycles: 1366625290 heartbeat IPC: 0.713883 cumulative IPC: 0.665238 (Simulation time: 4 hr 18 min 0 sec) 
Heartbeat CPU 3 instructions: 970000000 cycles: 1372071986 heartbeat IPC: 0.829965 cumulative IPC: 0.595769 (Simulation time: 4 hr 19 min 2 sec) 
Heartbeat CPU 2 instructions: 580000000 cycles: 1373385309 heartbeat IPC: 0.166711 cumulative IPC: 0.299872 (Simulation time: 4 hr 19 min 18 sec) 
Heartbeat CPU 1 instructions: 1210000002 cycles: 1374474201 heartbeat IPC: 0.788823 cumulative IPC: 0.763567 (Simulation time: 4 hr 19 min 31 sec) 
Heartbeat CPU 0 instructions: 1060000000 cycles: 1376719130 heartbeat IPC: 0.990703 cumulative IPC: 0.667824 (Simulation time: 4 hr 19 min 58 sec) 
Heartbeat CPU 3 instructions: 980000000 cycles: 1383560915 heartbeat IPC: 0.870403 cumulative IPC: 0.598239 (Simulation time: 4 hr 21 min 21 sec) 
Heartbeat CPU 1 instructions: 1220000000 cycles: 1387163133 heartbeat IPC: 0.788088 cumulative IPC: 0.76381 (Simulation time: 4 hr 22 min 10 sec) 
Heartbeat CPU 0 instructions: 1070000002 cycles: 1394129464 heartbeat IPC: 0.574372 cumulative IPC: 0.666561 (Simulation time: 4 hr 23 min 34 sec) 
Heartbeat CPU 3 instructions: 990000001 cycles: 1395755896 heartbeat IPC: 0.82001 cumulative IPC: 0.600336 (Simulation time: 4 hr 23 min 53 sec) 
Heartbeat CPU 1 instructions: 1230000001 cycles: 1400221069 heartbeat IPC: 0.765818 cumulative IPC: 0.76383 (Simulation time: 4 hr 24 min 40 sec) 
Heartbeat CPU 3 instructions: 1000000000 cycles: 1407958877 heartbeat IPC: 0.819472 cumulative IPC: 0.602391 (Simulation time: 4 hr 26 min 2 sec) 
Heartbeat CPU 0 instructions: 1080000000 cycles: 1412506551 heartbeat IPC: 0.544156 cumulative IPC: 0.664839 (Simulation time: 4 hr 26 min 49 sec) 
Heartbeat CPU 1 instructions: 1240000000 cycles: 1413317643 heartbeat IPC: 0.763558 cumulative IPC: 0.763828 (Simulation time: 4 hr 26 min 58 sec) 
Heartbeat CPU 2 instructions: 590000002 cycles: 1413587108 heartbeat IPC: 0.248745 cumulative IPC: 0.2983 (Simulation time: 4 hr 27 min 0 sec) 
Finished CPU 1 instructions: 1000000000 cycles: 1309394162 cumulative IPC: 0.763712 (Simulation time: 4 hr 27 min 24 sec) 
Heartbeat CPU 3 instructions: 1010000000 cycles: 1420340636 heartbeat IPC: 0.80764 cumulative IPC: 0.604324 (Simulation time: 4 hr 28 min 15 sec) 
Heartbeat CPU 1 instructions: 1250000003 cycles: 1426638717 heartbeat IPC: 0.75069 cumulative IPC: 0.763695 (Simulation time: 4 hr 29 min 27 sec) 
Heartbeat CPU 0 instructions: 1090000000 cycles: 1427376750 heartbeat IPC: 0.672486 cumulative IPC: 0.664925 (Simulation time: 4 hr 29 min 36 sec) 
Heartbeat CPU 3 instructions: 1020000000 cycles: 1432087599 heartbeat IPC: 0.851284 cumulative IPC: 0.606512 (Simulation time: 4 hr 30 min 33 sec) 
Heartbeat CPU 1 instructions: 1260000000 cycles: 1439290419 heartbeat IPC: 0.790407 cumulative IPC: 0.763949 (Simulation time: 4 hr 31 min 50 sec) 
Heartbeat CPU 2 instructions: 600000000 cycles: 1441965001 heartbeat IPC: 0.352387 cumulative IPC: 0.299449 (Simulation time: 4 hr 32 min 19 sec) 
Heartbeat CPU 0 instructions: 1100000000 cycles: 1442118196 heartbeat IPC: 0.67836 cumulative IPC: 0.665073 (Simulation time: 4 hr 32 min 21 sec) 
Heartbeat CPU 3 instructions: 1030000000 cycles: 1444109971 heartbeat IPC: 0.831783 cumulative IPC: 0.608537 (Simulation time: 4 hr 32 min 44 sec) 
Heartbeat CPU 1 instructions: 1270000001 cycles: 1451951226 heartbeat IPC: 0.789839 cumulative IPC: 0.764192 (Simulation time: 4 hr 34 min 18 sec) 
Heartbeat CPU 3 instructions: 1040000000 cycles: 1455593616 heartbeat IPC: 0.870804 cumulative IPC: 0.610768 (Simulation time: 4 hr 34 min 57 sec) 
Heartbeat CPU 0 instructions: 1110000000 cycles: 1455863192 heartbeat IPC: 0.727538 cumulative IPC: 0.665709 (Simulation time: 4 hr 35 min 0 sec) 
Heartbeat CPU 1 instructions: 1280000000 cycles: 1464818700 heartbeat IPC: 0.777153 cumulative IPC: 0.764315 (Simulation time: 4 hr 36 min 38 sec) 
Heartbeat CPU 3 instructions: 1050000000 cycles: 1467503296 heartbeat IPC: 0.839653 cumulative IPC: 0.612771 (Simulation time: 4 hr 37 min 10 sec) 
Heartbeat CPU 2 instructions: 610000000 cycles: 1468386749 heartbeat IPC: 0.378476 cumulative IPC: 0.300982 (Simulation time: 4 hr 37 min 21 sec) 
Heartbeat CPU 0 instructions: 1120000000 cycles: 1469608009 heartbeat IPC: 0.727547 cumulative IPC: 0.666333 (Simulation time: 4 hr 37 min 35 sec) 
Heartbeat CPU 1 instructions: 1290000003 cycles: 1477448141 heartbeat IPC: 0.791801 cumulative IPC: 0.764568 (Simulation time: 4 hr 39 min 4 sec) 
Heartbeat CPU 3 instructions: 1060000000 cycles: 1479149555 heartbeat IPC: 0.858645 cumulative IPC: 0.614856 (Simulation time: 4 hr 39 min 23 sec) 
Heartbeat CPU 0 instructions: 1130000003 cycles: 1483073445 heartbeat IPC: 0.742642 cumulative IPC: 0.667079 (Simulation time: 4 hr 40 min 4 sec) 
Heartbeat CPU 1 instructions: 1300000000 cycles: 1490198736 heartbeat IPC: 0.784277 cumulative IPC: 0.76475 (Simulation time: 4 hr 41 min 24 sec) 
Heartbeat CPU 3 instructions: 1070000002 cycles: 1490951633 heartbeat IPC: 0.847309 cumulative IPC: 0.616838 (Simulation time: 4 hr 41 min 32 sec) 
Heartbeat CPU 0 instructions: 1140000000 cycles: 1493296459 heartbeat IPC: 0.978185 cumulative IPC: 0.669372 (Simulation time: 4 hr 41 min 59 sec) 
Heartbeat CPU 2 instructions: 620000000 cycles: 1499015082 heartbeat IPC: 0.326495 cumulative IPC: 0.301543 (Simulation time: 4 hr 43 min 2 sec) 
Heartbeat CPU 3 instructions: 1080000000 cycles: 1502551516 heartbeat IPC: 0.862077 cumulative IPC: 0.618875 (Simulation time: 4 hr 43 min 40 sec) 
Heartbeat CPU 1 instructions: 1310000000 cycles: 1502942560 heartbeat IPC: 0.784694 cumulative IPC: 0.764932 (Simulation time: 4 hr 43 min 44 sec) 
Heartbeat CPU 0 instructions: 1150000000 cycles: 1510591306 heartbeat IPC: 0.578207 cumulative IPC: 0.668249 (Simulation time: 4 hr 45 min 1 sec) 
Heartbeat CPU 3 instructions: 1090000001 cycles: 1514775283 heartbeat IPC: 0.818079 cumulative IPC: 0.620604 (Simulation time: 4 hr 45 min 43 sec) 
Heartbeat CPU 1 instructions: 1320000000 cycles: 1516047179 heartbeat IPC: 0.76309 cumulative IPC: 0.764915 (Simulation time: 4 hr 45 min 55 sec) 
Heartbeat CPU 3 instructions: 1100000000 cycles: 1527191597 heartbeat IPC: 0.805392 cumulative IPC: 0.622218 (Simulation time: 4 hr 47 min 42 sec) 
Heartbeat CPU 0 instructions: 1160000000 cycles: 1529156750 heartbeat IPC: 0.538635 cumulative IPC: 0.666558 (Simulation time: 4 hr 48 min 1 sec) 
Heartbeat CPU 1 instructions: 1330000001 cycles: 1529185762 heartbeat IPC: 0.761117 cumulative IPC: 0.76488 (Simulation time: 4 hr 48 min 1 sec) 
Heartbeat CPU 3 instructions: 1110000001 cycles: 1539464798 heartbeat IPC: 0.814783 cumulative IPC: 0.623867 (Simulation time: 4 hr 49 min 47 sec) 
Heartbeat CPU 1 instructions: 1340000000 cycles: 1542337756 heartbeat IPC: 0.760341 cumulative IPC: 0.764838 (Simulation time: 4 hr 50 min 17 sec) 
Heartbeat CPU 0 instructions: 1170000001 cycles: 1544581733 heartbeat IPC: 0.648299 cumulative IPC: 0.666362 (Simulation time: 4 hr 50 min 42 sec) 
Heartbeat CPU 2 instructions: 630000000 cycles: 1547469658 heartbeat IPC: 0.206379 cumulative IPC: 0.298344 (Simulation time: 4 hr 51 min 14 sec) 
Heartbeat CPU 3 instructions: 1120000000 cycles: 1551768915 heartbeat IPC: 0.812736 cumulative IPC: 0.625475 (Simulation time: 4 hr 51 min 57 sec) 
Heartbeat CPU 1 instructions: 1350000001 cycles: 1555302731 heartbeat IPC: 0.771309 cumulative IPC: 0.764896 (Simulation time: 4 hr 52 min 29 sec) 
Heartbeat CPU 0 instructions: 1180000000 cycles: 1560063723 heartbeat IPC: 0.645912 cumulative IPC: 0.666144 (Simulation time: 4 hr 53 min 13 sec) 
Heartbeat CPU 3 instructions: 1130000001 cycles: 1565036566 heartbeat IPC: 0.753713 cumulative IPC: 0.626641 (Simulation time: 4 hr 54 min 6 sec) 
Heartbeat CPU 1 instructions: 1360000000 cycles: 1568340391 heartbeat IPC: 0.767009 cumulative IPC: 0.764915 (Simulation time: 4 hr 54 min 43 sec) 
Heartbeat CPU 0 instructions: 1190000001 cycles: 1573799851 heartbeat IPC: 0.728007 cumulative IPC: 0.666723 (Simulation time: 4 hr 55 min 42 sec) 
Heartbeat CPU 3 instructions: 1140000000 cycles: 1579245548 heartbeat IPC: 0.70378 cumulative IPC: 0.627385 (Simulation time: 4 hr 56 min 34 sec) 
Heartbeat CPU 1 instructions: 1370000001 cycles: 1581235881 heartbeat IPC: 0.775465 cumulative IPC: 0.765007 (Simulation time: 4 hr 56 min 54 sec) 
Heartbeat CPU 0 instructions: 1200000000 cycles: 1588231476 heartbeat IPC: 0.692923 cumulative IPC: 0.666979 (Simulation time: 4 hr 58 min 8 sec) 
Heartbeat CPU 2 instructions: 640000000 cycles: 1593175761 heartbeat IPC: 0.218789 cumulative IPC: 0.295898 (Simulation time: 4 hr 58 min 59 sec) 
Heartbeat CPU 1 instructions: 1380000000 cycles: 1594162410 heartbeat IPC: 0.773603 cumulative IPC: 0.765082 (Simulation time: 4 hr 59 min 8 sec) 
Heartbeat CPU 3 instructions: 1150000000 cycles: 1594698462 heartbeat IPC: 0.647127 cumulative IPC: 0.62759 (Simulation time: 4 hr 59 min 13 sec) 
Heartbeat CPU 0 instructions: 1210000002 cycles: 1602092878 heartbeat IPC: 0.721428 cumulative IPC: 0.667483 (Simulation time: 5 hr 0 min 22 sec) 
Finished CPU 0 instructions: 1000000000 cycles: 1497476296 cumulative IPC: 0.66779 (Simulation time: 5 hr 0 min 37 sec) 
Heartbeat CPU 1 instructions: 1390000002 cycles: 1607358820 heartbeat IPC: 0.757782 cumulative IPC: 0.765017 (Simulation time: 5 hr 1 min 14 sec) 
Heartbeat CPU 0 instructions: 1220000000 cycles: 1612392547 heartbeat IPC: 0.970905 cumulative IPC: 0.669558 (Simulation time: 5 hr 2 min 4 sec) 
Heartbeat CPU 3 instructions: 1160000000 cycles: 1612444898 heartbeat IPC: 0.563493 cumulative IPC: 0.626835 (Simulation time: 5 hr 2 min 4 sec) 
Heartbeat CPU 1 instructions: 1400000000 cycles: 1620386183 heartbeat IPC: 0.767615 cumulative IPC: 0.76504 (Simulation time: 5 hr 3 min 13 sec) 
Heartbeat CPU 0 instructions: 1230000003 cycles: 1630293952 heartbeat IPC: 0.558616 cumulative IPC: 0.668255 (Simulation time: 5 hr 4 min 38 sec) 
Heartbeat CPU 1 instructions: 1410000000 cycles: 1633793686 heartbeat IPC: 0.745851 cumulative IPC: 0.764871 (Simulation time: 5 hr 5 min 8 sec) 
Heartbeat CPU 3 instructions: 1170000000 cycles: 1634136660 heartbeat IPC: 0.461004 cumulative IPC: 0.624481 (Simulation time: 5 hr 5 min 11 sec) 
Heartbeat CPU 1 instructions: 1420000000 cycles: 1647221938 heartbeat IPC: 0.744699 cumulative IPC: 0.764696 (Simulation time: 5 hr 7 min 2 sec) 
Heartbeat CPU 0 instructions: 1240000000 cycles: 1649772808 heartbeat IPC: 0.513377 cumulative IPC: 0.6663 (Simulation time: 5 hr 7 min 23 sec) 
Heartbeat CPU 1 instructions: 1430000002 cycles: 1660854255 heartbeat IPC: 0.733551 cumulative IPC: 0.764422 (Simulation time: 5 hr 8 min 51 sec) 
Heartbeat CPU 3 instructions: 1180000000 cycles: 1661419009 heartbeat IPC: 0.366537 cumulative IPC: 0.619956 (Simulation time: 5 hr 8 min 56 sec) 
Heartbeat CPU 2 instructions: 650000003 cycles: 1665492878 heartbeat IPC: 0.13828 cumulative IPC: 0.288588 (Simulation time: 5 hr 9 min 33 sec) 
Heartbeat CPU 0 instructions: 1250000001 cycles: 1666613915 heartbeat IPC: 0.593785 cumulative IPC: 0.665518 (Simulation time: 5 hr 9 min 43 sec) 
Heartbeat CPU 1 instructions: 1440000000 cycles: 1674234402 heartbeat IPC: 0.747376 cumulative IPC: 0.764277 (Simulation time: 5 hr 10 min 53 sec) 
Heartbeat CPU 0 instructions: 1260000000 cycles: 1682879257 heartbeat IPC: 0.614804 cumulative IPC: 0.664995 (Simulation time: 5 hr 12 min 2 sec) 
Heartbeat CPU 1 instructions: 1450000003 cycles: 1687886900 heartbeat IPC: 0.732467 cumulative IPC: 0.764002 (Simulation time: 5 hr 12 min 47 sec) 
Heartbeat CPU 3 instructions: 1190000000 cycles: 1689717012 heartbeat IPC: 0.353382 cumulative IPC: 0.615192 (Simulation time: 5 hr 13 min 5 sec) 
Heartbeat CPU 0 instructions: 1270000003 cycles: 1696881787 heartbeat IPC: 0.714157 cumulative IPC: 0.665427 (Simulation time: 5 hr 14 min 8 sec) 
Heartbeat CPU 1 instructions: 1460000000 cycles: 1701298520 heartbeat IPC: 0.745622 cumulative IPC: 0.763848 (Simulation time: 5 hr 14 min 43 sec) 
Heartbeat CPU 0 instructions: 1280000000 cycles: 1712522523 heartbeat IPC: 0.639356 cumulative IPC: 0.665174 (Simulation time: 5 hr 16 min 21 sec) 
Heartbeat CPU 1 instructions: 1470000001 cycles: 1714645357 heartbeat IPC: 0.749241 cumulative IPC: 0.763727 (Simulation time: 5 hr 16 min 39 sec) 
Heartbeat CPU 3 instructions: 1200000000 cycles: 1720899796 heartbeat IPC: 0.32069 cumulative IPC: 0.609505 (Simulation time: 5 hr 17 min 34 sec) 
Heartbeat CPU 0 instructions: 1290000001 cycles: 1727119571 heartbeat IPC: 0.68507 cumulative IPC: 0.665353 (Simulation time: 5 hr 18 min 27 sec) 
Heartbeat CPU 1 instructions: 1480000000 cycles: 1728269910 heartbeat IPC: 0.733969 cumulative IPC: 0.763477 (Simulation time: 5 hr 18 min 39 sec) 
Heartbeat CPU 0 instructions: 1300000000 cycles: 1737207310 heartbeat IPC: 0.991302 cumulative IPC: 0.667369 (Simulation time: 5 hr 20 min 1 sec) 
Heartbeat CPU 1 instructions: 1490000000 cycles: 1741394557 heartbeat IPC: 0.761925 cumulative IPC: 0.763464 (Simulation time: 5 hr 20 min 38 sec) 
Heartbeat CPU 2 instructions: 660000000 cycles: 1747276062 heartbeat IPC: 0.122274 cumulative IPC: 0.2803 (Simulation time: 5 hr 21 min 26 sec) 
Heartbeat CPU 3 instructions: 1210000000 cycles: 1749497598 heartbeat IPC: 0.349677 cumulative IPC: 0.604983 (Simulation time: 5 hr 21 min 44 sec) 
Heartbeat CPU 0 instructions: 1310000002 cycles: 1754845220 heartbeat IPC: 0.566961 cumulative IPC: 0.666294 (Simulation time: 5 hr 22 min 29 sec) 
Heartbeat CPU 1 instructions: 1500000000 cycles: 1754988398 heartbeat IPC: 0.735627 cumulative IPC: 0.763235 (Simulation time: 5 hr 22 min 30 sec) 
Finished CPU 3 instructions: 1000000001 cycles: 1659925653 cumulative IPC: 0.602437 (Simulation time: 5 hr 24 min 5 sec) 
Heartbeat CPU 1 instructions: 1510000003 cycles: 1768611735 heartbeat IPC: 0.734035 cumulative IPC: 0.762996 (Simulation time: 5 hr 24 min 27 sec) 
Heartbeat CPU 0 instructions: 1320000000 cycles: 1774351026 heartbeat IPC: 0.512668 cumulative IPC: 0.664498 (Simulation time: 5 hr 25 min 13 sec) 
Heartbeat CPU 3 instructions: 1220000000 cycles: 1776604662 heartbeat IPC: 0.368908 cumulative IPC: 0.601152 (Simulation time: 5 hr 25 min 31 sec) 
Heartbeat CPU 1 instructions: 1520000000 cycles: 1782101119 heartbeat IPC: 0.741323 cumulative IPC: 0.762821 (Simulation time: 5 hr 26 min 16 sec) 
Heartbeat CPU 0 instructions: 1330000000 cycles: 1791316106 heartbeat IPC: 0.589446 cumulative IPC: 0.663743 (Simulation time: 5 hr 27 min 37 sec) 
Heartbeat CPU 1 instructions: 1530000001 cycles: 1795667410 heartbeat IPC: 0.737121 cumulative IPC: 0.762615 (Simulation time: 5 hr 28 min 18 sec) 
Heartbeat CPU 3 instructions: 1230000003 cycles: 1802223882 heartbeat IPC: 0.390332 cumulative IPC: 0.597968 (Simulation time: 5 hr 29 min 13 sec) 
Heartbeat CPU 0 instructions: 1340000000 cycles: 1807629779 heartbeat IPC: 0.612983 cumulative IPC: 0.663256 (Simulation time: 5 hr 29 min 56 sec) 
Heartbeat CPU 1 instructions: 1540000000 cycles: 1809161394 heartbeat IPC: 0.741071 cumulative IPC: 0.762444 (Simulation time: 5 hr 30 min 9 sec) 
Heartbeat CPU 0 instructions: 1350000003 cycles: 1821288804 heartbeat IPC: 0.732117 cumulative IPC: 0.663804 (Simulation time: 5 hr 31 min 57 sec) 
Heartbeat CPU 1 instructions: 1550000002 cycles: 1822338089 heartbeat IPC: 0.758916 cumulative IPC: 0.762417 (Simulation time: 5 hr 32 min 5 sec) 
Heartbeat CPU 3 instructions: 1240000000 cycles: 1826187675 heartbeat IPC: 0.417296 cumulative IPC: 0.59545 (Simulation time: 5 hr 32 min 36 sec) 
Heartbeat CPU 2 instructions: 670000002 cycles: 1831518587 heartbeat IPC: 0.118705 cumulative IPC: 0.27241 (Simulation time: 5 hr 33 min 20 sec) 
Heartbeat CPU 1 instructions: 1560000000 cycles: 1835757200 heartbeat IPC: 0.745206 cumulative IPC: 0.762283 (Simulation time: 5 hr 33 min 58 sec) 
Heartbeat CPU 0 instructions: 1360000000 cycles: 1837084280 heartbeat IPC: 0.633092 cumulative IPC: 0.663524 (Simulation time: 5 hr 34 min 10 sec) 
Heartbeat CPU 1 instructions: 1570000000 cycles: 1849089468 heartbeat IPC: 0.75006 cumulative IPC: 0.76219 (Simulation time: 5 hr 35 min 54 sec) 
Heartbeat CPU 3 instructions: 1250000001 cycles: 1849867619 heartbeat IPC: 0.422298 cumulative IPC: 0.593099 (Simulation time: 5 hr 36 min 0 sec) 
Heartbeat CPU 0 instructions: 1370000002 cycles: 1851666048 heartbeat IPC: 0.685788 cumulative IPC: 0.66371 (Simulation time: 5 hr 36 min 16 sec) 
Heartbeat CPU 0 instructions: 1380000000 cycles: 1861910896 heartbeat IPC: 0.9761 cumulative IPC: 0.665533 (Simulation time: 5 hr 37 min 48 sec) 
Heartbeat CPU 1 instructions: 1580000000 cycles: 1862200680 heartbeat IPC: 0.762706 cumulative IPC: 0.762194 (Simulation time: 5 hr 37 min 50 sec) 
Heartbeat CPU 3 instructions: 1260000000 cycles: 1872192754 heartbeat IPC: 0.447926 cumulative IPC: 0.591264 (Simulation time: 5 hr 39 min 14 sec) 
Heartbeat CPU 1 instructions: 1590000001 cycles: 1875531404 heartbeat IPC: 0.750147 cumulative IPC: 0.762103 (Simulation time: 5 hr 39 min 41 sec) 
Heartbeat CPU 0 instructions: 1390000001 cycles: 1879363702 heartbeat IPC: 0.572974 cumulative IPC: 0.664622 (Simulation time: 5 hr 40 min 12 sec) 
Heartbeat CPU 1 instructions: 1600000000 cycles: 1889151887 heartbeat IPC: 0.734188 cumulative IPC: 0.76189 (Simulation time: 5 hr 41 min 33 sec) 
Heartbeat CPU 3 instructions: 1270000003 cycles: 1895594632 heartbeat IPC: 0.427316 cumulative IPC: 0.58912 (Simulation time: 5 hr 42 min 26 sec) 
Heartbeat CPU 0 instructions: 1400000000 cycles: 1898631593 heartbeat IPC: 0.518998 cumulative IPC: 0.663056 (Simulation time: 5 hr 42 min 49 sec) 
Heartbeat CPU 1 instructions: 1610000000 cycles: 1902595867 heartbeat IPC: 0.743827 cumulative IPC: 0.761755 (Simulation time: 5 hr 43 min 21 sec) 
Heartbeat CPU 2 instructions: 680000000 cycles: 1911647165 heartbeat IPC: 0.124799 cumulative IPC: 0.265859 (Simulation time: 5 hr 44 min 35 sec) 
Heartbeat CPU 0 instructions: 1410000002 cycles: 1915819617 heartbeat IPC: 0.581801 cumulative IPC: 0.662285 (Simulation time: 5 hr 45 min 12 sec) 
Heartbeat CPU 1 instructions: 1620000000 cycles: 1916186737 heartbeat IPC: 0.735788 cumulative IPC: 0.76156 (Simulation time: 5 hr 45 min 15 sec) 
Heartbeat CPU 3 instructions: 1280000000 cycles: 1918567521 heartbeat IPC: 0.435296 cumulative IPC: 0.58717 (Simulation time: 5 hr 45 min 36 sec) 
Heartbeat CPU 1 instructions: 1630000002 cycles: 1929416836 heartbeat IPC: 0.755852 cumulative IPC: 0.761518 (Simulation time: 5 hr 47 min 11 sec) 
Heartbeat CPU 0 instructions: 1420000000 cycles: 1931887225 heartbeat IPC: 0.62237 cumulative IPC: 0.661933 (Simulation time: 5 hr 47 min 31 sec) 
Heartbeat CPU 3 instructions: 1290000000 cycles: 1940818043 heartbeat IPC: 0.449428 cumulative IPC: 0.585499 (Simulation time: 5 hr 49 min 0 sec) 
Heartbeat CPU 1 instructions: 1640000000 cycles: 1942676111 heartbeat IPC: 0.754189 cumulative IPC: 0.761465 (Simulation time: 5 hr 49 min 22 sec) 
Heartbeat CPU 0 instructions: 1430000003 cycles: 1945686281 heartbeat IPC: 0.724687 cumulative IPC: 0.662404 (Simulation time: 5 hr 49 min 51 sec) 
Heartbeat CPU 1 instructions: 1650000000 cycles: 1956107430 heartbeat IPC: 0.744529 cumulative IPC: 0.761342 (Simulation time: 5 hr 51 min 19 sec) 
Heartbeat CPU 0 instructions: 1440000000 cycles: 1961510344 heartbeat IPC: 0.631949 cumulative IPC: 0.662144 (Simulation time: 5 hr 52 min 9 sec) 
Heartbeat CPU 3 instructions: 1300000000 cycles: 1963349340 heartbeat IPC: 0.443827 cumulative IPC: 0.583781 (Simulation time: 5 hr 52 min 27 sec) 
Heartbeat CPU 1 instructions: 1660000000 cycles: 1969154853 heartbeat IPC: 0.766435 cumulative IPC: 0.761378 (Simulation time: 5 hr 53 min 20 sec) 
Heartbeat CPU 0 instructions: 1450000001 cycles: 1976303524 heartbeat IPC: 0.675987 cumulative IPC: 0.662254 (Simulation time: 5 hr 54 min 22 sec) 
Heartbeat CPU 1 instructions: 1670000003 cycles: 1982590373 heartbeat IPC: 0.744296 cumulative IPC: 0.761256 (Simulation time: 5 hr 55 min 21 sec) 
Heartbeat CPU 3 instructions: 1310000002 cycles: 1986092263 heartbeat IPC: 0.439697 cumulative IPC: 0.582037 (Simulation time: 5 hr 55 min 54 sec) 
Heartbeat CPU 0 instructions: 1460000000 cycles: 1986726761 heartbeat IPC: 0.959395 cumulative IPC: 0.663901 (Simulation time: 5 hr 56 min 0 sec) 
Heartbeat CPU 2 instructions: 690000000 cycles: 1989664960 heartbeat IPC: 0.128176 cumulative IPC: 0.260156 (Simulation time: 5 hr 56 min 28 sec) 
Heartbeat CPU 1 instructions: 1680000000 cycles: 1995712399 heartbeat IPC: 0.762077 cumulative IPC: 0.761261 (Simulation time: 5 hr 57 min 19 sec) 
Heartbeat CPU 0 instructions: 1470000001 cycles: 2003709683 heartbeat IPC: 0.588827 cumulative IPC: 0.663229 (Simulation time: 5 hr 58 min 27 sec) 
Heartbeat CPU 1 instructions: 1690000001 cycles: 2009212570 heartbeat IPC: 0.740731 cumulative IPC: 0.761116 (Simulation time: 5 hr 59 min 16 sec) 
Heartbeat CPU 3 instructions: 1320000000 cycles: 2009780784 heartbeat IPC: 0.422145 cumulative IPC: 0.580048 (Simulation time: 5 hr 59 min 21 sec) 
Heartbeat CPU 1 instructions: 1700000000 cycles: 2022619382 heartbeat IPC: 0.745889 cumulative IPC: 0.761009 (Simulation time: 6 hr 1 min 10 sec) 
Heartbeat CPU 0 instructions: 1480000000 cycles: 2022846772 heartbeat IPC: 0.522545 cumulative IPC: 0.661824 (Simulation time: 6 hr 1 min 11 sec) 
Heartbeat CPU 3 instructions: 1330000001 cycles: 2034238547 heartbeat IPC: 0.408868 cumulative IPC: 0.577876 (Simulation time: 6 hr 2 min 45 sec) 
Heartbeat CPU 1 instructions: 1710000003 cycles: 2036308415 heartbeat IPC: 0.730512 cumulative IPC: 0.760793 (Simulation time: 6 hr 3 min 3 sec) 
Heartbeat CPU 0 instructions: 1490000001 cycles: 2040709137 heartbeat IPC: 0.559836 cumulative IPC: 0.660883 (Simulation time: 6 hr 3 min 42 sec) 
Heartbeat CPU 1 instructions: 1720000000 cycles: 2049420950 heartbeat IPC: 0.762629 cumulative IPC: 0.760805 (Simulation time: 6 hr 5 min 3 sec) 
Heartbeat CPU 0 instructions: 1500000000 cycles: 2056805253 heartbeat IPC: 0.621268 cumulative IPC: 0.660556 (Simulation time: 6 hr 6 min 3 sec) 
Heartbeat CPU 3 instructions: 1340000000 cycles: 2058135239 heartbeat IPC: 0.418468 cumulative IPC: 0.575925 (Simulation time: 6 hr 6 min 14 sec) 
Heartbeat CPU 1 instructions: 1730000000 cycles: 2062904684 heartbeat IPC: 0.741634 cumulative IPC: 0.760673 (Simulation time: 6 hr 6 min 58 sec) 
Heartbeat CPU 2 instructions: 700000000 cycles: 2069898260 heartbeat IPC: 0.124637 cumulative IPC: 0.254619 (Simulation time: 6 hr 8 min 5 sec) 
Heartbeat CPU 0 instructions: 1510000003 cycles: 2070150536 heartbeat IPC: 0.749329 cumulative IPC: 0.661159 (Simulation time: 6 hr 8 min 7 sec) 
Heartbeat CPU 1 instructions: 1740000000 cycles: 2076192132 heartbeat IPC: 0.75259 cumulative IPC: 0.760619 (Simulation time: 6 hr 8 min 58 sec) 
Heartbeat CPU 3 instructions: 1350000001 cycles: 2082309161 heartbeat IPC: 0.413669 cumulative IPC: 0.57394 (Simulation time: 6 hr 9 min 52 sec) 
Heartbeat CPU 0 instructions: 1520000000 cycles: 2086309322 heartbeat IPC: 0.618858 cumulative IPC: 0.660814 (Simulation time: 6 hr 10 min 30 sec) 
Heartbeat CPU 1 instructions: 1750000002 cycles: 2089544989 heartbeat IPC: 0.748904 cumulative IPC: 0.76054 (Simulation time: 6 hr 11 min 0 sec) 
Heartbeat CPU 0 instructions: 1530000001 cycles: 2101053029 heartbeat IPC: 0.678256 cumulative IPC: 0.660943 (Simulation time: 6 hr 12 min 43 sec) 
Heartbeat CPU 1 instructions: 1760000000 cycles: 2103014763 heartbeat IPC: 0.742403 cumulative IPC: 0.760417 (Simulation time: 6 hr 13 min 1 sec) 
Heartbeat CPU 3 instructions: 1360000000 cycles: 2105342311 heartbeat IPC: 0.434157 cumulative IPC: 0.572329 (Simulation time: 6 hr 13 min 23 sec) 
Heartbeat CPU 0 instructions: 1540000000 cycles: 2111632762 heartbeat IPC: 0.945203 cumulative IPC: 0.662442 (Simulation time: 6 hr 14 min 21 sec) 
Heartbeat CPU 1 instructions: 1770000001 cycles: 2115973748 heartbeat IPC: 0.771665 cumulative IPC: 0.76049 (Simulation time: 6 hr 15 min 2 sec) 
Heartbeat CPU 0 instructions: 1550000000 cycles: 2128674004 heartbeat IPC: 0.586812 cumulative IPC: 0.661805 (Simulation time: 6 hr 16 min 49 sec) 
[...]
Heartbeat CPU 3 instructions: 3230000003 cycles: 5840371589 heartbeat IPC: 0.396902 cumulative IPC: 0.52565 (Simulation time: 14 hr 55 min 13 sec) 
Heartbeat CPU 0 instructions: 4020000000 cycles: 5840919232 heartbeat IPC: 0.796706 cumulative IPC: 0.66411 (Simulation time: 14 hr 55 min 17 sec) 
Heartbeat CPU 1 instructions: 4540000000 cycles: 5854051204 heartbeat IPC: 0.726369 cumulative IPC: 0.74783 (Simulation time: 14 hr 56 min 57 sec) 
Heartbeat CPU 2 instructions: 1180000000 cycles: 5860192579 heartbeat IPC: 0.119944 cumulative IPC: 0.170316 (Simulation time: 14 hr 57 min 45 sec) 
Heartbeat CPU 0 instructions: 4030000002 cycles: 5860556606 heartbeat IPC: 0.509233 cumulative IPC: 0.663581 (Simulation time: 14 hr 57 min 48 sec) 
Heartbeat CPU 3 instructions: 3240000000 cycles: 5864862120 heartbeat IPC: 0.408321 cumulative IPC: 0.525151 (Simulation time: 14 hr 58 min 22 sec) 
Heartbeat CPU 1 instructions: 4550000000 cycles: 5867788669 heartbeat IPC: 0.727936 cumulative IPC: 0.747782 (Simulation time: 14 hr 58 min 43 sec) 
Heartbeat CPU 0 instructions: 4040000000 cycles: 5880748367 heartbeat IPC: 0.495251 cumulative IPC: 0.662993 (Simulation time: 15 hr 0 min 19 sec) 
Heartbeat CPU 1 instructions: 4560000000 cycles: 5881610224 heartbeat IPC: 0.723508 cumulative IPC: 0.747724 (Simulation time: 15 hr 0 min 25 sec) 
Heartbeat CPU 3 instructions: 3250000001 cycles: 5888947802 heartbeat IPC: 0.415184 cumulative IPC: 0.524693 (Simulation time: 15 hr 1 min 25 sec) 
Heartbeat CPU 1 instructions: 4570000003 cycles: 5895069694 heartbeat IPC: 0.742972 cumulative IPC: 0.747713 (Simulation time: 15 hr 2 min 17 sec) 
Heartbeat CPU 0 instructions: 4050000001 cycles: 5895088626 heartbeat IPC: 0.697338 cumulative IPC: 0.663078 (Simulation time: 15 hr 2 min 17 sec) 
Heartbeat CPU 1 instructions: 4580000000 cycles: 5908728408 heartbeat IPC: 0.732133 cumulative IPC: 0.747676 (Simulation time: 15 hr 4 min 3 sec) 
Heartbeat CPU 0 instructions: 4060000000 cycles: 5911501607 heartbeat IPC: 0.609274 cumulative IPC: 0.662926 (Simulation time: 15 hr 4 min 26 sec) 
Heartbeat CPU 3 instructions: 3260000000 cycles: 5911879013 heartbeat IPC: 0.436087 cumulative IPC: 0.524343 (Simulation time: 15 hr 4 min 29 sec) 
Heartbeat CPU 1 instructions: 4590000001 cycles: 5922340335 heartbeat IPC: 0.73465 cumulative IPC: 0.747646 (Simulation time: 15 hr 5 min 53 sec) 
Heartbeat CPU 0 instructions: 4070000002 cycles: 5927785603 heartbeat IPC: 0.6141 cumulative IPC: 0.662789 (Simulation time: 15 hr 6 min 35 sec) 
Heartbeat CPU 3 instructions: 3270000003 cycles: 5935132345 heartbeat IPC: 0.430046 cumulative IPC: 0.523967 (Simulation time: 15 hr 7 min 36 sec) 
Heartbeat CPU 1 instructions: 4600000000 cycles: 5935897296 heartbeat IPC: 0.737628 cumulative IPC: 0.747623 (Simulation time: 15 hr 7 min 42 sec) 
Heartbeat CPU 0 instructions: 4080000000 cycles: 5941556307 heartbeat IPC: 0.726179 cumulative IPC: 0.662939 (Simulation time: 15 hr 8 min 29 sec) 
Heartbeat CPU 2 instructions: 1190000003 cycles: 5946364971 heartbeat IPC: 0.116046 cumulative IPC: 0.169515 (Simulation time: 15 hr 9 min 7 sec) 
Heartbeat CPU 1 instructions: 4610000003 cycles: 5949581760 heartbeat IPC: 0.730756 cumulative IPC: 0.747583 (Simulation time: 15 hr 9 min 33 sec) 
Heartbeat CPU 0 instructions: 4090000002 cycles: 5954449156 heartbeat IPC: 0.775624 cumulative IPC: 0.663187 (Simulation time: 15 hr 10 min 13 sec) 
Heartbeat CPU 3 instructions: 3280000000 cycles: 5957849900 heartbeat IPC: 0.440188 cumulative IPC: 0.523642 (Simulation time: 15 hr 10 min 42 sec) 
Heartbeat CPU 1 instructions: 4620000000 cycles: 5962862843 heartbeat IPC: 0.75295 cumulative IPC: 0.747595 (Simulation time: 15 hr 11 min 24 sec) 
Heartbeat CPU 0 instructions: 4100000000 cycles: 5966911646 heartbeat IPC: 0.802408 cumulative IPC: 0.663483 (Simulation time: 15 hr 11 min 55 sec) 
Heartbeat CPU 1 instructions: 4630000000 cycles: 5976504841 heartbeat IPC: 0.73303 cumulative IPC: 0.747561 (Simulation time: 15 hr 13 min 7 sec) 
Heartbeat CPU 3 instructions: 3290000000 cycles: 5980173406 heartbeat IPC: 0.447958 cumulative IPC: 0.523354 (Simulation time: 15 hr 13 min 36 sec) 
Heartbeat CPU 0 instructions: 4110000000 cycles: 5986621156 heartbeat IPC: 0.507369 cumulative IPC: 0.66296 (Simulation time: 15 hr 14 min 28 sec) 
Heartbeat CPU 1 instructions: 4640000000 cycles: 5990285451 heartbeat IPC: 0.725657 cumulative IPC: 0.74751 (Simulation time: 15 hr 14 min 57 sec) 
Heartbeat CPU 3 instructions: 3300000000 cycles: 6003156088 heartbeat IPC: 0.43511 cumulative IPC: 0.52301 (Simulation time: 15 hr 16 min 32 sec) 
Heartbeat CPU 1 instructions: 4650000003 cycles: 6003790524 heartbeat IPC: 0.740463 cumulative IPC: 0.747494 (Simulation time: 15 hr 16 min 37 sec) 
Heartbeat CPU 0 instructions: 4120000000 cycles: 6006951858 heartbeat IPC: 0.491867 cumulative IPC: 0.66237 (Simulation time: 15 hr 17 min 1 sec) 
Heartbeat CPU 1 instructions: 4660000000 cycles: 6017645042 heartbeat IPC: 0.721786 cumulative IPC: 0.747434 (Simulation time: 15 hr 18 min 27 sec) 
Heartbeat CPU 0 instructions: 4130000003 cycles: 6021101852 heartbeat IPC: 0.706714 cumulative IPC: 0.662476 (Simulation time: 15 hr 18 min 57 sec) 
Heartbeat CPU 3 instructions: 3310000002 cycles: 6026519203 heartbeat IPC: 0.428025 cumulative IPC: 0.522635 (Simulation time: 15 hr 19 min 38 sec) 
Heartbeat CPU 1 instructions: 4670000000 cycles: 6031418105 heartbeat IPC: 0.726055 cumulative IPC: 0.747384 (Simulation time: 15 hr 20 min 14 sec) 
Heartbeat CPU 2 instructions: 1200000000 cycles: 6032689895 heartbeat IPC: 0.115841 cumulative IPC: 0.168733 (Simulation time: 15 hr 20 min 25 sec) 
Finished CPU 2 instructions: 1000000000 cycles: 5926511056 cumulative IPC: 0.168733 (Simulation time: 15 hr 20 min 25 sec) 

CPU 0 Branch Prediction Accuracy: 99.8405% MPKI: 0.104714

CPU 1 Branch Prediction Accuracy: 99.975% MPKI: 0.00434094

CPU 2 Branch Prediction Accuracy: 98.8012% MPKI: 2.21428

CPU 3 Branch Prediction Accuracy: 97.8911% MPKI: 0.323144

ChampSim completed all CPUs

Total Simulation Statistics (not including warmup)

CPU 0 cumulative IPC: 0.662258 instructions: 3924880225 cycles: 5926511056
L1D TOTAL     ACCESS:  970743452  HIT:  866098333  MISS:  104645119
L1D LOAD      ACCESS:  853366505  HIT:  769981746  MISS:   83384759
L1D RFO       ACCESS:  117376947  HIT:   96116587  MISS:   21260360
L1D PREFETCH  ACCESS:          0  HIT:          0  MISS:          0
L1D WRITEBACK ACCESS:          0  HIT:          0  MISS:          0
L1I TOTAL     ACCESS: 1004893822  HIT: 1004893705  MISS:        117
L1I LOAD      ACCESS: 1004893822  HIT: 1004893705  MISS:        117
L1I RFO       ACCESS:          0  HIT:          0  MISS:          0
L1I PREFETCH  ACCESS:          0  HIT:          0  MISS:          0
L1I WRITEBACK ACCESS:          0  HIT:          0  MISS:          0
L2C TOTAL     ACCESS:  197567020  HIT:  100440194  MISS:   97126826
L2C LOAD      ACCESS:   83384788  HIT:   71336049  MISS:   12048739
L2C RFO       ACCESS:   21260360  HIT:      12377  MISS:   21247983
L2C PREFETCH  ACCESS:   63961525  HIT:     155738  MISS:   63805787
L2C WRITEBACK ACCESS:   28960347  HIT:   28936030  MISS:      24317

L2C DA-AMPM prefetcher final stats
LLC TOTAL     ACCESS:  125863211  HIT:   37114543  MISS:   88748668
LLC LOAD      ACCESS:    6910611  HIT:    1480844  MISS:    5429767
LLC RFO       ACCESS:   21247927  HIT:    1930207  MISS:   19317720
LLC PREFETCH  ACCESS:   68943963  HIT:    4944280  MISS:   63999683
LLC WRITEBACK ACCESS:   28760710  HIT:   28759212  MISS:       1498

CPU 1 cumulative IPC: 0.747379 instructions: 4429350346 cycles: 5926511056
L1D TOTAL     ACCESS:  940626602  HIT:  882009550  MISS:   58617052
L1D LOAD      ACCESS:  629790933  HIT:  571232263  MISS:   58558670
L1D RFO       ACCESS:  310835669  HIT:  310777287  MISS:      58382
L1D PREFETCH  ACCESS:          0  HIT:          0  MISS:          0
L1D WRITEBACK ACCESS:          0  HIT:          0  MISS:          0
L1I TOTAL     ACCESS:  928046805  HIT:  928046805  MISS:          0
L1I LOAD      ACCESS:  928046805  HIT:  928046805  MISS:          0
L1I RFO       ACCESS:          0  HIT:          0  MISS:          0
L1I PREFETCH  ACCESS:          0  HIT:          0  MISS:          0
L1I WRITEBACK ACCESS:          0  HIT:          0  MISS:          0
L2C TOTAL     ACCESS:  131206397  HIT:   73822351  MISS:   57384046
L2C LOAD      ACCESS:   58558670  HIT:   34289104  MISS:   24269566
L2C RFO       ACCESS:      58382  HIT:      12601  MISS:      45781
L2C PREFETCH  ACCESS:   33667824  HIT:     599125  MISS:   33068699
L2C WRITEBACK ACCESS:   38921521  HIT:   38921521  MISS:          0

L2C DA-AMPM prefetcher final stats
LLC TOTAL     ACCESS:   96269089  HIT:   57210690  MISS:   39058399
LLC LOAD      ACCESS:   21549734  HIT:   18295897  MISS:    3253837
LLC RFO       ACCESS:      45780  HIT:      45633  MISS:        147
LLC PREFETCH  ACCESS:   35788530  HIT:          0  MISS:   35788530
LLC WRITEBACK ACCESS:   38885045  HIT:   38869160  MISS:      15885

CPU 2 cumulative IPC: 0.168733 instructions: 1000000000 cycles: 5926511056
L1D TOTAL     ACCESS:  402993493  HIT:  244860231  MISS:  158133262
L1D LOAD      ACCESS:  345098902  HIT:  188086354  MISS:  157012548
L1D RFO       ACCESS:   57894591  HIT:   56773877  MISS:    1120714
L1D PREFETCH  ACCESS:          0  HIT:          0  MISS:          0
L1D WRITEBACK ACCESS:          0  HIT:          0  MISS:          0
L1I TOTAL     ACCESS:  364622820  HIT:  364622804  MISS:         16
L1I LOAD      ACCESS:  364622820  HIT:  364622804  MISS:         16
L1I RFO       ACCESS:          0  HIT:          0  MISS:          0
L1I PREFETCH  ACCESS:          0  HIT:          0  MISS:          0
L1I WRITEBACK ACCESS:          0  HIT:          0  MISS:          0
L2C TOTAL     ACCESS:  310844995  HIT:   90176020  MISS:  220668975
L2C LOAD      ACCESS:  157012534  HIT:   87937402  MISS:   69075132
L2C RFO       ACCESS:    1120714  HIT:      69177  MISS:    1051537
L2C PREFETCH  ACCESS:  150958036  HIT:     422600  MISS:  150535436
L2C WRITEBACK ACCESS:    1753711  HIT:    1746841  MISS:       6870

L2C DA-AMPM prefetcher final stats
LLC TOTAL     ACCESS:  222404408  HIT:   93688979  MISS:  128715429
LLC LOAD      ACCESS:   42491547  HIT:   19377004  MISS:   23114543
LLC RFO       ACCESS:    1048890  HIT:       9138  MISS:    1039752
LLC PREFETCH  ACCESS:  177121668  HIT:   72564073  MISS:  104557595
LLC WRITEBACK ACCESS:    1742303  HIT:    1738764  MISS:       3539

CPU 3 cumulative IPC: 0.522509 instructions: 3096654948 cycles: 5926511057
L1D TOTAL     ACCESS:  842323706  HIT:  648703120  MISS:  193620586
L1D LOAD      ACCESS:  315873720  HIT:  286503049  MISS:   29370671
L1D RFO       ACCESS:  526449986  HIT:  362200071  MISS:  164249915
L1D PREFETCH  ACCESS:          0  HIT:          0  MISS:          0
L1D WRITEBACK ACCESS:          0  HIT:          0  MISS:          0
L1I TOTAL     ACCESS:  736092335  HIT:  736092332  MISS:          3
L1I LOAD      ACCESS:  736092335  HIT:  736092332  MISS:          3
L1I RFO       ACCESS:          0  HIT:          0  MISS:          0
L1I PREFETCH  ACCESS:          0  HIT:          0  MISS:          0
L1I WRITEBACK ACCESS:          0  HIT:          0  MISS:          0
L2C TOTAL     ACCESS:  382164992  HIT:  237797321  MISS:  144367671
L2C LOAD      ACCESS:   29370674  HIT:   24153842  MISS:    5216832
L2C RFO       ACCESS:  164248885  HIT:   49259869  MISS:  114989016
L2C PREFETCH  ACCESS:   24295512  HIT:     167804  MISS:   24127708
L2C WRITEBACK ACCESS:  164249921  HIT:  164215806  MISS:      34115

L2C DA-AMPM prefetcher final stats
LLC TOTAL     ACCESS:  259283426  HIT:  141990551  MISS:  117292875
LLC LOAD      ACCESS:    4013690  HIT:      24810  MISS:    3988880
LLC RFO       ACCESS:  114917693  HIT:   26956008  MISS:   87961685
LLC PREFETCH  ACCESS:   25330850  HIT:          1  MISS:   25330849
LLC WRITEBACK ACCESS:  115021193  HIT:  115009732  MISS:      11461

Region of Interest Statistics

CPU 0 cumulative IPC: 0.66779 instructions: 1000000000 cycles: 1497476296
L1D TOTAL     ACCESS:  247169463  HIT:  221108474  MISS:   26060989
L1D LOAD      ACCESS:  224870087  HIT:  204648774  MISS:   20221313
L1D RFO       ACCESS:   22299376  HIT:   16459700  MISS:    5839676
L1D PREFETCH  ACCESS:          0  HIT:          0  MISS:          0
L1D WRITEBACK ACCESS:          0  HIT:          0  MISS:          0
L1D PREFETCH  REQUESTED:          0  ISSUED:          0  USEFUL:          0  USELESS:          0
L1I TOTAL     ACCESS:  255301075  HIT:  255301075  MISS:          0
L1I LOAD      ACCESS:  255301075  HIT:  255301075  MISS:          0
L1I RFO       ACCESS:          0  HIT:          0  MISS:          0
L1I PREFETCH  ACCESS:          0  HIT:          0  MISS:          0
L1I WRITEBACK ACCESS:          0  HIT:          0  MISS:          0
L1I PREFETCH  REQUESTED:          0  ISSUED:          0  USEFUL:          0  USELESS:          0
L2C TOTAL     ACCESS:   49236860  HIT:   25070752  MISS:   24166108
L2C LOAD      ACCESS:   20221303  HIT:   17571426  MISS:    2649877
L2C RFO       ACCESS:    5839676  HIT:         39  MISS:    5839637
L2C PREFETCH  ACCESS:   15689907  HIT:      13674  MISS:   15676233
L2C WRITEBACK ACCESS:    7485974  HIT:    7485613  MISS:        361
L2C PREFETCH  REQUESTED:   73671918  ISSUED:   73427818  USEFUL:   59166220  USELESS:    8330246
LLC TOTAL     ACCESS:   31603129  HIT:    7438736  MISS:   24164393
LLC LOAD      ACCESS:    1414751  HIT:       2043  MISS:    1412708
LLC RFO       ACCESS:    5839619  HIT:          0  MISS:    5839619
LLC PREFETCH  ACCESS:   16911377  HIT:         46  MISS:   16911331
LLC WRITEBACK ACCESS:    7437382  HIT:    7436647  MISS:        735
LLC PREFETCH  REQUESTED:          0  ISSUED:          0  USEFUL:    1656241  USELESS:  236758168
Major fault: 0 Minor fault: 209522

CPU 1 cumulative IPC: 0.763712 instructions: 1000000000 cycles: 1309394162
L1D TOTAL     ACCESS:  212373540  HIT:  199139758  MISS:   13233782
L1D LOAD      ACCESS:  142197315  HIT:  128976713  MISS:   13220602
L1D RFO       ACCESS:   70176225  HIT:   70163045  MISS:      13180
L1D PREFETCH  ACCESS:          0  HIT:          0  MISS:          0
L1D WRITEBACK ACCESS:          0  HIT:          0  MISS:          0
L1D PREFETCH  REQUESTED:          0  ISSUED:          0  USEFUL:          0  USELESS:          0
L1I TOTAL     ACCESS:  209575607  HIT:  209575607  MISS:          0
L1I LOAD      ACCESS:  209575607  HIT:  209575607  MISS:          0
L1I RFO       ACCESS:          0  HIT:          0  MISS:          0
L1I PREFETCH  ACCESS:          0  HIT:          0  MISS:          0
L1I WRITEBACK ACCESS:          0  HIT:          0  MISS:          0
L1I PREFETCH  REQUESTED:          0  ISSUED:          0  USEFUL:          0  USELESS:          0
L2C TOTAL     ACCESS:   29646850  HIT:   16674475  MISS:   12972375
L2C LOAD      ACCESS:   13220602  HIT:    7749270  MISS:    5471332
L2C RFO       ACCESS:      13180  HIT:       2761  MISS:      10419
L2C PREFETCH  ACCESS:    7625894  HIT:     135270  MISS:    7490624
L2C WRITEBACK ACCESS:    8787174  HIT:    8787174  MISS:          0
L2C PREFETCH  REQUESTED:   39012520  ISSUED:   39012520  USEFUL:   34969613  USELESS:      52423
LLC TOTAL     ACCESS:   21751262  HIT:   12881074  MISS:    8870188
LLC LOAD      ACCESS:    4881876  HIT:    4105228  MISS:     776648
LLC RFO       ACCESS:      10419  HIT:      10322  MISS:         97
LLC PREFETCH  ACCESS:    8080080  HIT:          0  MISS:    8080080
LLC WRITEBACK ACCESS:    8778887  HIT:    8765524  MISS:      13363
LLC PREFETCH  REQUESTED:          0  ISSUED:          0  USEFUL:    1656241  USELESS:  236758168
Major fault: 0 Minor fault: 274488

CPU 2 cumulative IPC: 0.168733 instructions: 1000000000 cycles: 5926511056
L1D TOTAL     ACCESS:  402993493  HIT:  244860231  MISS:  158133262
L1D LOAD      ACCESS:  345098902  HIT:  188086354  MISS:  157012548
L1D RFO       ACCESS:   57894591  HIT:   56773877  MISS:    1120714
L1D PREFETCH  ACCESS:          0  HIT:          0  MISS:          0
L1D WRITEBACK ACCESS:          0  HIT:          0  MISS:          0
L1D PREFETCH  REQUESTED:          0  ISSUED:          0  USEFUL:          0  USELESS:          0
L1I TOTAL     ACCESS:  364622820  HIT:  364622804  MISS:         16
L1I LOAD      ACCESS:  364622820  HIT:  364622804  MISS:         16
L1I RFO       ACCESS:          0  HIT:          0  MISS:          0
L1I PREFETCH  ACCESS:          0  HIT:          0  MISS:          0
L1I WRITEBACK ACCESS:          0  HIT:          0  MISS:          0
L1I PREFETCH  REQUESTED:          0  ISSUED:          0  USEFUL:          0  USELESS:          0
L2C TOTAL     ACCESS:  310844995  HIT:   90176020  MISS:  220668975
L2C LOAD      ACCESS:  157012534  HIT:   87937402  MISS:   69075132
L2C RFO       ACCESS:    1120714  HIT:      69177  MISS:    1051537
L2C PREFETCH  ACCESS:  150958036  HIT:     422600  MISS:  150535436
L2C WRITEBACK ACCESS:    1753711  HIT:    1746841  MISS:       6870
L2C PREFETCH  REQUESTED:  218331414  ISSUED:  218314035  USEFUL:  111296351  USELESS:   75401454
LLC TOTAL     ACCESS:  222404408  HIT:   93688979  MISS:  128715429
LLC LOAD      ACCESS:   42491547  HIT:   19377004  MISS:   23114543
LLC RFO       ACCESS:    1048890  HIT:       9138  MISS:    1039752
LLC PREFETCH  ACCESS:  177121668  HIT:   72564073  MISS:  104557595
LLC WRITEBACK ACCESS:    1742303  HIT:    1738764  MISS:       3539
LLC PREFETCH  REQUESTED:          0  ISSUED:          0  USEFUL:    1656241  USELESS:  236758168
Major fault: 0 Minor fault: 46954

CPU 3 cumulative IPC: 0.602437 instructions: 1000000001 cycles: 1659925653
L1D TOTAL     ACCESS:  266661980  HIT:  212771439  MISS:   53890541
L1D LOAD      ACCESS:  103413093  HIT:   95240841  MISS:    8172252
L1D RFO       ACCESS:  163248887  HIT:  117530598  MISS:   45718289
L1D PREFETCH  ACCESS:          0  HIT:          0  MISS:          0
L1D WRITEBACK ACCESS:          0  HIT:          0  MISS:          0
L1D PREFETCH  REQUESTED:          0  ISSUED:          0  USEFUL:          0  USELESS:          0
L1I TOTAL     ACCESS:  236667192  HIT:  236667189  MISS:          3
L1I LOAD      ACCESS:  236667192  HIT:  236667189  MISS:          3
L1I RFO       ACCESS:          0  HIT:          0  MISS:          0
L1I PREFETCH  ACCESS:          0  HIT:          0  MISS:          0
L1I WRITEBACK ACCESS:          0  HIT:          0  MISS:          0
L1I PREFETCH  REQUESTED:          0  ISSUED:          0  USEFUL:          0  USELESS:          0
L2C TOTAL     ACCESS:  106438165  HIT:   66750149  MISS:   39688016
L2C LOAD      ACCESS:    8172255  HIT:    6787369  MISS:    1384886
L2C RFO       ACCESS:   45718066  HIT:   14203622  MISS:   31514444
L2C PREFETCH  ACCESS:    6829550  HIT:      47805  MISS:    6781745
L2C WRITEBACK ACCESS:   45718294  HIT:   45711353  MISS:       6941
L2C PREFETCH  REQUESTED:   28586744  ISSUED:   28586744  USEFUL:   26393016  USELESS:        145
LLC TOTAL     ACCESS:   71181695  HIT:   38530666  MISS:   32651029
LLC LOAD      ACCESS:    1092916  HIT:       4728  MISS:    1088188
LLC RFO       ACCESS:   31494244  HIT:    7007835  MISS:   24486409
LLC PREFETCH  ACCESS:    7073715  HIT:          0  MISS:    7073715
LLC WRITEBACK ACCESS:   31520820  HIT:   31518103  MISS:       2717
LLC PREFETCH  REQUESTED:          0  ISSUED:          0  USEFUL:    1656241  USELESS:  236758168
Major fault: 0 Minor fault: 631850

L2C DA-AMPM prefetcher final stats

L2C DA-AMPM prefetcher final stats

L2C DA-AMPM prefetcher final stats

L2C DA-AMPM prefetcher final stats

DRAM Statistics
 CHANNEL 0
 RQ ROW_BUFFER_HIT:   64463301  ROW_BUFFER_MISS:  122585889
 DBUS_CONGESTED:  446545422
 WQ ROW_BUFFER_HIT:    6872590  ROW_BUFFER_MISS:   70795784  FULL:          0

 CHANNEL 1
 RQ ROW_BUFFER_HIT:   64108365  ROW_BUFFER_MISS:  122624423
 DBUS_CONGESTED:  446545422
 WQ ROW_BUFFER_HIT:    6838861  ROW_BUFFER_MISS:   70830403  FULL:          0

 AVG_CONGESTED_CYCLE: 14
