
*** ChampSim Multicore Out-of-Order Simulator ***

Warmup Instructions: 200000000
Simulation Instructions: 1000000000
Number of CPUs: 4
LLC sets: 8192
LLC ways: 16
Off-chip DRAM Size: 8192 MB Channels: 2 Width: 64-bit Data Rate: 1600 MT/s

CPU 0 runs /scratch/user/djimenez/champsim-traces/speccpu2017/xz/623.xalancbmk_s/623.xalancbmk_s-165B.champsimtrace.xz
CPU 1 runs /scratch/user/djimenez/champsim-traces/speccpu2017/xz/621.wrf_s/621.wrf_s-8065B.champsimtrace.xz
CPU 2 runs /scratch/user/djimenez/champsim-traces/speccpu2017/xz/654.roms_s/654.roms_s-1007B.champsimtrace.xz
CPU 3 runs /scratch/user/djimenez/champsim-traces/speccpu2017/xz/619.lbm_s/619.lbm_s-4268B.champsimtrace.xz
L2C DA-AMPM prefetcher
L2C DA-AMPM prefetcher
L2C DA-AMPM prefetcher
L2C DA-AMPM prefetcher
Heartbeat CPU 0 instructions: 10000001 cycles: 4164486 heartbeat IPC: 2.40126 cumulative IPC: 2.40126 (Simulation time: 0 hr 1 min 52 sec) 
Heartbeat CPU 1 instructions: 10000003 cycles: 4756162 heartbeat IPC: 2.10254 cumulative IPC: 2.10254 (Simulation time: 0 hr 2 min 8 sec) 
Heartbeat CPU 3 instructions: 10000001 cycles: 4901420 heartbeat IPC: 2.04023 cumulative IPC: 2.04023 (Simulation time: 0 hr 2 min 12 sec) 
Heartbeat CPU 2 instructions: 10000002 cycles: 5109524 heartbeat IPC: 1.95713 cumulative IPC: 1.95713 (Simulation time: 0 hr 2 min 18 sec) 
Heartbeat CPU 0 instructions: 20000000 cycles: 8322071 heartbeat IPC: 2.40524 cumulative IPC: 2.40325 (Simulation time: 0 hr 3 min 44 sec) 
Heartbeat CPU 1 instructions: 20000000 cycles: 9267084 heartbeat IPC: 2.21684 cumulative IPC: 2.15818 (Simulation time: 0 hr 4 min 9 sec) 
Heartbeat CPU 3 instructions: 20000000 cycles: 9796236 heartbeat IPC: 2.04298 cumulative IPC: 2.0416 (Simulation time: 0 hr 4 min 23 sec) 
Heartbeat CPU 2 instructions: 20000000 cycles: 10218680 heartbeat IPC: 1.95727 cumulative IPC: 1.9572 (Simulation time: 0 hr 4 min 34 sec) 
Heartbeat CPU 0 instructions: 30000001 cycles: 12473459 heartbeat IPC: 2.40883 cumulative IPC: 2.40511 (Simulation time: 0 hr 5 min 36 sec) 
Heartbeat CPU 1 instructions: 30000000 cycles: 13671209 heartbeat IPC: 2.2706 cumulative IPC: 2.19439 (Simulation time: 0 hr 6 min 9 sec) 
Heartbeat CPU 3 instructions: 30000000 cycles: 14679148 heartbeat IPC: 2.04796 cumulative IPC: 2.04372 (Simulation time: 0 hr 6 min 35 sec) 
Heartbeat CPU 2 instructions: 30000000 cycles: 15327992 heartbeat IPC: 1.95721 cumulative IPC: 1.9572 (Simulation time: 0 hr 6 min 53 sec) 
Heartbeat CPU 0 instructions: 40000000 cycles: 16623221 heartbeat IPC: 2.40978 cumulative IPC: 2.40627 (Simulation time: 0 hr 7 min 27 sec) 
Heartbeat CPU 1 instructions: 40000000 cycles: 18322696 heartbeat IPC: 2.14985 cumulative IPC: 2.18308 (Simulation time: 0 hr 8 min 13 sec) 
Heartbeat CPU 3 instructions: 40000000 cycles: 19587689 heartbeat IPC: 2.03727 cumulative IPC: 2.0421 (Simulation time: 0 hr 8 min 47 sec) 
Heartbeat CPU 2 instructions: 40000000 cycles: 20437367 heartbeat IPC: 1.95719 cumulative IPC: 1.9572 (Simulation time: 0 hr 9 min 10 sec) 
Heartbeat CPU 0 instructions: 50000000 cycles: 20771677 heartbeat IPC: 2.41054 cumulative IPC: 2.40712 (Simulation time: 0 hr 9 min 19 sec) 
Heartbeat CPU 1 instructions: 50000003 cycles: 22787356 heartbeat IPC: 2.23981 cumulative IPC: 2.1942 (Simulation time: 0 hr 10 min 15 sec) 
Heartbeat CPU 3 instructions: 50000001 cycles: 24502824 heartbeat IPC: 2.03453 cumulative IPC: 2.04058 (Simulation time: 0 hr 11 min 2 sec) 
Heartbeat CPU 0 instructions: 60000000 cycles: 24922030 heartbeat IPC: 2.40943 cumulative IPC: 2.40751 (Simulation time: 0 hr 11 min 13 sec) 
Heartbeat CPU 2 instructions: 50000003 cycles: 25393420 heartbeat IPC: 2.01774 cumulative IPC: 1.96901 (Simulation time: 0 hr 11 min 26 sec) 
Heartbeat CPU 1 instructions: 60000000 cycles: 27432478 heartbeat IPC: 2.1528 cumulative IPC: 2.18719 (Simulation time: 0 hr 12 min 22 sec) 
Heartbeat CPU 0 instructions: 70000000 cycles: 29077931 heartbeat IPC: 2.40622 cumulative IPC: 2.40732 (Simulation time: 0 hr 13 min 6 sec) 
Heartbeat CPU 3 instructions: 60000000 cycles: 29437264 heartbeat IPC: 2.02657 cumulative IPC: 2.03823 (Simulation time: 0 hr 13 min 15 sec) 
Heartbeat CPU 2 instructions: 60000000 cycles: 30209784 heartbeat IPC: 2.07625 cumulative IPC: 1.98611 (Simulation time: 0 hr 13 min 36 sec) 
Heartbeat CPU 1 instructions: 70000002 cycles: 31862648 heartbeat IPC: 2.25725 cumulative IPC: 2.19693 (Simulation time: 0 hr 14 min 21 sec) 
Heartbeat CPU 0 instructions: 80000000 cycles: 33225387 heartbeat IPC: 2.41112 cumulative IPC: 2.4078 (Simulation time: 0 hr 14 min 58 sec) 
Heartbeat CPU 3 instructions: 70000003 cycles: 34360906 heartbeat IPC: 2.03102 cumulative IPC: 2.0372 (Simulation time: 0 hr 15 min 28 sec) 
Heartbeat CPU 2 instructions: 70000003 cycles: 35318506 heartbeat IPC: 1.95744 cumulative IPC: 1.98196 (Simulation time: 0 hr 15 min 54 sec) 
Heartbeat CPU 1 instructions: 80000000 cycles: 36541624 heartbeat IPC: 2.13722 cumulative IPC: 2.18928 (Simulation time: 0 hr 16 min 27 sec) 
Heartbeat CPU 0 instructions: 90000000 cycles: 37380854 heartbeat IPC: 2.40647 cumulative IPC: 2.40765 (Simulation time: 0 hr 16 min 49 sec) 
Heartbeat CPU 3 instructions: 80000000 cycles: 39259537 heartbeat IPC: 2.04139 cumulative IPC: 2.03772 (Simulation time: 0 hr 17 min 40 sec) 
Heartbeat CPU 2 instructions: 80000000 cycles: 40427823 heartbeat IPC: 1.95721 cumulative IPC: 1.97884 (Simulation time: 0 hr 18 min 11 sec) 
Heartbeat CPU 1 instructions: 90000000 cycles: 40978082 heartbeat IPC: 2.25405 cumulative IPC: 2.1963 (Simulation time: 0 hr 18 min 29 sec) 
Heartbeat CPU 0 instructions: 100000000 cycles: 41527145 heartbeat IPC: 2.41179 cumulative IPC: 2.40806 (Simulation time: 0 hr 18 min 48 sec) 
Heartbeat CPU 3 instructions: 90000000 cycles: 44175765 heartbeat IPC: 2.03408 cumulative IPC: 2.03732 (Simulation time: 0 hr 20 min 14 sec) 
Heartbeat CPU 2 instructions: 90000003 cycles: 45537126 heartbeat IPC: 1.95721 cumulative IPC: 1.97641 (Simulation time: 0 hr 20 min 52 sec) 
Heartbeat CPU 1 instructions: 100000000 cycles: 45650822 heartbeat IPC: 2.14007 cumulative IPC: 2.19054 (Simulation time: 0 hr 20 min 55 sec) 
Heartbeat CPU 0 instructions: 110000003 cycles: 45677597 heartbeat IPC: 2.40938 cumulative IPC: 2.40818 (Simulation time: 0 hr 20 min 55 sec) 
Heartbeat CPU 3 instructions: 100000000 cycles: 49073826 heartbeat IPC: 2.04162 cumulative IPC: 2.03775 (Simulation time: 0 hr 22 min 36 sec) 
Heartbeat CPU 0 instructions: 120000000 cycles: 49836237 heartbeat IPC: 2.40463 cumulative IPC: 2.40789 (Simulation time: 0 hr 22 min 57 sec) 
Heartbeat CPU 1 instructions: 110000001 cycles: 50093657 heartbeat IPC: 2.25082 cumulative IPC: 2.19589 (Simulation time: 0 hr 23 min 4 sec) 
Heartbeat CPU 2 instructions: 100000000 cycles: 50646329 heartbeat IPC: 1.95725 cumulative IPC: 1.97448 (Simulation time: 0 hr 23 min 21 sec) 
Heartbeat CPU 3 instructions: 110000002 cycles: 53990619 heartbeat IPC: 2.03385 cumulative IPC: 2.03739 (Simulation time: 0 hr 24 min 56 sec) 
Heartbeat CPU 0 instructions: 130000001 cycles: 53991627 heartbeat IPC: 2.40651 cumulative IPC: 2.40778 (Simulation time: 0 hr 24 min 56 sec) 
Heartbeat CPU 1 instructions: 120000000 cycles: 54830485 heartbeat IPC: 2.11112 cumulative IPC: 2.18856 (Simulation time: 0 hr 25 min 18 sec) 
Heartbeat CPU 2 instructions: 110000002 cycles: 55755653 heartbeat IPC: 1.95721 cumulative IPC: 1.97289 (Simulation time: 0 hr 25 min 42 sec) 
Heartbeat CPU 0 instructions: 140000000 cycles: 58141889 heartbeat IPC: 2.40949 cumulative IPC: 2.4079 (Simulation time: 0 hr 26 min 49 sec) 
Heartbeat CPU 3 instructions: 120000000 cycles: 58923972 heartbeat IPC: 2.02702 cumulative IPC: 2.03652 (Simulation time: 0 hr 27 min 14 sec) 
Heartbeat CPU 1 instructions: 130000001 cycles: 59785159 heartbeat IPC: 2.0183 cumulative IPC: 2.17445 (Simulation time: 0 hr 27 min 40 sec) 
Heartbeat CPU 2 instructions: 120000000 cycles: 60798924 heartbeat IPC: 1.98284 cumulative IPC: 1.97372 (Simulation time: 0 hr 28 min 10 sec) 
Heartbeat CPU 0 instructions: 150000002 cycles: 62294093 heartbeat IPC: 2.40836 cumulative IPC: 2.40793 (Simulation time: 0 hr 28 min 54 sec) 
Heartbeat CPU 3 instructions: 130000003 cycles: 63822654 heartbeat IPC: 2.04137 cumulative IPC: 2.03689 (Simulation time: 0 hr 29 min 43 sec) 
Heartbeat CPU 1 instructions: 140000000 cycles: 64740585 heartbeat IPC: 2.01799 cumulative IPC: 2.16248 (Simulation time: 0 hr 30 min 18 sec) 
Heartbeat CPU 2 instructions: 130000003 cycles: 65514257 heartbeat IPC: 2.12074 cumulative IPC: 1.9843 (Simulation time: 0 hr 30 min 41 sec) 
Heartbeat CPU 0 instructions: 160000000 cycles: 66449555 heartbeat IPC: 2.40647 cumulative IPC: 2.40784 (Simulation time: 0 hr 31 min 9 sec) 
Heartbeat CPU 3 instructions: 140000000 cycles: 68731403 heartbeat IPC: 2.03718 cumulative IPC: 2.03691 (Simulation time: 0 hr 32 min 11 sec) 
Heartbeat CPU 1 instructions: 150000002 cycles: 69804928 heartbeat IPC: 1.97459 cumulative IPC: 2.14885 (Simulation time: 0 hr 32 min 42 sec) 
Heartbeat CPU 0 instructions: 170000003 cycles: 70607498 heartbeat IPC: 2.40504 cumulative IPC: 2.40768 (Simulation time: 0 hr 33 min 8 sec) 
Heartbeat CPU 2 instructions: 140000000 cycles: 70623277 heartbeat IPC: 1.95732 cumulative IPC: 1.98235 (Simulation time: 0 hr 33 min 9 sec) 
Heartbeat CPU 3 instructions: 150000000 cycles: 73661386 heartbeat IPC: 2.0284 cumulative IPC: 2.03635 (Simulation time: 0 hr 34 min 36 sec) 
Heartbeat CPU 1 instructions: 160000000 cycles: 74087182 heartbeat IPC: 2.33522 cumulative IPC: 2.15962 (Simulation time: 0 hr 34 min 54 sec) 
Heartbeat CPU 0 instructions: 180000000 cycles: 74766344 heartbeat IPC: 2.40451 cumulative IPC: 2.4075 (Simulation time: 0 hr 35 min 18 sec) 
Heartbeat CPU 2 instructions: 150000000 cycles: 75732580 heartbeat IPC: 1.95721 cumulative IPC: 1.98065 (Simulation time: 0 hr 35 min 47 sec) 
Heartbeat CPU 3 instructions: 160000000 cycles: 78604867 heartbeat IPC: 2.02287 cumulative IPC: 2.0355 (Simulation time: 0 hr 37 min 3 sec) 
Heartbeat CPU 0 instructions: 190000001 cycles: 78920639 heartbeat IPC: 2.40715 cumulative IPC: 2.40748 (Simulation time: 0 hr 37 min 14 sec) 
Heartbeat CPU 1 instructions: 170000000 cycles: 79135875 heartbeat IPC: 1.98071 cumulative IPC: 2.1482 (Simulation time: 0 hr 37 min 21 sec) 
Heartbeat CPU 2 instructions: 160000000 cycles: 80841881 heartbeat IPC: 1.95721 cumulative IPC: 1.97917 (Simulation time: 0 hr 38 min 11 sec) 
Heartbeat CPU 0 instructions: 200000000 cycles: 83077498 heartbeat IPC: 2.40566 cumulative IPC: 2.40739 (Simulation time: 0 hr 39 min 9 sec) 
Heartbeat CPU 3 instructions: 170000000 cycles: 83538699 heartbeat IPC: 2.02682 cumulative IPC: 2.03499 (Simulation time: 0 hr 39 min 21 sec) 
Heartbeat CPU 1 instructions: 180000000 cycles: 84030973 heartbeat IPC: 2.04286 cumulative IPC: 2.14207 (Simulation time: 0 hr 39 min 34 sec) 
Heartbeat CPU 2 instructions: 170000000 cycles: 85951083 heartbeat IPC: 1.95725 cumulative IPC: 1.97787 (Simulation time: 0 hr 40 min 25 sec) 
Heartbeat CPU 0 instructions: 210000002 cycles: 87238482 heartbeat IPC: 2.40328 cumulative IPC: 0.114628 (Simulation time: 0 hr 40 min 58 sec) 
Heartbeat CPU 3 instructions: 180000000 cycles: 88467071 heartbeat IPC: 2.02907 cumulative IPC: 2.03466 (Simulation time: 0 hr 41 min 31 sec) 
Heartbeat CPU 1 instructions: 190000003 cycles: 88905451 heartbeat IPC: 2.0515 cumulative IPC: 2.1371 (Simulation time: 0 hr 41 min 42 sec) 
Heartbeat CPU 2 instructions: 180000000 cycles: 91060351 heartbeat IPC: 1.95723 cumulative IPC: 1.97671 (Simulation time: 0 hr 42 min 38 sec) 
Heartbeat CPU 0 instructions: 220000000 cycles: 91442031 heartbeat IPC: 2.37894 cumulative IPC: 0.218718 (Simulation time: 0 hr 42 min 48 sec) 
Heartbeat CPU 3 instructions: 190000001 cycles: 93405035 heartbeat IPC: 2.02513 cumulative IPC: 2.03415 (Simulation time: 0 hr 43 min 39 sec) 
Heartbeat CPU 1 instructions: 200000000 cycles: 93802614 heartbeat IPC: 2.042 cumulative IPC: 2.13214 (Simulation time: 0 hr 43 min 49 sec) 
Heartbeat CPU 0 instructions: 230000000 cycles: 95654502 heartbeat IPC: 2.3739 cumulative IPC: 0.313629 (Simulation time: 0 hr 44 min 38 sec) 
Heartbeat CPU 2 instructions: 190000000 cycles: 96169669 heartbeat IPC: 1.95721 cumulative IPC: 1.97567 (Simulation time: 0 hr 44 min 52 sec) 
Heartbeat CPU 3 instructions: 200000000 cycles: 98333249 heartbeat IPC: 2.02913 cumulative IPC: 2.0339 (Simulation time: 0 hr 45 min 49 sec) 
Heartbeat CPU 1 instructions: 210000003 cycles: 98426258 heartbeat IPC: 2.1628 cumulative IPC: 0.101599 (Simulation time: 0 hr 45 min 51 sec) 
Heartbeat CPU 0 instructions: 240000000 cycles: 99855055 heartbeat IPC: 2.38064 cumulative IPC: 0.400581 (Simulation time: 0 hr 46 min 29 sec) 
Heartbeat CPU 2 instructions: 200000000 cycles: 101037295 heartbeat IPC: 2.05439 cumulative IPC: 1.97947 (Simulation time: 0 hr 47 min 0 sec) 

Warmup complete CPU 0 instructions: 242811500 cycles: 101037296 (Simulation time: 0 hr 47 min 0 sec) 
Warmup complete CPU 1 instructions: 215377683 cycles: 101037296 (Simulation time: 0 hr 47 min 0 sec) 
Warmup complete CPU 2 instructions: 200000001 cycles: 101037296 (Simulation time: 0 hr 47 min 0 sec) 
Warmup complete CPU 3 instructions: 205483833 cycles: 101037295 (Simulation time: 0 hr 47 min 0 sec) 

Heartbeat CPU 1 instructions: 220000000 cycles: 104857094 heartbeat IPC: 1.55501 cumulative IPC: 1.21009 (Simulation time: 0 hr 47 min 43 sec) 
Heartbeat CPU 3 instructions: 210000000 cycles: 110300391 heartbeat IPC: 0.835621 cumulative IPC: 0.487544 (Simulation time: 0 hr 49 min 17 sec) 
Heartbeat CPU 0 instructions: 250000001 cycles: 110315992 heartbeat IPC: 0.955937 cumulative IPC: 0.774732 (Simulation time: 0 hr 49 min 17 sec) 
Heartbeat CPU 1 instructions: 230000002 cycles: 114063236 heartbeat IPC: 1.08623 cumulative IPC: 1.12255 (Simulation time: 0 hr 50 min 7 sec) 
Heartbeat CPU 2 instructions: 210000000 cycles: 119386004 heartbeat IPC: 0.544997 cumulative IPC: 0.544997 (Simulation time: 0 hr 51 min 27 sec) 
Heartbeat CPU 0 instructions: 260000000 cycles: 123536519 heartbeat IPC: 0.756399 cumulative IPC: 0.76396 (Simulation time: 0 hr 52 min 28 sec) 
Heartbeat CPU 1 instructions: 240000000 cycles: 123914990 heartbeat IPC: 1.01505 cumulative IPC: 1.07626 (Simulation time: 0 hr 52 min 34 sec) 
Heartbeat CPU 3 instructions: 220000000 cycles: 129785093 heartbeat IPC: 0.513223 cumulative IPC: 0.504949 (Simulation time: 0 hr 53 min 51 sec) 
Heartbeat CPU 2 instructions: 220000000 cycles: 136658801 heartbeat IPC: 0.578945 cumulative IPC: 0.561459 (Simulation time: 0 hr 55 min 22 sec) 
Heartbeat CPU 0 instructions: 270000002 cycles: 136697687 heartbeat IPC: 0.759811 cumulative IPC: 0.762429 (Simulation time: 0 hr 55 min 22 sec) 
Heartbeat CPU 1 instructions: 250000003 cycles: 138177758 heartbeat IPC: 0.701126 cumulative IPC: 0.932199 (Simulation time: 0 hr 55 min 41 sec) 
Heartbeat CPU 1 instructions: 260000000 cycles: 148019943 heartbeat IPC: 1.01603 cumulative IPC: 0.949762 (Simulation time: 0 hr 57 min 50 sec) 
Heartbeat CPU 3 instructions: 230000002 cycles: 149401362 heartbeat IPC: 0.509781 cumulative IPC: 0.506909 (Simulation time: 0 hr 58 min 9 sec) 
Heartbeat CPU 0 instructions: 280000000 cycles: 150522200 heartbeat IPC: 0.723353 cumulative IPC: 0.751512 (Simulation time: 0 hr 58 min 22 sec) 
Heartbeat CPU 2 instructions: 230000003 cycles: 154061274 heartbeat IPC: 0.574631 cumulative IPC: 0.565782 (Simulation time: 0 hr 59 min 10 sec) 
Heartbeat CPU 1 instructions: 270000000 cycles: 157574463 heartbeat IPC: 1.04663 cumulative IPC: 0.966131 (Simulation time: 1 hr 0 min 1 sec) 
Heartbeat CPU 0 instructions: 290000000 cycles: 164664224 heartbeat IPC: 0.707112 cumulative IPC: 0.741644 (Simulation time: 1 hr 1 min 36 sec) 
Heartbeat CPU 3 instructions: 240000000 cycles: 170663655 heartbeat IPC: 0.470316 cumulative IPC: 0.495734 (Simulation time: 1 hr 2 min 51 sec) 
Heartbeat CPU 2 instructions: 240000000 cycles: 171407242 heartbeat IPC: 0.576503 cumulative IPC: 0.568424 (Simulation time: 1 hr 3 min 0 sec) 
Heartbeat CPU 1 instructions: 280000000 cycles: 171799850 heartbeat IPC: 0.702969 cumulative IPC: 0.913228 (Simulation time: 1 hr 3 min 5 sec) 
Heartbeat CPU 0 instructions: 300000000 cycles: 179168880 heartbeat IPC: 0.689434 cumulative IPC: 0.731951 (Simulation time: 1 hr 4 min 31 sec) 
Heartbeat CPU 1 instructions: 290000002 cycles: 183584224 heartbeat IPC: 0.848581 cumulative IPC: 0.903999 (Simulation time: 1 hr 5 min 27 sec) 
Heartbeat CPU 2 instructions: 250000001 cycles: 188777420 heartbeat IPC: 0.575699 cumulative IPC: 0.569865 (Simulation time: 1 hr 6 min 27 sec) 
Heartbeat CPU 3 instructions: 250000000 cycles: 190306489 heartbeat IPC: 0.509091 cumulative IPC: 0.498673 (Simulation time: 1 hr 6 min 43 sec) 
Heartbeat CPU 0 instructions: 310000003 cycles: 193901404 heartbeat IPC: 0.678771 cumulative IPC: 0.723514 (Simulation time: 1 hr 7 min 24 sec) 
Heartbeat CPU 1 instructions: 300000000 cycles: 195737542 heartbeat IPC: 0.82282 cumulative IPC: 0.893581 (Simulation time: 1 hr 7 min 45 sec) 
Heartbeat CPU 2 instructions: 260000000 cycles: 206111152 heartbeat IPC: 0.57691 cumulative IPC: 0.571027 (Simulation time: 1 hr 9 min 37 sec) 
Heartbeat CPU 0 instructions: 320000000 cycles: 209061554 heartbeat IPC: 0.659624 cumulative IPC: 0.714548 (Simulation time: 1 hr 10 min 10 sec) 
Heartbeat CPU 1 instructions: 310000002 cycles: 209572445 heartbeat IPC: 0.72281 cumulative IPC: 0.871813 (Simulation time: 1 hr 10 min 16 sec) 
Heartbeat CPU 3 instructions: 260000000 cycles: 210049292 heartbeat IPC: 0.506514 cumulative IPC: 0.500093 (Simulation time: 1 hr 10 min 21 sec) 
Heartbeat CPU 1 instructions: 320000000 cycles: 221404679 heartbeat IPC: 0.845149 cumulative IPC: 0.869192 (Simulation time: 1 hr 12 min 28 sec) 
Heartbeat CPU 2 instructions: 270000000 cycles: 222371528 heartbeat IPC: 0.614992 cumulative IPC: 0.576919 (Simulation time: 1 hr 12 min 39 sec) 
Heartbeat CPU 0 instructions: 330000000 cycles: 224634023 heartbeat IPC: 0.642159 cumulative IPC: 0.705427 (Simulation time: 1 hr 13 min 3 sec) 
Heartbeat CPU 3 instructions: 270000002 cycles: 231627480 heartbeat IPC: 0.463431 cumulative IPC: 0.494035 (Simulation time: 1 hr 14 min 22 sec) 
Heartbeat CPU 1 instructions: 330000000 cycles: 234952285 heartbeat IPC: 0.738138 cumulative IPC: 0.855933 (Simulation time: 1 hr 14 min 59 sec) 
Heartbeat CPU 0 instructions: 340000000 cycles: 239952521 heartbeat IPC: 0.652806 cumulative IPC: 0.699625 (Simulation time: 1 hr 15 min 54 sec) 
Heartbeat CPU 2 instructions: 280000000 cycles: 240488062 heartbeat IPC: 0.551982 cumulative IPC: 0.573679 (Simulation time: 1 hr 16 min 0 sec) 
Heartbeat CPU 1 instructions: 340000000 cycles: 251045812 heartbeat IPC: 0.621368 cumulative IPC: 0.830768 (Simulation time: 1 hr 17 min 51 sec) 
Heartbeat CPU 3 instructions: 280000000 cycles: 251548575 heartbeat IPC: 0.50198 cumulative IPC: 0.495087 (Simulation time: 1 hr 17 min 58 sec) 
Heartbeat CPU 0 instructions: 350000000 cycles: 255181620 heartbeat IPC: 0.656638 cumulative IPC: 0.695378 (Simulation time: 1 hr 18 min 43 sec) 
Heartbeat CPU 2 instructions: 290000000 cycles: 257875260 heartbeat IPC: 0.575136 cumulative IPC: 0.573841 (Simulation time: 1 hr 19 min 17 sec) 
Heartbeat CPU 1 instructions: 350000002 cycles: 258776607 heartbeat IPC: 1.29353 cumulative IPC: 0.853448 (Simulation time: 1 hr 19 min 27 sec) 
Heartbeat CPU 1 instructions: 360000000 cycles: 268375611 heartbeat IPC: 1.04177 cumulative IPC: 0.864251 (Simulation time: 1 hr 21 min 21 sec) 
Heartbeat CPU 0 instructions: 360000000 cycles: 270410179 heartbeat IPC: 0.656661 cumulative IPC: 0.691896 (Simulation time: 1 hr 21 min 46 sec) 
Heartbeat CPU 3 instructions: 290000001 cycles: 270879074 heartbeat IPC: 0.517317 cumulative IPC: 0.497617 (Simulation time: 1 hr 21 min 52 sec) 
Heartbeat CPU 2 instructions: 300000000 cycles: 275186007 heartbeat IPC: 0.577676 cumulative IPC: 0.574222 (Simulation time: 1 hr 22 min 44 sec) 
Heartbeat CPU 1 instructions: 370000003 cycles: 276351466 heartbeat IPC: 1.25378 cumulative IPC: 0.881973 (Simulation time: 1 hr 22 min 58 sec) 
Heartbeat CPU 1 instructions: 380000000 cycles: 285727260 heartbeat IPC: 1.06658 cumulative IPC: 0.891344 (Simulation time: 1 hr 24 min 54 sec) 
Heartbeat CPU 0 instructions: 370000001 cycles: 285840241 heartbeat IPC: 0.648086 cumulative IPC: 0.688239 (Simulation time: 1 hr 24 min 56 sec) 
Heartbeat CPU 3 instructions: 300000000 cycles: 290545454 heartbeat IPC: 0.508482 cumulative IPC: 0.498745 (Simulation time: 1 hr 26 min 4 sec) 
Heartbeat CPU 2 instructions: 310000000 cycles: 292559205 heartbeat IPC: 0.575599 cumulative IPC: 0.574347 (Simulation time: 1 hr 26 min 29 sec) 
Heartbeat CPU 1 instructions: 390000001 cycles: 295161919 heartbeat IPC: 1.05992 cumulative IPC: 0.899537 (Simulation time: 1 hr 27 min 0 sec) 
Heartbeat CPU 0 instructions: 380000000 cycles: 301230429 heartbeat IPC: 0.649765 cumulative IPC: 0.685281 (Simulation time: 1 hr 28 min 23 sec) 
Heartbeat CPU 1 instructions: 400000000 cycles: 303026188 heartbeat IPC: 1.27157 cumulative IPC: 0.914022 (Simulation time: 1 hr 28 min 49 sec) 
Heartbeat CPU 2 instructions: 320000000 cycles: 309855913 heartbeat IPC: 0.578145 cumulative IPC: 0.574661 (Simulation time: 1 hr 30 min 12 sec) 
Heartbeat CPU 3 instructions: 310000002 cycles: 310277185 heartbeat IPC: 0.506798 cumulative IPC: 0.499504 (Simulation time: 1 hr 30 min 17 sec) 
Heartbeat CPU 1 instructions: 410000000 cycles: 312499677 heartbeat IPC: 1.05558 cumulative IPC: 0.920364 (Simulation time: 1 hr 30 min 45 sec) 
Heartbeat CPU 0 instructions: 390000001 cycles: 316620431 heartbeat IPC: 0.649773 cumulative IPC: 0.682746 (Simulation time: 1 hr 31 min 36 sec) 
Heartbeat CPU 1 instructions: 420000000 cycles: 320385744 heartbeat IPC: 1.26806 cumulative IPC: 0.932864 (Simulation time: 1 hr 32 min 22 sec) 
Heartbeat CPU 2 instructions: 330000001 cycles: 327222201 heartbeat IPC: 0.575828 cumulative IPC: 0.574751 (Simulation time: 1 hr 33 min 37 sec) 
Heartbeat CPU 3 instructions: 320000000 cycles: 329192102 heartbeat IPC: 0.528683 cumulative IPC: 0.501923 (Simulation time: 1 hr 33 min 59 sec) 
Heartbeat CPU 0 instructions: 400000000 cycles: 331987921 heartbeat IPC: 0.650724 cumulative IPC: 0.680615 (Simulation time: 1 hr 34 min 29 sec) 
Heartbeat CPU 1 instructions: 430000001 cycles: 334446180 heartbeat IPC: 0.711216 cumulative IPC: 0.919512 (Simulation time: 1 hr 34 min 56 sec) 
Heartbeat CPU 2 instructions: 340000000 cycles: 344216141 heartbeat IPC: 0.588445 cumulative IPC: 0.575708 (Simulation time: 1 hr 36 min 49 sec) 
Heartbeat CPU 0 instructions: 410000002 cycles: 347446982 heartbeat IPC: 0.64687 cumulative IPC: 0.678498 (Simulation time: 1 hr 37 min 29 sec) 
Heartbeat CPU 3 instructions: 330000003 cycles: 348490121 heartbeat IPC: 0.518188 cumulative IPC: 0.503192 (Simulation time: 1 hr 37 min 41 sec) 
Heartbeat CPU 1 instructions: 440000000 cycles: 349458749 heartbeat IPC: 0.666108 cumulative IPC: 0.904199 (Simulation time: 1 hr 37 min 55 sec) 
Heartbeat CPU 2 instructions: 350000003 cycles: 359664973 heartbeat IPC: 0.647298 cumulative IPC: 0.579984 (Simulation time: 1 hr 39 min 55 sec) 
Heartbeat CPU 0 instructions: 420000000 cycles: 362918202 heartbeat IPC: 0.646361 cumulative IPC: 0.6766 (Simulation time: 1 hr 40 min 38 sec) 
Heartbeat CPU 1 instructions: 450000000 cycles: 364441984 heartbeat IPC: 0.667413 cumulative IPC: 0.890729 (Simulation time: 1 hr 40 min 57 sec) 
Heartbeat CPU 3 instructions: 340000000 cycles: 367458349 heartbeat IPC: 0.527197 cumulative IPC: 0.504901 (Simulation time: 1 hr 41 min 32 sec) 
Heartbeat CPU 0 instructions: 430000000 cycles: 378307195 heartbeat IPC: 0.649815 cumulative IPC: 0.675113 (Simulation time: 1 hr 43 min 28 sec) 
Heartbeat CPU 2 instructions: 360000000 cycles: 380952854 heartbeat IPC: 0.469751 cumulative IPC: 0.571601 (Simulation time: 1 hr 43 min 53 sec) 
Heartbeat CPU 1 instructions: 460000000 cycles: 381108873 heartbeat IPC: 0.599992 cumulative IPC: 0.873428 (Simulation time: 1 hr 43 min 55 sec) 
Heartbeat CPU 3 instructions: 350000002 cycles: 386633249 heartbeat IPC: 0.521515 cumulative IPC: 0.506016 (Simulation time: 1 hr 44 min 55 sec) 
Heartbeat CPU 1 instructions: 470000000 cycles: 390996869 heartbeat IPC: 1.01133 cumulative IPC: 0.87813 (Simulation time: 1 hr 45 min 43 sec) 
Heartbeat CPU 0 instructions: 440000000 cycles: 393705059 heartbeat IPC: 0.649441 cumulative IPC: 0.673762 (Simulation time: 1 hr 46 min 12 sec) 
Heartbeat CPU 2 instructions: 370000002 cycles: 402356853 heartbeat IPC: 0.467203 cumulative IPC: 0.564185 (Simulation time: 1 hr 47 min 53 sec) 
Heartbeat CPU 1 instructions: 480000000 cycles: 404641314 heartbeat IPC: 0.732899 cumulative IPC: 0.871603 (Simulation time: 1 hr 48 min 25 sec) 
Heartbeat CPU 3 instructions: 360000000 cycles: 407054311 heartbeat IPC: 0.48969 cumulative IPC: 0.504927 (Simulation time: 1 hr 49 min 0 sec) 
Heartbeat CPU 0 instructions: 450000000 cycles: 409113107 heartbeat IPC: 0.649011 cumulative IPC: 0.672524 (Simulation time: 1 hr 49 min 29 sec) 
Heartbeat CPU 1 instructions: 490000003 cycles: 413489910 heartbeat IPC: 1.13012 cumulative IPC: 0.878925 (Simulation time: 1 hr 50 min 25 sec) 
Heartbeat CPU 1 instructions: 500000000 cycles: 422038552 heartbeat IPC: 1.16978 cumulative IPC: 0.88667 (Simulation time: 1 hr 52 min 24 sec) 
Heartbeat CPU 2 instructions: 380000000 cycles: 423665053 heartbeat IPC: 0.469303 cumulative IPC: 0.557918 (Simulation time: 1 hr 52 min 44 sec) 
Heartbeat CPU 0 instructions: 460000000 cycles: 424497841 heartbeat IPC: 0.649995 cumulative IPC: 0.671453 (Simulation time: 1 hr 52 min 53 sec) 
Heartbeat CPU 3 instructions: 370000001 cycles: 425400872 heartbeat IPC: 0.545061 cumulative IPC: 0.507197 (Simulation time: 1 hr 53 min 3 sec) 
Heartbeat CPU 1 instructions: 510000000 cycles: 430913970 heartbeat IPC: 1.12671 cumulative IPC: 0.893129 (Simulation time: 1 hr 54 min 7 sec) 
Heartbeat CPU 1 instructions: 520000000 cycles: 438971399 heartbeat IPC: 1.24109 cumulative IPC: 0.901425 (Simulation time: 1 hr 55 min 55 sec) 
Heartbeat CPU 0 instructions: 470000002 cycles: 439872239 heartbeat IPC: 0.650432 cumulative IPC: 0.670499 (Simulation time: 1 hr 56 min 6 sec) 
Heartbeat CPU 2 instructions: 390000001 cycles: 443136458 heartbeat IPC: 0.513574 cumulative IPC: 0.555395 (Simulation time: 1 hr 56 min 51 sec) 
Heartbeat CPU 3 instructions: 380000000 cycles: 444891576 heartbeat IPC: 0.513065 cumulative IPC: 0.507529 (Simulation time: 1 hr 57 min 16 sec) 
Heartbeat CPU 1 instructions: 530000003 cycles: 447730202 heartbeat IPC: 1.14171 cumulative IPC: 0.907496 (Simulation time: 1 hr 57 min 54 sec) 
Heartbeat CPU 0 instructions: 480000000 cycles: 455319275 heartbeat IPC: 0.647373 cumulative IPC: 0.669491 (Simulation time: 1 hr 59 min 32 sec) 
Heartbeat CPU 1 instructions: 540000000 cycles: 457470518 heartbeat IPC: 1.02666 cumulative IPC: 0.910752 (Simulation time: 1 hr 59 min 57 sec) 
Heartbeat CPU 2 instructions: 400000000 cycles: 458280820 heartbeat IPC: 0.660312 cumulative IPC: 0.559842 (Simulation time: 2 hr 0 min 7 sec) 
Heartbeat CPU 3 instructions: 390000000 cycles: 464665816 heartbeat IPC: 0.505708 cumulative IPC: 0.50743 (Simulation time: 2 hr 1 min 21 sec) 
Heartbeat CPU 1 instructions: 550000000 cycles: 467551800 heartbeat IPC: 0.991937 cumulative IPC: 0.912985 (Simulation time: 2 hr 1 min 53 sec) 
Heartbeat CPU 0 instructions: 490000000 cycles: 470678366 heartbeat IPC: 0.65108 cumulative IPC: 0.668726 (Simulation time: 2 hr 2 min 29 sec) 
Heartbeat CPU 2 instructions: 410000000 cycles: 475254430 heartbeat IPC: 0.58915 cumulative IPC: 0.561172 (Simulation time: 2 hr 3 min 21 sec) 
Heartbeat CPU 1 instructions: 560000000 cycles: 481694283 heartbeat IPC: 0.707089 cumulative IPC: 0.905336 (Simulation time: 2 hr 4 min 31 sec) 
Heartbeat CPU 3 instructions: 400000000 cycles: 482940285 heartbeat IPC: 0.547212 cumulative IPC: 0.509334 (Simulation time: 2 hr 4 min 45 sec) 
Heartbeat CPU 0 instructions: 500000000 cycles: 486020657 heartbeat IPC: 0.651793 cumulative IPC: 0.668051 (Simulation time: 2 hr 5 min 19 sec) 
Heartbeat CPU 1 instructions: 570000002 cycles: 491855111 heartbeat IPC: 0.984172 cumulative IPC: 0.907385 (Simulation time: 2 hr 6 min 22 sec) 
Heartbeat CPU 2 instructions: 420000000 cycles: 493936373 heartbeat IPC: 0.535276 cumulative IPC: 0.55994 (Simulation time: 2 hr 6 min 43 sec) 
Heartbeat CPU 0 instructions: 510000000 cycles: 501386308 heartbeat IPC: 0.650802 cumulative IPC: 0.667389 (Simulation time: 2 hr 8 min 3 sec) 
Heartbeat CPU 1 instructions: 580000000 cycles: 501629752 heartbeat IPC: 1.02306 cumulative IPC: 0.910208 (Simulation time: 2 hr 8 min 6 sec) 
Heartbeat CPU 3 instructions: 410000001 cycles: 502569846 heartbeat IPC: 0.509436 cumulative IPC: 0.509339 (Simulation time: 2 hr 8 min 15 sec) 
Heartbeat CPU 2 instructions: 430000000 cycles: 514444178 heartbeat IPC: 0.487619 cumulative IPC: 0.556353 (Simulation time: 2 hr 10 min 14 sec) 
Heartbeat CPU 1 instructions: 590000001 cycles: 516475538 heartbeat IPC: 0.673592 cumulative IPC: 0.901752 (Simulation time: 2 hr 10 min 40 sec) 
Heartbeat CPU 0 instructions: 520000000 cycles: 516885314 heartbeat IPC: 0.645203 cumulative IPC: 0.666562 (Simulation time: 2 hr 10 min 45 sec) 
Heartbeat CPU 3 instructions: 420000000 cycles: 524172305 heartbeat IPC: 0.46291 cumulative IPC: 0.506969 (Simulation time: 2 hr 11 min 57 sec) 
Heartbeat CPU 1 instructions: 600000000 cycles: 528596137 heartbeat IPC: 0.825042 cumulative IPC: 0.899577 (Simulation time: 2 hr 12 min 44 sec) 
Heartbeat CPU 0 instructions: 530000000 cycles: 532246263 heartbeat IPC: 0.651001 cumulative IPC: 0.666008 (Simulation time: 2 hr 13 min 22 sec) 
Heartbeat CPU 2 instructions: 440000000 cycles: 533357231 heartbeat IPC: 0.528735 cumulative IPC: 0.555144 (Simulation time: 2 hr 13 min 35 sec) 
Heartbeat CPU 1 instructions: 610000003 cycles: 541045590 heartbeat IPC: 0.803248 cumulative IPC: 0.896852 (Simulation time: 2 hr 14 min 54 sec) 
Heartbeat CPU 3 instructions: 430000003 cycles: 544065317 heartbeat IPC: 0.502689 cumulative IPC: 0.506776 (Simulation time: 2 hr 15 min 27 sec) 
Heartbeat CPU 0 instructions: 540000000 cycles: 547587237 heartbeat IPC: 0.651849 cumulative IPC: 0.665521 (Simulation time: 2 hr 16 min 1 sec) 
Heartbeat CPU 2 instructions: 450000001 cycles: 552073002 heartbeat IPC: 0.534309 cumulative IPC: 0.55428 (Simulation time: 2 hr 16 min 47 sec) 
Heartbeat CPU 1 instructions: 620000000 cycles: 555334476 heartbeat IPC: 0.699844 cumulative IPC: 0.890656 (Simulation time: 2 hr 17 min 21 sec) 
Heartbeat CPU 0 instructions: 550000000 cycles: 563002334 heartbeat IPC: 0.648715 cumulative IPC: 0.664961 (Simulation time: 2 hr 18 min 46 sec) 
Heartbeat CPU 3 instructions: 440000000 cycles: 564361755 heartbeat IPC: 0.492697 cumulative IPC: 0.50616 (Simulation time: 2 hr 19 min 0 sec) 
Heartbeat CPU 1 instructions: 630000003 cycles: 566763727 heartbeat IPC: 0.874948 cumulative IPC: 0.89027 (Simulation time: 2 hr 19 min 26 sec) 
Heartbeat CPU 2 instructions: 460000000 cycles: 572123639 heartbeat IPC: 0.498737 cumulative IPC: 0.551916 (Simulation time: 2 hr 20 min 26 sec) 
Heartbeat CPU 0 instructions: 560000000 cycles: 578378873 heartbeat IPC: 0.650341 cumulative IPC: 0.66449 (Simulation time: 2 hr 21 min 35 sec) 
Heartbeat CPU 1 instructions: 640000000 cycles: 579441204 heartbeat IPC: 0.7888 cumulative IPC: 0.887581 (Simulation time: 2 hr 21 min 47 sec) 
Heartbeat CPU 3 instructions: 450000002 cycles: 584013112 heartbeat IPC: 0.508871 cumulative IPC: 0.50627 (Simulation time: 2 hr 22 min 31 sec) 
Heartbeat CPU 2 instructions: 470000000 cycles: 592455852 heartbeat IPC: 0.49183 cumulative IPC: 0.54943 (Simulation time: 2 hr 24 min 19 sec) 
Heartbeat CPU 1 instructions: 650000000 cycles: 593177485 heartbeat IPC: 0.727999 cumulative IPC: 0.883127 (Simulation time: 2 hr 24 min 28 sec) 
Heartbeat CPU 0 instructions: 570000001 cycles: 593775631 heartbeat IPC: 0.649487 cumulative IPC: 0.664021 (Simulation time: 2 hr 24 min 36 sec) 
Heartbeat CPU 3 instructions: 460000000 cycles: 603221043 heartbeat IPC: 0.520618 cumulative IPC: 0.506819 (Simulation time: 2 hr 26 min 38 sec) 
Heartbeat CPU 1 instructions: 660000000 cycles: 605608926 heartbeat IPC: 0.804412 cumulative IPC: 0.881188 (Simulation time: 2 hr 27 min 10 sec) 
Heartbeat CPU 0 instructions: 580000000 cycles: 609109581 heartbeat IPC: 0.652148 cumulative IPC: 0.663662 (Simulation time: 2 hr 27 min 52 sec) 
Heartbeat CPU 2 instructions: 480000000 cycles: 611484362 heartbeat IPC: 0.525527 cumulative IPC: 0.548539 (Simulation time: 2 hr 28 min 22 sec) 
Heartbeat CPU 1 instructions: 670000001 cycles: 619995857 heartbeat IPC: 0.695075 cumulative IPC: 0.876028 (Simulation time: 2 hr 30 min 9 sec) 
Heartbeat CPU 3 instructions: 470000000 cycles: 622415038 heartbeat IPC: 0.520996 cumulative IPC: 0.507341 (Simulation time: 2 hr 30 min 41 sec) 
Heartbeat CPU 0 instructions: 590000002 cycles: 624453002 heartbeat IPC: 0.651745 cumulative IPC: 0.663313 (Simulation time: 2 hr 31 min 6 sec) 
Heartbeat CPU 2 instructions: 490000003 cycles: 630513906 heartbeat IPC: 0.525499 cumulative IPC: 0.547711 (Simulation time: 2 hr 32 min 29 sec) 
Heartbeat CPU 1 instructions: 680000000 cycles: 631638635 heartbeat IPC: 0.858901 cumulative IPC: 0.875652 (Simulation time: 2 hr 32 min 44 sec) 
Heartbeat CPU 0 instructions: 600000000 cycles: 639790923 heartbeat IPC: 0.651979 cumulative IPC: 0.66299 (Simulation time: 2 hr 34 min 29 sec) 
Heartbeat CPU 3 instructions: 480000000 cycles: 640814311 heartbeat IPC: 0.5435 cumulative IPC: 0.508573 (Simulation time: 2 hr 34 min 41 sec) 
Heartbeat CPU 1 instructions: 690000000 cycles: 643746131 heartbeat IPC: 0.825935 cumulative IPC: 0.874543 (Simulation time: 2 hr 35 min 12 sec) 
Heartbeat CPU 2 instructions: 500000000 cycles: 649352582 heartbeat IPC: 0.530823 cumulative IPC: 0.54713 (Simulation time: 2 hr 36 min 15 sec) 
Heartbeat CPU 0 instructions: 610000000 cycles: 655118924 heartbeat IPC: 0.652401 cumulative IPC: 0.662697 (Simulation time: 2 hr 37 min 15 sec) 
Heartbeat CPU 3 instructions: 490000000 cycles: 659096579 heartbeat IPC: 0.546978 cumulative IPC: 0.509831 (Simulation time: 2 hr 37 min 58 sec) 
Heartbeat CPU 1 instructions: 700000000 cycles: 659407034 heartbeat IPC: 0.638533 cumulative IPC: 0.867924 (Simulation time: 2 hr 38 min 1 sec) 
Heartbeat CPU 2 instructions: 510000000 cycles: 670385601 heartbeat IPC: 0.475443 cumulative IPC: 0.544482 (Simulation time: 2 hr 39 min 56 sec) 
Heartbeat CPU 0 instructions: 620000000 cycles: 670430031 heartbeat IPC: 0.653121 cumulative IPC: 0.66244 (Simulation time: 2 hr 39 min 56 sec) 
Heartbeat CPU 1 instructions: 710000001 cycles: 674547027 heartbeat IPC: 0.660502 cumulative IPC: 0.862448 (Simulation time: 2 hr 40 min 43 sec) 
Heartbeat CPU 3 instructions: 500000000 cycles: 677049401 heartbeat IPC: 0.557015 cumulative IPC: 0.511302 (Simulation time: 2 hr 41 min 16 sec) 
Heartbeat CPU 1 instructions: 720000000 cycles: 683370331 heartbeat IPC: 1.13336 cumulative IPC: 0.866553 (Simulation time: 2 hr 42 min 36 sec) 
Heartbeat CPU 0 instructions: 630000002 cycles: 685696805 heartbeat IPC: 0.655017 cumulative IPC: 0.662246 (Simulation time: 2 hr 43 min 5 sec) 
Heartbeat CPU 2 instructions: 520000000 cycles: 688934576 heartbeat IPC: 0.539113 cumulative IPC: 0.544313 (Simulation time: 2 hr 43 min 42 sec) 
Heartbeat CPU 3 instructions: 510000000 cycles: 692619489 heartbeat IPC: 0.642257 cumulative IPC: 0.514749 (Simulation time: 2 hr 44 min 31 sec) 
Heartbeat CPU 1 instructions: 730000001 cycles: 692872257 heartbeat IPC: 1.05242 cumulative IPC: 0.869537 (Simulation time: 2 hr 44 min 34 sec) 
Heartbeat CPU 0 instructions: 640000000 cycles: 700959056 heartbeat IPC: 0.655211 cumulative IPC: 0.662067 (Simulation time: 2 hr 46 min 14 sec) 
Heartbeat CPU 1 instructions: 740000000 cycles: 702154957 heartbeat IPC: 1.07727 cumulative IPC: 0.872745 (Simulation time: 2 hr 46 min 28 sec) 
Heartbeat CPU 2 instructions: 530000000 cycles: 706487316 heartbeat IPC: 0.569712 cumulative IPC: 0.545049 (Simulation time: 2 hr 47 min 18 sec) 
Heartbeat CPU 3 instructions: 520000000 cycles: 707663187 heartbeat IPC: 0.66473 cumulative IPC: 0.518468 (Simulation time: 2 hr 47 min 33 sec) 
Heartbeat CPU 1 instructions: 750000001 cycles: 713388421 heartbeat IPC: 0.890197 cumulative IPC: 0.873065 (Simulation time: 2 hr 48 min 39 sec) 
Heartbeat CPU 0 instructions: 650000000 cycles: 716235657 heartbeat IPC: 0.654596 cumulative IPC: 0.661882 (Simulation time: 2 hr 49 min 17 sec) 
Heartbeat CPU 3 instructions: 530000000 cycles: 722099413 heartbeat IPC: 0.692702 cumulative IPC: 0.522518 (Simulation time: 2 hr 50 min 31 sec) 
Heartbeat CPU 1 instructions: 760000000 cycles: 722259180 heartbeat IPC: 1.1273 cumulative IPC: 0.876695 (Simulation time: 2 hr 50 min 33 sec) 
Heartbeat CPU 2 instructions: 540000000 cycles: 723979075 heartbeat IPC: 0.571698 cumulative IPC: 0.545797 (Simulation time: 2 hr 50 min 56 sec) 
Heartbeat CPU 0 instructions: 660000000 cycles: 731481840 heartbeat IPC: 0.655902 cumulative IPC: 0.661737 (Simulation time: 2 hr 52 min 32 sec) 
Heartbeat CPU 1 instructions: 770000001 cycles: 731770033 heartbeat IPC: 1.05143 cumulative IPC: 0.87933 (Simulation time: 2 hr 52 min 35 sec) 
Heartbeat CPU 3 instructions: 540000000 cycles: 735869816 heartbeat IPC: 0.726195 cumulative IPC: 0.526936 (Simulation time: 2 hr 53 min 26 sec) 
Heartbeat CPU 2 instructions: 550000002 cycles: 741620647 heartbeat IPC: 0.566843 cumulative IPC: 0.546377 (Simulation time: 2 hr 54 min 32 sec) 
Heartbeat CPU 1 instructions: 780000000 cycles: 742316702 heartbeat IPC: 0.948167 cumulative IPC: 0.880462 (Simulation time: 2 hr 54 min 40 sec) 
Heartbeat CPU 0 instructions: 670000000 cycles: 746769378 heartbeat IPC: 0.654128 cumulative IPC: 0.661557 (Simulation time: 2 hr 55 min 31 sec) 
Heartbeat CPU 3 instructions: 550000000 cycles: 749421209 heartbeat IPC: 0.737931 cumulative IPC: 0.531346 (Simulation time: 2 hr 56 min 3 sec) 
Heartbeat CPU 1 instructions: 790000000 cycles: 753784899 heartbeat IPC: 0.871977 cumulative IPC: 0.880313 (Simulation time: 2 hr 56 min 55 sec) 
Heartbeat CPU 2 instructions: 560000000 cycles: 760344096 heartbeat IPC: 0.53409 cumulative IPC: 0.546028 (Simulation time: 2 hr 58 min 21 sec) 
Heartbeat CPU 0 instructions: 680000000 cycles: 762220546 heartbeat IPC: 0.6472 cumulative IPC: 0.661221 (Simulation time: 2 hr 58 min 45 sec) 
Heartbeat CPU 3 instructions: 560000000 cycles: 762645629 heartbeat IPC: 0.756177 cumulative IPC: 0.53584 (Simulation time: 2 hr 58 min 50 sec) 
Heartbeat CPU 1 instructions: 800000000 cycles: 762670119 heartbeat IPC: 1.12546 cumulative IPC: 0.883605 (Simulation time: 2 hr 58 min 51 sec) 
Heartbeat CPU 1 instructions: 810000000 cycles: 772192416 heartbeat IPC: 1.05017 cumulative IPC: 0.885969 (Simulation time: 3 hr 0 min 55 sec) 
Heartbeat CPU 3 instructions: 570000001 cycles: 774955966 heartbeat IPC: 0.812326 cumulative IPC: 0.54089 (Simulation time: 3 hr 1 min 30 sec) 
Heartbeat CPU 0 instructions: 690000000 cycles: 777644765 heartbeat IPC: 0.648331 cumulative IPC: 0.660928 (Simulation time: 3 hr 2 min 1 sec) 
Heartbeat CPU 2 instructions: 570000000 cycles: 777794349 heartbeat IPC: 0.573058 cumulative IPC: 0.546725 (Simulation time: 3 hr 2 min 3 sec) 
Heartbeat CPU 1 instructions: 820000000 cycles: 782439842 heartbeat IPC: 0.975855 cumulative IPC: 0.88732 (Simulation time: 3 hr 3 min 0 sec) 
Heartbeat CPU 3 instructions: 580000000 cycles: 787612656 heartbeat IPC: 0.790096 cumulative IPC: 0.545484 (Simulation time: 3 hr 4 min 0 sec) 
Heartbeat CPU 0 instructions: 700000000 cycles: 793092486 heartbeat IPC: 0.647345 cumulative IPC: 0.660624 (Simulation time: 3 hr 5 min 7 sec) 
Heartbeat CPU 1 instructions: 830000002 cycles: 793752329 heartbeat IPC: 0.883979 cumulative IPC: 0.887266 (Simulation time: 3 hr 5 min 15 sec) 
Heartbeat CPU 2 instructions: 580000000 cycles: 795629729 heartbeat IPC: 0.560683 cumulative IPC: 0.547083 (Simulation time: 3 hr 5 min 41 sec) 
Heartbeat CPU 3 instructions: 590000003 cycles: 799756252 heartbeat IPC: 0.82348 cumulative IPC: 0.550316 (Simulation time: 3 hr 6 min 37 sec) 
Heartbeat CPU 1 instructions: 840000000 cycles: 802687689 heartbeat IPC: 1.11915 cumulative IPC: 0.890219 (Simulation time: 3 hr 7 min 23 sec) 
Heartbeat CPU 0 instructions: 710000000 cycles: 808506658 heartbeat IPC: 0.648754 cumulative IPC: 0.660366 (Simulation time: 3 hr 8 min 38 sec) 
Heartbeat CPU 3 instructions: 600000000 cycles: 811471723 heartbeat IPC: 0.853572 cumulative IPC: 0.555317 (Simulation time: 3 hr 9 min 20 sec) 
Heartbeat CPU 1 instructions: 850000000 cycles: 812197874 heartbeat IPC: 1.0515 cumulative IPC: 0.892376 (Simulation time: 3 hr 9 min 31 sec) 
Heartbeat CPU 2 instructions: 590000002 cycles: 812332144 heartbeat IPC: 0.598716 cumulative IPC: 0.548296 (Simulation time: 3 hr 9 min 33 sec) 
Heartbeat CPU 3 instructions: 610000002 cycles: 822685776 heartbeat IPC: 0.891738 cumulative IPC: 0.560545 (Simulation time: 3 hr 11 min 44 sec) 
Heartbeat CPU 1 instructions: 860000000 cycles: 823027677 heartbeat IPC: 0.923378 cumulative IPC: 0.892841 (Simulation time: 3 hr 11 min 48 sec) 
Heartbeat CPU 0 instructions: 720000000 cycles: 823928942 heartbeat IPC: 0.648412 cumulative IPC: 0.660111 (Simulation time: 3 hr 11 min 58 sec) 
Heartbeat CPU 2 instructions: 600000000 cycles: 830459665 heartbeat IPC: 0.551647 cumulative IPC: 0.548379 (Simulation time: 3 hr 13 min 19 sec) 
Heartbeat CPU 3 instructions: 620000000 cycles: 834391209 heartbeat IPC: 0.854304 cumulative IPC: 0.565233 (Simulation time: 3 hr 14 min 14 sec) 
Heartbeat CPU 1 instructions: 870000001 cycles: 834553846 heartbeat IPC: 0.867591 cumulative IPC: 0.892444 (Simulation time: 3 hr 14 min 16 sec) 
Heartbeat CPU 0 instructions: 730000001 cycles: 839367308 heartbeat IPC: 0.647737 cumulative IPC: 0.659852 (Simulation time: 3 hr 15 min 28 sec) 
Heartbeat CPU 1 instructions: 880000000 cycles: 843460495 heartbeat IPC: 1.12276 cumulative IPC: 0.895207 (Simulation time: 3 hr 16 min 26 sec) 
Heartbeat CPU 3 instructions: 630000002 cycles: 845264646 heartbeat IPC: 0.919673 cumulative IPC: 0.570412 (Simulation time: 3 hr 16 min 50 sec) 
Heartbeat CPU 2 instructions: 610000002 cycles: 847822940 heartbeat IPC: 0.575928 cumulative IPC: 0.54902 (Simulation time: 3 hr 17 min 23 sec) 
Heartbeat CPU 1 instructions: 890000002 cycles: 853022738 heartbeat IPC: 1.04578 cumulative IPC: 0.897121 (Simulation time: 3 hr 18 min 42 sec) 
Heartbeat CPU 0 instructions: 740000000 cycles: 854764950 heartbeat IPC: 0.64945 cumulative IPC: 0.659639 (Simulation time: 3 hr 19 min 5 sec) 
Heartbeat CPU 3 instructions: 640000000 cycles: 856173519 heartbeat IPC: 0.916685 cumulative IPC: 0.575414 (Simulation time: 3 hr 19 min 26 sec) 
Heartbeat CPU 1 instructions: 900000000 cycles: 863909517 heartbeat IPC: 0.918545 cumulative IPC: 0.897427 (Simulation time: 3 hr 21 min 3 sec) 
Heartbeat CPU 2 instructions: 620000000 cycles: 864430904 heartbeat IPC: 0.602121 cumulative IPC: 0.550175 (Simulation time: 3 hr 21 min 10 sec) 
Heartbeat CPU 3 instructions: 650000001 cycles: 867166032 heartbeat IPC: 0.90971 cumulative IPC: 0.580211 (Simulation time: 3 hr 21 min 45 sec) 
Heartbeat CPU 0 instructions: 750000000 cycles: 870181366 heartbeat IPC: 0.648659 cumulative IPC: 0.659419 (Simulation time: 3 hr 22 min 28 sec) 
Heartbeat CPU 3 instructions: 660000000 cycles: 877634026 heartbeat IPC: 0.955293 cumulative IPC: 0.585267 (Simulation time: 3 hr 24 min 6 sec) 
Heartbeat CPU 1 instructions: 910000000 cycles: 878202960 heartbeat IPC: 0.699621 cumulative IPC: 0.893789 (Simulation time: 3 hr 24 min 13 sec) 
Heartbeat CPU 2 instructions: 630000000 cycles: 881386137 heartbeat IPC: 0.589788 cumulative IPC: 0.551036 (Simulation time: 3 hr 24 min 55 sec) 
Heartbeat CPU 0 instructions: 760000000 cycles: 885579104 heartbeat IPC: 0.649446 cumulative IPC: 0.659224 (Simulation time: 3 hr 25 min 47 sec) 
Heartbeat CPU 3 instructions: 670000001 cycles: 888079411 heartbeat IPC: 0.957361 cumulative IPC: 0.590205 (Simulation time: 3 hr 26 min 26 sec) 
Heartbeat CPU 1 instructions: 920000000 cycles: 893156536 heartbeat IPC: 0.668736 cumulative IPC: 0.889541 (Simulation time: 3 hr 27 min 27 sec) 
Heartbeat CPU 2 instructions: 640000000 cycles: 897776830 heartbeat IPC: 0.610102 cumulative IPC: 0.552251 (Simulation time: 3 hr 28 min 25 sec) 
Heartbeat CPU 3 instructions: 680000000 cycles: 898256567 heartbeat IPC: 0.982593 cumulative IPC: 0.595214 (Simulation time: 3 hr 28 min 32 sec) 
Heartbeat CPU 0 instructions: 770000001 cycles: 900977161 heartbeat IPC: 0.649433 cumulative IPC: 0.659035 (Simulation time: 3 hr 29 min 5 sec) 
Heartbeat CPU 1 instructions: 930000000 cycles: 908114098 heartbeat IPC: 0.668558 cumulative IPC: 0.885445 (Simulation time: 3 hr 30 min 46 sec) 
Heartbeat CPU 3 instructions: 690000000 cycles: 908619588 heartbeat IPC: 0.96497 cumulative IPC: 0.599959 (Simulation time: 3 hr 30 min 52 sec) 
Heartbeat CPU 2 instructions: 650000000 cycles: 913686896 heartbeat IPC: 0.628533 cumulative IPC: 0.553744 (Simulation time: 3 hr 31 min 51 sec) 
Heartbeat CPU 0 instructions: 780000000 cycles: 916350797 heartbeat IPC: 0.650464 cumulative IPC: 0.658874 (Simulation time: 3 hr 32 min 22 sec) 
Heartbeat CPU 3 instructions: 700000000 cycles: 919010254 heartbeat IPC: 0.962402 cumulative IPC: 0.604563 (Simulation time: 3 hr 32 min 53 sec) 
Heartbeat CPU 1 instructions: 940000000 cycles: 923050911 heartbeat IPC: 0.669487 cumulative IPC: 0.881521 (Simulation time: 3 hr 33 min 43 sec) 
Heartbeat CPU 3 instructions: 710000001 cycles: 929509840 heartbeat IPC: 0.952419 cumulative IPC: 0.608971 (Simulation time: 3 hr 35 min 7 sec) 
Heartbeat CPU 2 instructions: 660000000 cycles: 929548017 heartbeat IPC: 0.630472 cumulative IPC: 0.555213 (Simulation time: 3 hr 35 min 7 sec) 
Heartbeat CPU 0 instructions: 790000002 cycles: 931737099 heartbeat IPC: 0.649929 cumulative IPC: 0.658708 (Simulation time: 3 hr 35 min 39 sec) 
Heartbeat CPU 1 instructions: 950000002 cycles: 938897608 heartbeat IPC: 0.631046 cumulative IPC: 0.876784 (Simulation time: 3 hr 37 min 16 sec) 
Heartbeat CPU 3 instructions: 720000000 cycles: 939819940 heartbeat IPC: 0.969923 cumulative IPC: 0.613408 (Simulation time: 3 hr 37 min 29 sec) 
Heartbeat CPU 2 instructions: 670000000 cycles: 945315629 heartbeat IPC: 0.634211 cumulative IPC: 0.556688 (Simulation time: 3 hr 38 min 45 sec) 
Heartbeat CPU 0 instructions: 800000000 cycles: 947115962 heartbeat IPC: 0.650243 cumulative IPC: 0.658554 (Simulation time: 3 hr 39 min 12 sec) 
Heartbeat CPU 3 instructions: 730000000 cycles: 950009078 heartbeat IPC: 0.981437 cumulative IPC: 0.617825 (Simulation time: 3 hr 39 min 51 sec) 
Heartbeat CPU 1 instructions: 960000000 cycles: 954363846 heartbeat IPC: 0.646569 cumulative IPC: 0.872611 (Simulation time: 3 hr 40 min 43 sec) 
Heartbeat CPU 3 instructions: 740000000 cycles: 960314609 heartbeat IPC: 0.970353 cumulative IPC: 0.622053 (Simulation time: 3 hr 42 min 2 sec) 
Heartbeat CPU 2 instructions: 680000000 cycles: 961968172 heartbeat IPC: 0.600509 cumulative IPC: 0.557536 (Simulation time: 3 hr 42 min 23 sec) 
Heartbeat CPU 0 instructions: 810000000 cycles: 962475464 heartbeat IPC: 0.651063 cumulative IPC: 0.65842 (Simulation time: 3 hr 42 min 30 sec) 
Heartbeat CPU 1 instructions: 970000002 cycles: 969838423 heartbeat IPC: 0.646221 cumulative IPC: 0.868579 (Simulation time: 3 hr 44 min 11 sec) 
Heartbeat CPU 3 instructions: 750000001 cycles: 970620911 heartbeat IPC: 0.97028 cumulative IPC: 0.62618 (Simulation time: 3 hr 44 min 22 sec) 
Heartbeat CPU 2 instructions: 690000002 cycles: 977508273 heartbeat IPC: 0.643497 cumulative IPC: 0.55906 (Simulation time: 3 hr 45 min 49 sec) 
Heartbeat CPU 0 instructions: 820000000 cycles: 977848835 heartbeat IPC: 0.650475 cumulative IPC: 0.658281 (Simulation time: 3 hr 45 min 53 sec) 
Heartbeat CPU 3 instructions: 760000000 cycles: 980805384 heartbeat IPC: 0.981887 cumulative IPC: 0.630298 (Simulation time: 3 hr 46 min 28 sec) 
Heartbeat CPU 1 instructions: 980000000 cycles: 984805625 heartbeat IPC: 0.668127 cumulative IPC: 0.865184 (Simulation time: 3 hr 47 min 16 sec) 
Heartbeat CPU 3 instructions: 770000001 cycles: 990986651 heartbeat IPC: 0.982196 cumulative IPC: 0.634324 (Simulation time: 3 hr 48 min 33 sec) 
Heartbeat CPU 0 instructions: 830000000 cycles: 993214600 heartbeat IPC: 0.650797 cumulative IPC: 0.658152 (Simulation time: 3 hr 49 min 3 sec) 
Heartbeat CPU 2 instructions: 700000000 cycles: 993338033 heartbeat IPC: 0.631721 cumulative IPC: 0.560349 (Simulation time: 3 hr 49 min 5 sec) 
Heartbeat CPU 1 instructions: 990000000 cycles: 999789066 heartbeat IPC: 0.667403 cumulative IPC: 0.861887 (Simulation time: 3 hr 50 min 28 sec) 
Heartbeat CPU 3 instructions: 780000000 cycles: 1001043292 heartbeat IPC: 0.994368 cumulative IPC: 0.638347 (Simulation time: 3 hr 50 min 43 sec) 
Heartbeat CPU 0 instructions: 840000000 cycles: 1008554902 heartbeat IPC: 0.651878 cumulative IPC: 0.658046 (Simulation time: 3 hr 52 min 14 sec) 
Heartbeat CPU 2 instructions: 710000001 cycles: 1010192555 heartbeat IPC: 0.593313 cumulative IPC: 0.56096 (Simulation time: 3 hr 52 min 33 sec) 
Heartbeat CPU 3 instructions: 790000002 cycles: 1011464165 heartbeat IPC: 0.959613 cumulative IPC: 0.642024 (Simulation time: 3 hr 52 min 49 sec) 
Heartbeat CPU 1 instructions: 1000000000 cycles: 1013703545 heartbeat IPC: 0.718676 cumulative IPC: 0.859703 (Simulation time: 3 hr 53 min 18 sec) 
Heartbeat CPU 3 instructions: 800000000 cycles: 1021582720 heartbeat IPC: 0.988283 cumulative IPC: 0.64583 (Simulation time: 3 hr 54 min 54 sec) 
Heartbeat CPU 0 instructions: 850000000 cycles: 1023904863 heartbeat IPC: 0.651467 cumulative IPC: 0.657937 (Simulation time: 3 hr 55 min 21 sec) 
Heartbeat CPU 2 instructions: 720000000 cycles: 1026033499 heartbeat IPC: 0.631275 cumulative IPC: 0.562164 (Simulation time: 3 hr 55 min 47 sec) 
Heartbeat CPU 1 instructions: 1010000000 cycles: 1029011675 heartbeat IPC: 0.653248 cumulative IPC: 0.856298 (Simulation time: 3 hr 56 min 22 sec) 
Heartbeat CPU 3 instructions: 810000001 cycles: 1031812072 heartbeat IPC: 0.977579 cumulative IPC: 0.649476 (Simulation time: 3 hr 56 min 53 sec) 
Heartbeat CPU 0 instructions: 860000000 cycles: 1039248222 heartbeat IPC: 0.651748 cumulative IPC: 0.657836 (Simulation time: 3 hr 58 min 22 sec) 
Heartbeat CPU 2 instructions: 730000002 cycles: 1041776254 heartbeat IPC: 0.635213 cumulative IPC: 0.563387 (Simulation time: 3 hr 58 min 55 sec) 
Heartbeat CPU 3 instructions: 820000000 cycles: 1042061967 heartbeat IPC: 0.97562 cumulative IPC: 0.653029 (Simulation time: 3 hr 58 min 58 sec) 
Heartbeat CPU 1 instructions: 1020000000 cycles: 1043307116 heartbeat IPC: 0.699524 cumulative IPC: 0.853919 (Simulation time: 3 hr 59 min 13 sec) 
Heartbeat CPU 3 instructions: 830000002 cycles: 1052084584 heartbeat IPC: 0.997744 cumulative IPC: 0.656662 (Simulation time: 4 hr 1 min 0 sec) 
Heartbeat CPU 0 instructions: 870000001 cycles: 1054582097 heartbeat IPC: 0.652151 cumulative IPC: 0.657744 (Simulation time: 4 hr 1 min 29 sec) 
Heartbeat CPU 2 instructions: 740000000 cycles: 1057963860 heartbeat IPC: 0.617756 cumulative IPC: 0.564307 (Simulation time: 4 hr 2 min 12 sec) 
Heartbeat CPU 1 instructions: 1030000000 cycles: 1058324799 heartbeat IPC: 0.665882 cumulative IPC: 0.850969 (Simulation time: 4 hr 2 min 16 sec) 
Heartbeat CPU 3 instructions: 840000000 cycles: 1062343673 heartbeat IPC: 0.974745 cumulative IPC: 0.660056 (Simulation time: 4 hr 3 min 4 sec) 
Heartbeat CPU 0 instructions: 880000000 cycles: 1069918374 heartbeat IPC: 0.652049 cumulative IPC: 0.657654 (Simulation time: 4 hr 4 min 36 sec) 
Heartbeat CPU 3 instructions: 850000000 cycles: 1072427044 heartbeat IPC: 0.991732 cumulative IPC: 0.663499 (Simulation time: 4 hr 5 min 7 sec) 
Heartbeat CPU 1 instructions: 1040000000 cycles: 1072576172 heartbeat IPC: 0.701687 cumulative IPC: 0.84878 (Simulation time: 4 hr 5 min 9 sec) 
Heartbeat CPU 2 instructions: 750000003 cycles: 1074649476 heartbeat IPC: 0.599319 cumulative IPC: 0.564907 (Simulation time: 4 hr 5 min 33 sec) 
Heartbeat CPU 3 instructions: 860000000 cycles: 1082614300 heartbeat IPC: 0.981619 cumulative IPC: 0.666801 (Simulation time: 4 hr 7 min 8 sec) 
Heartbeat CPU 0 instructions: 890000001 cycles: 1085253638 heartbeat IPC: 0.652092 cumulative IPC: 0.657567 (Simulation time: 4 hr 7 min 41 sec) 
Heartbeat CPU 1 instructions: 1050000000 cycles: 1087743475 heartbeat IPC: 0.659313 cumulative IPC: 0.845867 (Simulation time: 4 hr 8 min 11 sec) 
Heartbeat CPU 2 instructions: 760000000 cycles: 1090925027 heartbeat IPC: 0.614418 cumulative IPC: 0.565721 (Simulation time: 4 hr 8 min 49 sec) 
Heartbeat CPU 3 instructions: 870000003 cycles: 1092780320 heartbeat IPC: 0.983669 cumulative IPC: 0.670049 (Simulation time: 4 hr 9 min 12 sec) 
Heartbeat CPU 0 instructions: 900000000 cycles: 1100577834 heartbeat IPC: 0.652563 cumulative IPC: 0.657491 (Simulation time: 4 hr 10 min 47 sec) 
Heartbeat CPU 1 instructions: 1060000000 cycles: 1101928995 heartbeat IPC: 0.704944 cumulative IPC: 0.84387 (Simulation time: 4 hr 11 min 4 sec) 
Heartbeat CPU 3 instructions: 880000000 cycles: 1103000682 heartbeat IPC: 0.978439 cumulative IPC: 0.673194 (Simulation time: 4 hr 11 min 16 sec) 
Heartbeat CPU 2 instructions: 770000000 cycles: 1106620249 heartbeat IPC: 0.637137 cumulative IPC: 0.566835 (Simulation time: 4 hr 11 min 58 sec) 
Heartbeat CPU 3 instructions: 890000003 cycles: 1113079254 heartbeat IPC: 0.992204 cumulative IPC: 0.676371 (Simulation time: 4 hr 13 min 17 sec) 
Heartbeat CPU 0 instructions: 910000002 cycles: 1115445108 heartbeat IPC: 0.672618 cumulative IPC: 0.657712 (Simulation time: 4 hr 13 min 47 sec) 
Heartbeat CPU 1 instructions: 1070000003 cycles: 1117312775 heartbeat IPC: 0.650036 cumulative IPC: 0.840936 (Simulation time: 4 hr 14 min 9 sec) 
Heartbeat CPU 2 instructions: 780000000 cycles: 1122650952 heartbeat IPC: 0.623803 cumulative IPC: 0.567729 (Simulation time: 4 hr 15 min 16 sec) 
Heartbeat CPU 3 instructions: 900000000 cycles: 1123316590 heartbeat IPC: 0.976816 cumulative IPC: 0.67938 (Simulation time: 4 hr 15 min 24 sec) 
Heartbeat CPU 0 instructions: 920000000 cycles: 1129480887 heartbeat IPC: 0.712465 cumulative IPC: 0.65846 (Simulation time: 4 hr 16 min 41 sec) 
Heartbeat CPU 1 instructions: 1080000000 cycles: 1131528048 heartbeat IPC: 0.703469 cumulative IPC: 0.839039 (Simulation time: 4 hr 17 min 7 sec) 
Heartbeat CPU 3 instructions: 910000002 cycles: 1133399787 heartbeat IPC: 0.991749 cumulative IPC: 0.682431 (Simulation time: 4 hr 17 min 30 sec) 
Heartbeat CPU 2 instructions: 790000001 cycles: 1138967795 heartbeat IPC: 0.612864 cumulative IPC: 0.568439 (Simulation time: 4 hr 18 min 41 sec) 
Heartbeat CPU 0 instructions: 930000001 cycles: 1141825865 heartbeat IPC: 0.810046 cumulative IPC: 0.660258 (Simulation time: 4 hr 19 min 17 sec) 
Heartbeat CPU 3 instructions: 920000000 cycles: 1143626840 heartbeat IPC: 0.977799 cumulative IPC: 0.685328 (Simulation time: 4 hr 19 min 41 sec) 
Heartbeat CPU 1 instructions: 1090000002 cycles: 1146992432 heartbeat IPC: 0.646647 cumulative IPC: 0.836195 (Simulation time: 4 hr 20 min 23 sec) 
Heartbeat CPU 3 instructions: 930000001 cycles: 1153673008 heartbeat IPC: 0.995405 cumulative IPC: 0.688288 (Simulation time: 4 hr 21 min 46 sec) 
Heartbeat CPU 0 instructions: 940000000 cycles: 1154147936 heartbeat IPC: 0.811552 cumulative IPC: 0.662028 (Simulation time: 4 hr 21 min 51 sec) 
Heartbeat CPU 2 instructions: 800000000 cycles: 1155801138 heartbeat IPC: 0.594059 cumulative IPC: 0.568848 (Simulation time: 4 hr 22 min 10 sec) 
Heartbeat CPU 1 instructions: 1100000000 cycles: 1161566958 heartbeat IPC: 0.686128 cumulative IPC: 0.834133 (Simulation time: 4 hr 23 min 20 sec) 
Heartbeat CPU 3 instructions: 940000000 cycles: 1163809046 heartbeat IPC: 0.986579 cumulative IPC: 0.691133 (Simulation time: 4 hr 23 min 47 sec) 
Heartbeat CPU 0 instructions: 950000002 cycles: 1166475154 heartbeat IPC: 0.811213 cumulative IPC: 0.663754 (Simulation time: 4 hr 24 min 20 sec) 
Heartbeat CPU 2 instructions: 810000001 cycles: 1172089625 heartbeat IPC: 0.613931 cumulative IPC: 0.569533 (Simulation time: 4 hr 25 min 27 sec) 
Heartbeat CPU 1 instructions: 1110000000 cycles: 1176656295 heartbeat IPC: 0.66272 cumulative IPC: 0.831728 (Simulation time: 4 hr 26 min 12 sec) 
Heartbeat CPU 0 instructions: 960000000 cycles: 1178775811 heartbeat IPC: 0.812965 cumulative IPC: 0.665457 (Simulation time: 4 hr 26 min 31 sec) 
Heartbeat CPU 3 instructions: 950000003 cycles: 1188570351 heartbeat IPC: 0.403856 cumulative IPC: 0.684592 (Simulation time: 4 hr 28 min 9 sec) 
Heartbeat CPU 2 instructions: 820000000 cycles: 1190012772 heartbeat IPC: 0.557938 cumulative IPC: 0.569342 (Simulation time: 4 hr 28 min 26 sec) 
Heartbeat CPU 0 instructions: 970000000 cycles: 1191067576 heartbeat IPC: 0.813553 cumulative IPC: 0.667127 (Simulation time: 4 hr 28 min 37 sec) 
Heartbeat CPU 1 instructions: 1120000000 cycles: 1192302227 heartbeat IPC: 0.639144 cumulative IPC: 0.828967 (Simulation time: 4 hr 28 min 49 sec) 
Heartbeat CPU 0 instructions: 980000000 cycles: 1203342040 heartbeat IPC: 0.8147 cumulative IPC: 0.66877 (Simulation time: 4 hr 30 min 51 sec) 
Heartbeat CPU 1 instructions: 1130000001 cycles: 1207034493 heartbeat IPC: 0.678782 cumulative IPC: 0.826966 (Simulation time: 4 hr 31 min 40 sec) 
Heartbeat CPU 2 instructions: 830000001 cycles: 1207911286 heartbeat IPC: 0.558706 cumulative IPC: 0.56917 (Simulation time: 4 hr 31 min 51 sec) 
Heartbeat CPU 3 instructions: 960000000 cycles: 1208334647 heartbeat IPC: 0.505963 cumulative IPC: 0.681403 (Simulation time: 4 hr 31 min 57 sec) 
Heartbeat CPU 0 instructions: 990000002 cycles: 1215616987 heartbeat IPC: 0.814668 cumulative IPC: 0.670377 (Simulation time: 4 hr 33 min 30 sec) 
Heartbeat CPU 3 instructions: 970000000 cycles: 1218454827 heartbeat IPC: 0.988125 cumulative IPC: 0.684181 (Simulation time: 4 hr 34 min 4 sec) 
Heartbeat CPU 1 instructions: 1140000000 cycles: 1222549692 heartbeat IPC: 0.644529 cumulative IPC: 0.824442 (Simulation time: 4 hr 34 min 57 sec) 
Heartbeat CPU 2 instructions: 840000000 cycles: 1224967574 heartbeat IPC: 0.586294 cumulative IPC: 0.56943 (Simulation time: 4 hr 35 min 27 sec) 
Heartbeat CPU 0 instructions: 1000000000 cycles: 1227881586 heartbeat IPC: 0.815355 cumulative IPC: 0.671955 (Simulation time: 4 hr 36 min 5 sec) 
Heartbeat CPU 3 instructions: 980000000 cycles: 1228672621 heartbeat IPC: 0.978685 cumulative IPC: 0.68685 (Simulation time: 4 hr 36 min 15 sec) 
Heartbeat CPU 1 instructions: 1150000003 cycles: 1237223081 heartbeat IPC: 0.681506 cumulative IPC: 0.822596 (Simulation time: 4 hr 38 min 5 sec) 
Heartbeat CPU 3 instructions: 990000001 cycles: 1238849287 heartbeat IPC: 0.98264 cumulative IPC: 0.689495 (Simulation time: 4 hr 38 min 25 sec) 
Heartbeat CPU 0 instructions: 1010000003 cycles: 1240146044 heartbeat IPC: 0.815364 cumulative IPC: 0.673499 (Simulation time: 4 hr 38 min 40 sec) 
Heartbeat CPU 2 instructions: 850000000 cycles: 1241445270 heartbeat IPC: 0.606881 cumulative IPC: 0.569971 (Simulation time: 4 hr 38 min 56 sec) 
Heartbeat CPU 3 instructions: 1000000000 cycles: 1248920009 heartbeat IPC: 0.992977 cumulative IPC: 0.692158 (Simulation time: 4 hr 40 min 32 sec) 
Heartbeat CPU 0 instructions: 1020000000 cycles: 1252389290 heartbeat IPC: 0.816777 cumulative IPC: 0.675022 (Simulation time: 4 hr 41 min 18 sec) 
Heartbeat CPU 1 instructions: 1160000000 cycles: 1252844281 heartbeat IPC: 0.640155 cumulative IPC: 0.820122 (Simulation time: 4 hr 41 min 23 sec) 
Heartbeat CPU 2 instructions: 860000000 cycles: 1257478400 heartbeat IPC: 0.623709 cumulative IPC: 0.570717 (Simulation time: 4 hr 42 min 22 sec) 
Heartbeat CPU 3 instructions: 1010000000 cycles: 1259120125 heartbeat IPC: 0.980381 cumulative IPC: 0.694697 (Simulation time: 4 hr 42 min 44 sec) 
Heartbeat CPU 0 instructions: 1030000003 cycles: 1264641063 heartbeat IPC: 0.816209 cumulative IPC: 0.676509 (Simulation time: 4 hr 43 min 53 sec) 
Heartbeat CPU 1 instructions: 1170000002 cycles: 1268228439 heartbeat IPC: 0.650019 cumulative IPC: 0.81788 (Simulation time: 4 hr 44 min 39 sec) 
Heartbeat CPU 3 instructions: 1020000000 cycles: 1269281712 heartbeat IPC: 0.984098 cumulative IPC: 0.697214 (Simulation time: 4 hr 44 min 52 sec) 
Heartbeat CPU 2 instructions: 870000002 cycles: 1273390069 heartbeat IPC: 0.62847 cumulative IPC: 0.5715 (Simulation time: 4 hr 45 min 45 sec) 
Heartbeat CPU 0 instructions: 1040000000 cycles: 1276876428 heartbeat IPC: 0.817303 cumulative IPC: 0.677974 (Simulation time: 4 hr 46 min 28 sec) 
Heartbeat CPU 3 instructions: 1030000000 cycles: 1279540515 heartbeat IPC: 0.974773 cumulative IPC: 0.69963 (Simulation time: 4 hr 47 min 3 sec) 
Heartbeat CPU 1 instructions: 1180000000 cycles: 1282802902 heartbeat IPC: 0.686131 cumulative IPC: 0.816255 (Simulation time: 4 hr 47 min 45 sec) 
Heartbeat CPU 0 instructions: 1050000003 cycles: 1289115596 heartbeat IPC: 0.817049 cumulative IPC: 0.679407 (Simulation time: 4 hr 49 min 6 sec) 
Heartbeat CPU 3 instructions: 1040000000 cycles: 1289627015 heartbeat IPC: 0.991424 cumulative IPC: 0.702106 (Simulation time: 4 hr 49 min 12 sec) 
Heartbeat CPU 2 instructions: 880000000 cycles: 1289770796 heartbeat IPC: 0.610473 cumulative IPC: 0.572037 (Simulation time: 4 hr 49 min 14 sec) 
Heartbeat CPU 1 instructions: 1190000002 cycles: 1298446223 heartbeat IPC: 0.639251 cumulative IPC: 0.813943 (Simulation time: 4 hr 51 min 3 sec) 
Heartbeat CPU 3 instructions: 1050000000 cycles: 1299801999 heartbeat IPC: 0.982803 cumulative IPC: 0.704489 (Simulation time: 4 hr 51 min 20 sec) 
Heartbeat CPU 0 instructions: 1060000000 cycles: 1301351095 heartbeat IPC: 0.817294 cumulative IPC: 0.680812 (Simulation time: 4 hr 51 min 41 sec) 
Heartbeat CPU 2 instructions: 890000001 cycles: 1306598886 heartbeat IPC: 0.594245 cumulative IPC: 0.572347 (Simulation time: 4 hr 52 min 47 sec) 
Heartbeat CPU 3 instructions: 1060000000 cycles: 1309986824 heartbeat IPC: 0.981853 cumulative IPC: 0.706825 (Simulation time: 4 hr 53 min 31 sec) 
Heartbeat CPU 1 instructions: 1200000000 cycles: 1313067785 heartbeat IPC: 0.683921 cumulative IPC: 0.812374 (Simulation time: 4 hr 54 min 11 sec) 
Heartbeat CPU 0 instructions: 1070000000 cycles: 1313571605 heartbeat IPC: 0.818296 cumulative IPC: 0.682198 (Simulation time: 4 hr 54 min 17 sec) 
Heartbeat CPU 3 instructions: 1070000002 cycles: 1320109245 heartbeat IPC: 0.987906 cumulative IPC: 0.709159 (Simulation time: 4 hr 55 min 40 sec) 
Heartbeat CPU 2 instructions: 900000000 cycles: 1322773427 heartbeat IPC: 0.618255 cumulative IPC: 0.572955 (Simulation time: 4 hr 56 min 13 sec) 
Heartbeat CPU 0 instructions: 1080000000 cycles: 1325796023 heartbeat IPC: 0.818035 cumulative IPC: 0.683554 (Simulation time: 4 hr 56 min 53 sec) 
Heartbeat CPU 1 instructions: 1210000002 cycles: 1328957417 heartbeat IPC: 0.629341 cumulative IPC: 0.810006 (Simulation time: 4 hr 57 min 31 sec) 
Heartbeat CPU 3 instructions: 1080000000 cycles: 1330200021 heartbeat IPC: 0.991004 cumulative IPC: 0.711473 (Simulation time: 4 hr 57 min 47 sec) 
Finished CPU 1 instructions: 1000000001 cycles: 1235665878 cumulative IPC: 0.80928 (Simulation time: 4 hr 59 min 9 sec) 
Heartbeat CPU 0 instructions: 1090000002 cycles: 1338005216 heartbeat IPC: 0.819055 cumulative IPC: 0.684891 (Simulation time: 4 hr 59 min 26 sec) 
Heartbeat CPU 2 instructions: 910000003 cycles: 1338641081 heartbeat IPC: 0.630213 cumulative IPC: 0.573689 (Simulation time: 4 hr 59 min 35 sec) 
Heartbeat CPU 3 instructions: 1090000001 cycles: 1340335999 heartbeat IPC: 0.986585 cumulative IPC: 0.713723 (Simulation time: 4 hr 59 min 57 sec) 
Heartbeat CPU 1 instructions: 1220000000 cycles: 1343566164 heartbeat IPC: 0.684521 cumulative IPC: 0.80853 (Simulation time: 5 hr 0 min 37 sec) 
Heartbeat CPU 0 instructions: 1100000000 cycles: 1350217909 heartbeat IPC: 0.81882 cumulative IPC: 0.686201 (Simulation time: 5 hr 2 min 12 sec) 
Heartbeat CPU 3 instructions: 1100000000 cycles: 1350511689 heartbeat IPC: 0.982734 cumulative IPC: 0.715914 (Simulation time: 5 hr 2 min 17 sec) 
Heartbeat CPU 2 instructions: 920000000 cycles: 1355018607 heartbeat IPC: 0.610593 cumulative IPC: 0.574171 (Simulation time: 5 hr 3 min 25 sec) 
Heartbeat CPU 1 instructions: 1230000002 cycles: 1359164275 heartbeat IPC: 0.641103 cumulative IPC: 0.806455 (Simulation time: 5 hr 4 min 19 sec) 
Heartbeat CPU 3 instructions: 1110000001 cycles: 1360638582 heartbeat IPC: 0.98747 cumulative IPC: 0.718097 (Simulation time: 5 hr 4 min 39 sec) 
Heartbeat CPU 0 instructions: 1110000003 cycles: 1362429535 heartbeat IPC: 0.818892 cumulative IPC: 0.687485 (Simulation time: 5 hr 5 min 2 sec) 
Heartbeat CPU 3 instructions: 1120000000 cycles: 1370998937 heartbeat IPC: 0.965218 cumulative IPC: 0.720113 (Simulation time: 5 hr 6 min 49 sec) 
Heartbeat CPU 2 instructions: 930000000 cycles: 1371870713 heartbeat IPC: 0.593398 cumulative IPC: 0.574426 (Simulation time: 5 hr 7 min 0 sec) 
Heartbeat CPU 1 instructions: 1240000000 cycles: 1373787154 heartbeat IPC: 0.68386 cumulative IPC: 0.805046 (Simulation time: 5 hr 7 min 23 sec) 
Heartbeat CPU 0 instructions: 1120000000 cycles: 1374636336 heartbeat IPC: 0.819215 cumulative IPC: 0.688748 (Simulation time: 5 hr 7 min 34 sec) 
Heartbeat CPU 3 instructions: 1130000001 cycles: 1381875339 heartbeat IPC: 0.919422 cumulative IPC: 0.721806 (Simulation time: 5 hr 9 min 9 sec) 
Heartbeat CPU 0 instructions: 1130000000 cycles: 1386847080 heartbeat IPC: 0.818951 cumulative IPC: 0.689984 (Simulation time: 5 hr 10 min 12 sec) 
Heartbeat CPU 2 instructions: 940000000 cycles: 1388796679 heartbeat IPC: 0.590808 cumulative IPC: 0.574642 (Simulation time: 5 hr 10 min 34 sec) 
Heartbeat CPU 1 instructions: 1250000002 cycles: 1389327971 heartbeat IPC: 0.643467 cumulative IPC: 0.803097 (Simulation time: 5 hr 10 min 41 sec) 
Heartbeat CPU 3 instructions: 1140000000 cycles: 1393795950 heartbeat IPC: 0.838883 cumulative IPC: 0.722885 (Simulation time: 5 hr 11 min 37 sec) 
Heartbeat CPU 0 instructions: 1140000000 cycles: 1399032871 heartbeat IPC: 0.820628 cumulative IPC: 0.691211 (Simulation time: 5 hr 12 min 41 sec) 
Heartbeat CPU 1 instructions: 1260000000 cycles: 1403955843 heartbeat IPC: 0.683626 cumulative IPC: 0.801756 (Simulation time: 5 hr 13 min 39 sec) 
Heartbeat CPU 2 instructions: 950000000 cycles: 1405411059 heartbeat IPC: 0.601888 cumulative IPC: 0.574989 (Simulation time: 5 hr 13 min 58 sec) 
Heartbeat CPU 3 instructions: 1150000000 cycles: 1406856767 heartbeat IPC: 0.765649 cumulative IPC: 0.723313 (Simulation time: 5 hr 14 min 15 sec) 
Heartbeat CPU 0 instructions: 1150000001 cycles: 1411248218 heartbeat IPC: 0.818642 cumulative IPC: 0.692399 (Simulation time: 5 hr 15 min 5 sec) 
Heartbeat CPU 1 instructions: 1270000000 cycles: 1419516369 heartbeat IPC: 0.642652 cumulative IPC: 0.799878 (Simulation time: 5 hr 16 min 43 sec) 
Heartbeat CPU 3 instructions: 1160000000 cycles: 1421615100 heartbeat IPC: 0.677583 cumulative IPC: 0.722802 (Simulation time: 5 hr 17 min 10 sec) 
Heartbeat CPU 2 instructions: 960000000 cycles: 1422053415 heartbeat IPC: 0.600876 cumulative IPC: 0.575315 (Simulation time: 5 hr 17 min 16 sec) 
Heartbeat CPU 0 instructions: 1160000000 cycles: 1423451741 heartbeat IPC: 0.819435 cumulative IPC: 0.693571 (Simulation time: 5 hr 17 min 32 sec) 
Heartbeat CPU 1 instructions: 1280000000 cycles: 1434324925 heartbeat IPC: 0.675285 cumulative IPC: 0.798494 (Simulation time: 5 hr 19 min 37 sec) 
Heartbeat CPU 0 instructions: 1170000000 cycles: 1435644693 heartbeat IPC: 0.820146 cumulative IPC: 0.694728 (Simulation time: 5 hr 19 min 52 sec) 
Heartbeat CPU 3 instructions: 1170000000 cycles: 1439095160 heartbeat IPC: 0.57208 cumulative IPC: 0.720833 (Simulation time: 5 hr 20 min 34 sec) 
Heartbeat CPU 2 instructions: 970000000 cycles: 1439740336 heartbeat IPC: 0.56539 cumulative IPC: 0.575184 (Simulation time: 5 hr 20 min 41 sec) 
Heartbeat CPU 0 instructions: 1180000000 cycles: 1447854116 heartbeat IPC: 0.81904 cumulative IPC: 0.695854 (Simulation time: 5 hr 22 min 12 sec) 
Heartbeat CPU 1 instructions: 1290000003 cycles: 1450084040 heartbeat IPC: 0.634554 cumulative IPC: 0.796579 (Simulation time: 5 hr 22 min 36 sec) 
Heartbeat CPU 2 instructions: 980000000 cycles: 1458311549 heartbeat IPC: 0.538468 cumulative IPC: 0.574681 (Simulation time: 5 hr 24 min 9 sec) 
Heartbeat CPU 0 instructions: 1190000001 cycles: 1460076989 heartbeat IPC: 0.818138 cumulative IPC: 0.696954 (Simulation time: 5 hr 24 min 29 sec) 
Heartbeat CPU 3 instructions: 1180000000 cycles: 1460686242 heartbeat IPC: 0.463154 cumulative IPC: 0.716741 (Simulation time: 5 hr 24 min 36 sec) 
Heartbeat CPU 1 instructions: 1300000000 cycles: 1465118994 heartbeat IPC: 0.665117 cumulative IPC: 0.79513 (Simulation time: 5 hr 25 min 26 sec) 
Heartbeat CPU 0 instructions: 1200000000 cycles: 1472262107 heartbeat IPC: 0.820673 cumulative IPC: 0.698054 (Simulation time: 5 hr 26 min 47 sec) 
Heartbeat CPU 2 instructions: 990000001 cycles: 1475983638 heartbeat IPC: 0.565864 cumulative IPC: 0.574568 (Simulation time: 5 hr 27 min 26 sec) 
Heartbeat CPU 1 instructions: 1310000001 cycles: 1479966598 heartbeat IPC: 0.673509 cumulative IPC: 0.793821 (Simulation time: 5 hr 28 min 12 sec) 
Heartbeat CPU 3 instructions: 1190000003 cycles: 1483184186 heartbeat IPC: 0.444485 cumulative IPC: 0.712309 (Simulation time: 5 hr 28 min 47 sec) 
Heartbeat CPU 0 instructions: 1210000003 cycles: 1484385850 heartbeat IPC: 0.824828 cumulative IPC: 0.699165 (Simulation time: 5 hr 29 min 1 sec) 
Heartbeat CPU 2 instructions: 1000000000 cycles: 1493655720 heartbeat IPC: 0.565864 cumulative IPC: 0.574457 (Simulation time: 5 hr 30 min 44 sec) 
Heartbeat CPU 1 instructions: 1320000000 cycles: 1495506927 heartbeat IPC: 0.643487 cumulative IPC: 0.792145 (Simulation time: 5 hr 31 min 5 sec) 
Heartbeat CPU 0 instructions: 1220000000 cycles: 1496490804 heartbeat IPC: 0.826108 cumulative IPC: 0.700266 (Simulation time: 5 hr 31 min 17 sec) 
Heartbeat CPU 3 instructions: 1200000000 cycles: 1508185829 heartbeat IPC: 0.399974 cumulative IPC: 0.70676 (Simulation time: 5 hr 33 min 47 sec) 
Heartbeat CPU 0 instructions: 1230000000 cycles: 1508561726 heartbeat IPC: 0.828437 cumulative IPC: 0.701365 (Simulation time: 5 hr 33 min 52 sec) 
Heartbeat CPU 1 instructions: 1330000001 cycles: 1509980883 heartbeat IPC: 0.690896 cumulative IPC: 0.791105 (Simulation time: 5 hr 34 min 9 sec) 
Heartbeat CPU 2 instructions: 1010000000 cycles: 1511252913 heartbeat IPC: 0.568272 cumulative IPC: 0.57438 (Simulation time: 5 hr 34 min 23 sec) 
Heartbeat CPU 0 instructions: 1240000000 cycles: 1520715165 heartbeat IPC: 0.822812 cumulative IPC: 0.702405 (Simulation time: 5 hr 36 min 10 sec) 
Finished CPU 3 instructions: 1000000001 cycles: 1419895126 cumulative IPC: 0.704277 (Simulation time: 5 hr 36 min 12 sec) 
Finished CPU 0 instructions: 1000000000 cycles: 1423087302 cumulative IPC: 0.702698 (Simulation time: 5 hr 36 min 46 sec) 
Heartbeat CPU 1 instructions: 1340000000 cycles: 1525477461 heartbeat IPC: 0.645304 cumulative IPC: 0.789519 (Simulation time: 5 hr 37 min 2 sec) 
Heartbeat CPU 2 instructions: 1020000000 cycles: 1529590875 heartbeat IPC: 0.545317 cumulative IPC: 0.574007 (Simulation time: 5 hr 37 min 49 sec) 
Heartbeat CPU 3 instructions: 1210000000 cycles: 1531017581 heartbeat IPC: 0.437987 cumulative IPC: 0.702469 (Simulation time: 5 hr 38 min 4 sec) 
Heartbeat CPU 0 instructions: 1250000003 cycles: 1532871822 heartbeat IPC: 0.822595 cumulative IPC: 0.703425 (Simulation time: 5 hr 38 min 25 sec) 
Heartbeat CPU 1 instructions: 1350000000 cycles: 1540199407 heartbeat IPC: 0.679258 cumulative IPC: 0.788391 (Simulation time: 5 hr 39 min 46 sec) 
Heartbeat CPU 0 instructions: 1260000000 cycles: 1545017455 heartbeat IPC: 0.823341 cumulative IPC: 0.704434 (Simulation time: 5 hr 40 min 41 sec) 
Heartbeat CPU 2 instructions: 1030000003 cycles: 1547935510 heartbeat IPC: 0.545119 cumulative IPC: 0.573641 (Simulation time: 5 hr 41 min 12 sec) 
Heartbeat CPU 3 instructions: 1220000000 cycles: 1552607818 heartbeat IPC: 0.463172 cumulative IPC: 0.698909 (Simulation time: 5 hr 42 min 7 sec) 
Heartbeat CPU 1 instructions: 1360000000 cycles: 1555315573 heartbeat IPC: 0.661543 cumulative IPC: 0.787072 (Simulation time: 5 hr 42 min 36 sec) 
Heartbeat CPU 0 instructions: 1270000002 cycles: 1557182113 heartbeat IPC: 0.822054 cumulative IPC: 0.705416 (Simulation time: 5 hr 42 min 58 sec) 
Heartbeat CPU 2 instructions: 1040000000 cycles: 1565169074 heartbeat IPC: 0.580263 cumulative IPC: 0.573719 (Simulation time: 5 hr 44 min 30 sec) 
Heartbeat CPU 1 instructions: 1370000001 cycles: 1568836633 heartbeat IPC: 0.739587 cumulative IPC: 0.786635 (Simulation time: 5 hr 45 min 12 sec) 
Heartbeat CPU 0 instructions: 1280000000 cycles: 1569357100 heartbeat IPC: 0.821356 cumulative IPC: 0.706378 (Simulation time: 5 hr 45 min 18 sec) 
Heartbeat CPU 3 instructions: 1230000003 cycles: 1573169977 heartbeat IPC: 0.48633 cumulative IPC: 0.69594 (Simulation time: 5 hr 46 min 1 sec) 
Heartbeat CPU 0 instructions: 1290000000 cycles: 1581504035 heartbeat IPC: 0.823253 cumulative IPC: 0.707337 (Simulation time: 5 hr 47 min 38 sec) 
Heartbeat CPU 2 instructions: 1050000003 cycles: 1582729379 heartbeat IPC: 0.569466 cumulative IPC: 0.573668 (Simulation time: 5 hr 47 min 53 sec) 
Heartbeat CPU 1 instructions: 1380000000 cycles: 1583805214 heartbeat IPC: 0.668066 cumulative IPC: 0.785438 (Simulation time: 5 hr 48 min 5 sec) 
Heartbeat CPU 3 instructions: 1240000000 cycles: 1592533309 heartbeat IPC: 0.51644 cumulative IPC: 0.69361 (Simulation time: 5 hr 49 min 42 sec) 
Heartbeat CPU 0 instructions: 1300000000 cycles: 1593655263 heartbeat IPC: 0.822962 cumulative IPC: 0.708278 (Simulation time: 5 hr 49 min 54 sec) 
Heartbeat CPU 1 instructions: 1390000000 cycles: 1598776300 heartbeat IPC: 0.667954 cumulative IPC: 0.784264 (Simulation time: 5 hr 50 min 55 sec) 
Heartbeat CPU 2 instructions: 1060000000 cycles: 1600233364 heartbeat IPC: 0.571298 cumulative IPC: 0.573641 (Simulation time: 5 hr 51 min 12 sec) 
Heartbeat CPU 0 instructions: 1310000003 cycles: 1605808625 heartbeat IPC: 0.822818 cumulative IPC: 0.709203 (Simulation time: 5 hr 52 min 16 sec) 
Heartbeat CPU 3 instructions: 1250000002 cycles: 1611315800 heartbeat IPC: 0.532411 cumulative IPC: 0.691605 (Simulation time: 5 hr 53 min 19 sec) 
Heartbeat CPU 1 instructions: 1400000000 cycles: 1613734324 heartbeat IPC: 0.668537 cumulative IPC: 0.783119 (Simulation time: 5 hr 53 min 49 sec) 
Heartbeat CPU 0 instructions: 1320000000 cycles: 1617965973 heartbeat IPC: 0.822548 cumulative IPC: 0.710111 (Simulation time: 5 hr 54 min 35 sec) 
Heartbeat CPU 2 instructions: 1070000001 cycles: 1618689218 heartbeat IPC: 0.541834 cumulative IPC: 0.573254 (Simulation time: 5 hr 54 min 42 sec) 
Heartbeat CPU 0 instructions: 1330000000 cycles: 1630172979 heartbeat IPC: 0.819202 cumulative IPC: 0.710982 (Simulation time: 5 hr 56 min 48 sec) 
Heartbeat CPU 1 instructions: 1410000002 cycles: 1630254795 heartbeat IPC: 0.60531 cumulative IPC: 0.781198 (Simulation time: 5 hr 56 min 50 sec) 
Heartbeat CPU 3 instructions: 1260000000 cycles: 1631383041 heartbeat IPC: 0.498325 cumulative IPC: 0.689071 (Simulation time: 5 hr 57 min 4 sec) 
Heartbeat CPU 2 instructions: 1080000000 cycles: 1638463871 heartbeat IPC: 0.505698 cumulative IPC: 0.572385 (Simulation time: 5 hr 58 min 24 sec) 
Heartbeat CPU 0 instructions: 1340000000 cycles: 1642440165 heartbeat IPC: 0.815183 cumulative IPC: 0.711812 (Simulation time: 5 hr 59 min 6 sec) 
Heartbeat CPU 1 instructions: 1420000000 cycles: 1647524417 heartbeat IPC: 0.579051 cumulative IPC: 0.778941 (Simulation time: 5 hr 59 min 53 sec) 
Heartbeat CPU 3 instructions: 1270000003 cycles: 1652348405 heartbeat IPC: 0.476977 cumulative IPC: 0.686204 (Simulation time: 6 hr 0 min 51 sec) 
Heartbeat CPU 0 instructions: 1350000001 cycles: 1654646634 heartbeat IPC: 0.819238 cumulative IPC: 0.712656 (Simulation time: 6 hr 1 min 17 sec) 
Heartbeat CPU 2 instructions: 1090000002 cycles: 1657916900 heartbeat IPC: 0.514059 cumulative IPC: 0.571656 (Simulation time: 6 hr 1 min 56 sec) 
Heartbeat CPU 1 instructions: 1430000002 cycles: 1662779218 heartbeat IPC: 0.655531 cumulative IPC: 0.777736 (Simulation time: 6 hr 2 min 53 sec) 
Heartbeat CPU 0 instructions: 1360000000 cycles: 1666781419 heartbeat IPC: 0.824077 cumulative IPC: 0.713519 (Simulation time: 6 hr 3 min 41 sec) 
Heartbeat CPU 3 instructions: 1280000000 cycles: 1670775975 heartbeat IPC: 0.542665 cumulative IPC: 0.684519 (Simulation time: 6 hr 4 min 26 sec) 
Heartbeat CPU 2 instructions: 1100000000 cycles: 1675114234 heartbeat IPC: 0.581485 cumulative IPC: 0.571764 (Simulation time: 6 hr 5 min 19 sec) 
Heartbeat CPU 1 instructions: 1440000000 cycles: 1678053297 heartbeat IPC: 0.654704 cumulative IPC: 0.776544 (Simulation time: 6 hr 5 min 52 sec) 
Heartbeat CPU 0 instructions: 1370000001 cycles: 1678928077 heartbeat IPC: 0.823272 cumulative IPC: 0.714364 (Simulation time: 6 hr 6 min 2 sec) 
Heartbeat CPU 3 instructions: 1290000000 cycles: 1688885384 heartbeat IPC: 0.552199 cumulative IPC: 0.68301 (Simulation time: 6 hr 7 min 59 sec) 
Heartbeat CPU 0 instructions: 1380000000 cycles: 1691085823 heartbeat IPC: 0.822521 cumulative IPC: 0.715191 (Simulation time: 6 hr 8 min 26 sec) 
Heartbeat CPU 2 instructions: 1110000002 cycles: 1693236823 heartbeat IPC: 0.551798 cumulative IPC: 0.571536 (Simulation time: 6 hr 8 min 51 sec) 
Heartbeat CPU 1 instructions: 1450000000 cycles: 1693318638 heartbeat IPC: 0.655079 cumulative IPC: 0.775379 (Simulation time: 6 hr 8 min 52 sec) 
Heartbeat CPU 0 instructions: 1390000002 cycles: 1703242493 heartbeat IPC: 0.822594 cumulative IPC: 0.716006 (Simulation time: 6 hr 10 min 47 sec) 
Heartbeat CPU 3 instructions: 1300000000 cycles: 1707667933 heartbeat IPC: 0.532409 cumulative IPC: 0.681249 (Simulation time: 6 hr 11 min 37 sec) 
Heartbeat CPU 1 instructions: 1460000000 cycles: 1709376315 heartbeat IPC: 0.622755 cumulative IPC: 0.773856 (Simulation time: 6 hr 11 min 56 sec) 
Heartbeat CPU 2 instructions: 1120000000 cycles: 1712709410 heartbeat IPC: 0.513542 cumulative IPC: 0.570836 (Simulation time: 6 hr 12 min 29 sec) 
Heartbeat CPU 0 instructions: 1400000000 cycles: 1715503223 heartbeat IPC: 0.815612 cumulative IPC: 0.716762 (Simulation time: 6 hr 13 min 1 sec) 
Heartbeat CPU 3 instructions: 1310000002 cycles: 1726793809 heartbeat IPC: 0.522852 cumulative IPC: 0.679386 (Simulation time: 6 hr 15 min 3 sec) 
Heartbeat CPU 0 instructions: 1410000000 cycles: 1727668401 heartbeat IPC: 0.822018 cumulative IPC: 0.71755 (Simulation time: 6 hr 15 min 12 sec) 
Heartbeat CPU 1 instructions: 1470000000 cycles: 1728576584 heartbeat IPC: 0.520826 cumulative IPC: 0.770871 (Simulation time: 6 hr 15 min 22 sec) 
Heartbeat CPU 2 instructions: 1130000001 cycles: 1731014278 heartbeat IPC: 0.546303 cumulative IPC: 0.57056 (Simulation time: 6 hr 15 min 49 sec) 
Heartbeat CPU 0 instructions: 1420000000 cycles: 1739940793 heartbeat IPC: 0.814837 cumulative IPC: 0.718278 (Simulation time: 6 hr 17 min 27 sec) 
Heartbeat CPU 1 instructions: 1480000000 cycles: 1742397562 heartbeat IPC: 0.723538 cumulative IPC: 0.770472 (Simulation time: 6 hr 17 min 56 sec) 
Heartbeat CPU 3 instructions: 1320000000 cycles: 1747513725 heartbeat IPC: 0.482627 cumulative IPC: 0.67691 (Simulation time: 6 hr 18 min 51 sec) 
Heartbeat CPU 2 instructions: 1140000000 cycles: 1749182494 heartbeat IPC: 0.550412 cumulative IPC: 0.570338 (Simulation time: 6 hr 19 min 12 sec) 
Heartbeat CPU 0 instructions: 1430000000 cycles: 1752079790 heartbeat IPC: 0.823791 cumulative IPC: 0.719054 (Simulation time: 6 hr 19 min 44 sec) 
Heartbeat CPU 1 instructions: 1490000002 cycles: 1759941394 heartbeat IPC: 0.570001 cumulative IPC: 0.768352 (Simulation time: 6 hr 21 min 13 sec) 
Heartbeat CPU 0 instructions: 1440000000 cycles: 1764234884 heartbeat IPC: 0.8227 cumulative IPC: 0.719811 (Simulation time: 6 hr 22 min 1 sec) 
Heartbeat CPU 2 instructions: 1150000000 cycles: 1766501430 heartbeat IPC: 0.577403 cumulative IPC: 0.570412 (Simulation time: 6 hr 22 min 27 sec) 
Heartbeat CPU 3 instructions: 1330000001 cycles: 1766503386 heartbeat IPC: 0.526602 cumulative IPC: 0.675196 (Simulation time: 6 hr 22 min 27 sec) 
Heartbeat CPU 0 instructions: 1450000000 cycles: 1776371890 heartbeat IPC: 0.823926 cumulative IPC: 0.720566 (Simulation time: 6 hr 24 min 17 sec) 
Heartbeat CPU 1 instructions: 1500000000 cycles: 1777470597 heartbeat IPC: 0.570476 cumulative IPC: 0.766283 (Simulation time: 6 hr 24 min 28 sec) 
Heartbeat CPU 2 instructions: 1160000000 cycles: 1784447621 heartbeat IPC: 0.557221 cumulative IPC: 0.570271 (Simulation time: 6 hr 25 min 43 sec) 
Heartbeat CPU 3 instructions: 1340000000 cycles: 1785356457 heartbeat IPC: 0.530418 cumulative IPC: 0.673576 (Simulation time: 6 hr 25 min 52 sec) 
Heartbeat CPU 0 instructions: 1460000000 cycles: 1788511008 heartbeat IPC: 0.823783 cumulative IPC: 0.721308 (Simulation time: 6 hr 26 min 27 sec) 
Heartbeat CPU 1 instructions: 1510000002 cycles: 1794985867 heartbeat IPC: 0.57093 cumulative IPC: 0.764263 (Simulation time: 6 hr 27 min 36 sec) 
Heartbeat CPU 0 instructions: 1470000000 cycles: 1800661912 heartbeat IPC: 0.822984 cumulative IPC: 0.722035 (Simulation time: 6 hr 28 min 37 sec) 
Heartbeat CPU 2 instructions: 1170000000 cycles: 1801968098 heartbeat IPC: 0.570761 cumulative IPC: 0.570276 (Simulation time: 6 hr 28 min 50 sec) 
Heartbeat CPU 3 instructions: 1350000001 cycles: 1804350641 heartbeat IPC: 0.526477 cumulative IPC: 0.671935 (Simulation time: 6 hr 29 min 17 sec) 
Heartbeat CPU 1 instructions: 1520000000 cycles: 1812512445 heartbeat IPC: 0.570562 cumulative IPC: 0.762279 (Simulation time: 6 hr 30 min 45 sec) 
Heartbeat CPU 0 instructions: 1480000000 cycles: 1812790335 heartbeat IPC: 0.82451 cumulative IPC: 0.722761 (Simulation time: 6 hr 30 min 48 sec) 
Heartbeat CPU 2 instructions: 1180000000 cycles: 1818966688 heartbeat IPC: 0.588284 cumulative IPC: 0.570454 (Simulation time: 6 hr 31 min 53 sec) 
Heartbeat CPU 3 instructions: 1360000000 cycles: 1822615442 heartbeat IPC: 0.547501 cumulative IPC: 0.670615 (Simulation time: 6 hr 32 min 33 sec) 
Heartbeat CPU 0 instructions: 1490000003 cycles: 1824912112 heartbeat IPC: 0.824962 cumulative IPC: 0.72348 (Simulation time: 6 hr 32 min 56 sec) 
Heartbeat CPU 1 instructions: 1530000000 cycles: 1830040905 heartbeat IPC: 0.570501 cumulative IPC: 0.760335 (Simulation time: 6 hr 33 min 53 sec) 
Heartbeat CPU 2 instructions: 1190000001 cycles: 1835918547 heartbeat IPC: 0.589906 cumulative IPC: 0.570644 (Simulation time: 6 hr 34 min 56 sec) 
Heartbeat CPU 0 instructions: 1500000000 cycles: 1837050614 heartbeat IPC: 0.823825 cumulative IPC: 0.724181 (Simulation time: 6 hr 35 min 8 sec) 
Heartbeat CPU 3 instructions: 1370000003 cycles: 1841633662 heartbeat IPC: 0.525812 cumulative IPC: 0.669033 (Simulation time: 6 hr 35 min 56 sec) 
Heartbeat CPU 1 instructions: 1540000000 cycles: 1847534127 heartbeat IPC: 0.57165 cumulative IPC: 0.758445 (Simulation time: 6 hr 36 min 59 sec) 
Heartbeat CPU 0 instructions: 1510000000 cycles: 1849178794 heartbeat IPC: 0.824526 cumulative IPC: 0.724878 (Simulation time: 6 hr 37 min 16 sec) 
Heartbeat CPU 2 instructions: 1200000000 cycles: 1853568255 heartbeat IPC: 0.566582 cumulative IPC: 0.570603 (Simulation time: 6 hr 38 min 5 sec) 
Finished CPU 2 instructions: 1000000003 cycles: 1752530967 cumulative IPC: 0.570603 (Simulation time: 6 hr 38 min 5 sec) 

CPU 0 Branch Prediction Accuracy: 99.9444% MPKI: 0.138582

CPU 1 Branch Prediction Accuracy: 98.5641% MPKI: 1.08211

CPU 2 Branch Prediction Accuracy: 99.7939% MPKI: 0.114253

CPU 3 Branch Prediction Accuracy: 98.2034% MPKI: 0.26112

ChampSim completed all CPUs

Total Simulation Statistics (not including warmup)

CPU 0 cumulative IPC: 0.725132 instructions: 1270816535 cycles: 1752530967
L1D TOTAL     ACCESS:  269541326  HIT:  237341091  MISS:   32200235
L1D LOAD      ACCESS:  246014054  HIT:  213844594  MISS:   32169460
L1D RFO       ACCESS:   23527272  HIT:   23496497  MISS:      30775
L1D PREFETCH  ACCESS:          0  HIT:          0  MISS:          0
L1D WRITEBACK ACCESS:          0  HIT:          0  MISS:          0
L1I TOTAL     ACCESS:  444111330  HIT:  444111329  MISS:          1
L1I LOAD      ACCESS:  444111330  HIT:  444111329  MISS:          1
L1I RFO       ACCESS:          0  HIT:          0  MISS:          0
L1I PREFETCH  ACCESS:          0  HIT:          0  MISS:          0
L1I WRITEBACK ACCESS:          0  HIT:          0  MISS:          0
L2C TOTAL     ACCESS:   45822965  HIT:   13751858  MISS:   32071107
L2C LOAD      ACCESS:   32169461  HIT:   13630425  MISS:   18539036
L2C RFO       ACCESS:      30775  HIT:       8188  MISS:      22587
L2C PREFETCH  ACCESS:   13577661  HIT:      68183  MISS:   13509478
L2C WRITEBACK ACCESS:      45068  HIT:      45062  MISS:          6

L2C DA-AMPM prefetcher final stats
LLC TOTAL     ACCESS:   32117075  HIT:   32053841  MISS:      63234
LLC LOAD      ACCESS:   18152723  HIT:   18124419  MISS:      28304
LLC RFO       ACCESS:      22538  HIT:      17204  MISS:       5334
LLC PREFETCH  ACCESS:   13895840  HIT:   13869845  MISS:      25995
LLC WRITEBACK ACCESS:      45974  HIT:      42373  MISS:       3601

CPU 1 cumulative IPC: 0.75779 instructions: 1328050970 cycles: 1752530967
L1D TOTAL     ACCESS:  323401841  HIT:  305708747  MISS:   17693094
L1D LOAD      ACCESS:  256827020  HIT:  242831170  MISS:   13995850
L1D RFO       ACCESS:   66574821  HIT:   62877577  MISS:    3697244
L1D PREFETCH  ACCESS:          0  HIT:          0  MISS:          0
L1D WRITEBACK ACCESS:          0  HIT:          0  MISS:          0
L1I TOTAL     ACCESS:  401599593  HIT:  401530527  MISS:      69066
L1I LOAD      ACCESS:  401599593  HIT:  401530527  MISS:      69066
L1I RFO       ACCESS:          0  HIT:          0  MISS:          0
L1I PREFETCH  ACCESS:          0  HIT:          0  MISS:          0
L1I WRITEBACK ACCESS:          0  HIT:          0  MISS:          0
L2C TOTAL     ACCESS:   32222820  HIT:   19687713  MISS:   12535107
L2C LOAD      ACCESS:   14064469  HIT:   11888011  MISS:    2176458
L2C RFO       ACCESS:    3661356  HIT:    1147827  MISS:    2513529
L2C PREFETCH  ACCESS:    7887913  HIT:      50163  MISS:    7837750
L2C WRITEBACK ACCESS:    6609082  HIT:    6601712  MISS:       7370

L2C DA-AMPM prefetcher final stats
LLC TOTAL     ACCESS:   17499613  HIT:    7051929  MISS:   10447684
LLC LOAD      ACCESS:    1576112  HIT:     540224  MISS:    1035888
LLC RFO       ACCESS:    2502563  HIT:     495586  MISS:    2006977
LLC PREFETCH  ACCESS:    8449009  HIT:    1249533  MISS:    7199476
LLC WRITEBACK ACCESS:    4971929  HIT:    4766586  MISS:     205343

CPU 2 cumulative IPC: 0.570603 instructions: 1000000003 cycles: 1752530967
L1D TOTAL     ACCESS:  403834218  HIT:  371060339  MISS:   32773879
L1D LOAD      ACCESS:  320034826  HIT:  291327733  MISS:   28707093
L1D RFO       ACCESS:   83799392  HIT:   79732606  MISS:    4066786
L1D PREFETCH  ACCESS:          0  HIT:          0  MISS:          0
L1D WRITEBACK ACCESS:          0  HIT:          0  MISS:          0
L1I TOTAL     ACCESS:  310130245  HIT:  310129912  MISS:        333
L1I LOAD      ACCESS:  310130245  HIT:  310129912  MISS:        333
L1I RFO       ACCESS:          0  HIT:          0  MISS:          0
L1I PREFETCH  ACCESS:          0  HIT:          0  MISS:          0
L1I WRITEBACK ACCESS:          0  HIT:          0  MISS:          0
L2C TOTAL     ACCESS:   44119039  HIT:   31400284  MISS:   12718755
L2C LOAD      ACCESS:   28705577  HIT:   23020935  MISS:    5684642
L2C RFO       ACCESS:    4065828  HIT:    1355246  MISS:    2710582
L2C PREFETCH  ACCESS:    5984215  HIT:    1663223  MISS:    4320992
L2C WRITEBACK ACCESS:    5363419  HIT:    5360880  MISS:       2539

L2C DA-AMPM prefetcher final stats
LLC TOTAL     ACCESS:   16508298  HIT:    7861692  MISS:    8646606
LLC LOAD      ACCESS:    5597338  HIT:    2313707  MISS:    3283631
LLC RFO       ACCESS:    2710579  HIT:     820467  MISS:    1890112
LLC PREFETCH  ACCESS:    4408299  HIT:    1011803  MISS:    3396496
LLC WRITEBACK ACCESS:    3792082  HIT:    3715715  MISS:      76367

CPU 3 cumulative IPC: 0.668173 instructions: 1170993380 cycles: 1752530968
L1D TOTAL     ACCESS:  315937049  HIT:  248611862  MISS:   67325187
L1D LOAD      ACCESS:  121189658  HIT:  110978843  MISS:   10210815
L1D RFO       ACCESS:  194747391  HIT:  137633019  MISS:   57114372
L1D PREFETCH  ACCESS:          0  HIT:          0  MISS:          0
L1D WRITEBACK ACCESS:          0  HIT:          0  MISS:          0
L1I TOTAL     ACCESS:  277428857  HIT:  277428854  MISS:          3
L1I LOAD      ACCESS:  277428857  HIT:  277428854  MISS:          3
L1I RFO       ACCESS:          0  HIT:          0  MISS:          0
L1I PREFETCH  ACCESS:          0  HIT:          0  MISS:          0
L1I WRITEBACK ACCESS:          0  HIT:          0  MISS:          0
L2C TOTAL     ACCESS:  132970554  HIT:   81672685  MISS:   51297869
L2C LOAD      ACCESS:   10210818  HIT:    8478753  MISS:    1732065
L2C RFO       ACCESS:   57114063  HIT:   16029164  MISS:   41084899
L2C PREFETCH  ACCESS:    8531301  HIT:      60439  MISS:    8470862
L2C WRITEBACK ACCESS:   57114372  HIT:   57104329  MISS:      10043

L2C DA-AMPM prefetcher final stats
LLC TOTAL     ACCESS:   92361015  HIT:   51574988  MISS:   40786027
LLC LOAD      ACCESS:    1384638  HIT:       7011  MISS:    1377627
LLC RFO       ACCESS:   41063836  HIT:   10475346  MISS:   30588490
LLC PREFETCH  ACCESS:    8818289  HIT:          0  MISS:    8818289
LLC WRITEBACK ACCESS:   41094252  HIT:   41092631  MISS:       1621

Region of Interest Statistics

CPU 0 cumulative IPC: 0.702698 instructions: 1000000000 cycles: 1423087302
L1D TOTAL     ACCESS:  211757551  HIT:  186387658  MISS:   25369893
L1D LOAD      ACCESS:  193179025  HIT:  167836099  MISS:   25342926
L1D RFO       ACCESS:   18578526  HIT:   18551559  MISS:      26967
L1D PREFETCH  ACCESS:          0  HIT:          0  MISS:          0
L1D WRITEBACK ACCESS:          0  HIT:          0  MISS:          0
L1D PREFETCH  REQUESTED:          0  ISSUED:          0  USEFUL:          0  USELESS:          0
L1I TOTAL     ACCESS:  348709602  HIT:  348709601  MISS:          1
L1I LOAD      ACCESS:  348709602  HIT:  348709601  MISS:          1
L1I RFO       ACCESS:          0  HIT:          0  MISS:          0
L1I PREFETCH  ACCESS:          0  HIT:          0  MISS:          0
L1I WRITEBACK ACCESS:          0  HIT:          0  MISS:          0
L1I PREFETCH  REQUESTED:          0  ISSUED:          0  USEFUL:          0  USELESS:          0
L2C TOTAL     ACCESS:   32729651  HIT:    8034066  MISS:   24695585
L2C LOAD      ACCESS:   25342927  HIT:    7952991  MISS:   17389936
L2C RFO       ACCESS:      26967  HIT:       6472  MISS:      20495
L2C PREFETCH  ACCESS:    7320333  HIT:      35185  MISS:    7285148
L2C WRITEBACK ACCESS:      39424  HIT:      39418  MISS:          6
L2C PREFETCH  REQUESTED:   18751512  ISSUED:   18751512  USEFUL:   16021950  USELESS:    1414132
LLC TOTAL     ACCESS:   24735909  HIT:   24679386  MISS:      56523
LLC LOAD      ACCESS:   17194063  HIT:   17168635  MISS:      25428
LLC RFO       ACCESS:      20452  HIT:      15682  MISS:       4770
LLC PREFETCH  ACCESS:    7481064  HIT:    7458340  MISS:      22724
LLC WRITEBACK ACCESS:      40330  HIT:      36729  MISS:       3601
LLC PREFETCH  REQUESTED:          0  ISSUED:          0  USEFUL:    1149223  USELESS:   24926443
Major fault: 0 Minor fault: 4310

CPU 1 cumulative IPC: 0.80928 instructions: 1000000001 cycles: 1235665878
L1D TOTAL     ACCESS:  252357575  HIT:  237165653  MISS:   15191922
L1D LOAD      ACCESS:  206089934  HIT:  193657039  MISS:   12432895
L1D RFO       ACCESS:   46267641  HIT:   43508614  MISS:    2759027
L1D PREFETCH  ACCESS:          0  HIT:          0  MISS:          0
L1D WRITEBACK ACCESS:          0  HIT:          0  MISS:          0
L1D PREFETCH  REQUESTED:          0  ISSUED:          0  USEFUL:          0  USELESS:          0
L1I TOTAL     ACCESS:  287152661  HIT:  287106556  MISS:      46105
L1I LOAD      ACCESS:  287152661  HIT:  287106556  MISS:      46105
L1I RFO       ACCESS:          0  HIT:          0  MISS:          0
L1I PREFETCH  ACCESS:          0  HIT:          0  MISS:          0
L1I WRITEBACK ACCESS:          0  HIT:          0  MISS:          0
L1I PREFETCH  REQUESTED:          0  ISSUED:          0  USEFUL:          0  USELESS:          0
L2C TOTAL     ACCESS:   27842162  HIT:   16816671  MISS:   11025491
L2C LOAD      ACCESS:   12478562  HIT:   10630642  MISS:    1847920
L2C RFO       ACCESS:    2744501  HIT:     806501  MISS:    1938000
L2C PREFETCH  ACCESS:    7279516  HIT:      46825  MISS:    7232691
L2C WRITEBACK ACCESS:    5339583  HIT:    5332703  MISS:       6880
L2C PREFETCH  REQUESTED:   10743716  ISSUED:   10312682  USEFUL:    8848853  USELESS:     571926
LLC TOTAL     ACCESS:   15136395  HIT:    6066979  MISS:    9069416
LLC LOAD      ACCESS:    1302866  HIT:     472845  MISS:     830021
LLC RFO       ACCESS:    1930118  HIT:     387098  MISS:    1543020
LLC PREFETCH  ACCESS:    7785578  HIT:    1209816  MISS:    6575762
LLC WRITEBACK ACCESS:    4117833  HIT:    3997220  MISS:     120613
LLC PREFETCH  REQUESTED:          0  ISSUED:          0  USEFUL:    1149223  USELESS:   24926443
Major fault: 0 Minor fault: 17620

CPU 2 cumulative IPC: 0.570603 instructions: 1000000003 cycles: 1752530967
L1D TOTAL     ACCESS:  403834218  HIT:  371060339  MISS:   32773879
L1D LOAD      ACCESS:  320034826  HIT:  291327733  MISS:   28707093
L1D RFO       ACCESS:   83799392  HIT:   79732606  MISS:    4066786
L1D PREFETCH  ACCESS:          0  HIT:          0  MISS:          0
L1D WRITEBACK ACCESS:          0  HIT:          0  MISS:          0
L1D PREFETCH  REQUESTED:          0  ISSUED:          0  USEFUL:          0  USELESS:          0
L1I TOTAL     ACCESS:  310130245  HIT:  310129912  MISS:        333
L1I LOAD      ACCESS:  310130245  HIT:  310129912  MISS:        333
L1I RFO       ACCESS:          0  HIT:          0  MISS:          0
L1I PREFETCH  ACCESS:          0  HIT:          0  MISS:          0
L1I WRITEBACK ACCESS:          0  HIT:          0  MISS:          0
L1I PREFETCH  REQUESTED:          0  ISSUED:          0  USEFUL:          0  USELESS:          0
L2C TOTAL     ACCESS:   44119039  HIT:   31400284  MISS:   12718755
L2C LOAD      ACCESS:   28705577  HIT:   23020935  MISS:    5684642
L2C RFO       ACCESS:    4065828  HIT:    1355246  MISS:    2710582
L2C PREFETCH  ACCESS:    5984215  HIT:    1663223  MISS:    4320992
L2C WRITEBACK ACCESS:    5363419  HIT:    5360880  MISS:       2539
L2C PREFETCH  REQUESTED:    6972656  ISSUED:    6970978  USEFUL:    4480351  USELESS:     721117
LLC TOTAL     ACCESS:   16508298  HIT:    7861692  MISS:    8646606
LLC LOAD      ACCESS:    5597338  HIT:    2313707  MISS:    3283631
LLC RFO       ACCESS:    2710579  HIT:     820467  MISS:    1890112
LLC PREFETCH  ACCESS:    4408299  HIT:    1011803  MISS:    3396496
LLC WRITEBACK ACCESS:    3792082  HIT:    3715715  MISS:      76367
LLC PREFETCH  REQUESTED:          0  ISSUED:          0  USEFUL:    1149223  USELESS:   24926443
Major fault: 0 Minor fault: 111193

CPU 3 cumulative IPC: 0.704277 instructions: 1000000001 cycles: 1419895126
L1D TOTAL     ACCESS:  267379023  HIT:  213627029  MISS:   53751994
L1D LOAD      ACCESS:  104024710  HIT:   95873692  MISS:    8151018
L1D RFO       ACCESS:  163354313  HIT:  117753337  MISS:   45600976
L1D PREFETCH  ACCESS:          0  HIT:          0  MISS:          0
L1D WRITEBACK ACCESS:          0  HIT:          0  MISS:          0
L1D PREFETCH  REQUESTED:          0  ISSUED:          0  USEFUL:          0  USELESS:          0
L1I TOTAL     ACCESS:  236473695  HIT:  236473692  MISS:          3
L1I LOAD      ACCESS:  236473695  HIT:  236473692  MISS:          3
L1I RFO       ACCESS:          0  HIT:          0  MISS:          0
L1I PREFETCH  ACCESS:          0  HIT:          0  MISS:          0
L1I WRITEBACK ACCESS:          0  HIT:          0  MISS:          0
L1I PREFETCH  REQUESTED:          0  ISSUED:          0  USEFUL:          0  USELESS:          0
L2C TOTAL     ACCESS:  106191990  HIT:   65194297  MISS:   40997693
L2C LOAD      ACCESS:    8151021  HIT:    6796052  MISS:    1354969
L2C RFO       ACCESS:   45600762  HIT:   12755472  MISS:   32845290
L2C PREFETCH  ACCESS:    6839235  HIT:      48479  MISS:    6790756
L2C WRITEBACK ACCESS:   45600972  HIT:   45594294  MISS:       6678
L2C PREFETCH  REQUESTED:   11337398  ISSUED:   11337398  USEFUL:   10628567  USELESS:         72
LLC TOTAL     ACCESS:   73825913  HIT:   41259795  MISS:   32566118
LLC LOAD      ACCESS:    1091644  HIT:       4690  MISS:    1086954
LLC RFO       ACCESS:   32828437  HIT:    8404574  MISS:   24423863
LLC PREFETCH  ACCESS:    7054081  HIT:          0  MISS:    7054081
LLC WRITEBACK ACCESS:   32851751  HIT:   32850531  MISS:       1220
LLC PREFETCH  REQUESTED:          0  ISSUED:          0  USEFUL:    1149223  USELESS:   24926443
Major fault: 0 Minor fault: 401378

L2C DA-AMPM prefetcher final stats

L2C DA-AMPM prefetcher final stats

L2C DA-AMPM prefetcher final stats

L2C DA-AMPM prefetcher final stats

DRAM Statistics
 CHANNEL 0
 RQ ROW_BUFFER_HIT:    7586101  ROW_BUFFER_MISS:   22236120
 DBUS_CONGESTED:   64834144
 WQ ROW_BUFFER_HIT:    2076814  ROW_BUFFER_MISS:   16342778  FULL:          0

 CHANNEL 1
 RQ ROW_BUFFER_HIT:    7602168  ROW_BUFFER_MISS:   22230428
 DBUS_CONGESTED:   64834144
 WQ ROW_BUFFER_HIT:    2100222  ROW_BUFFER_MISS:   16322133  FULL:          0

 AVG_CONGESTED_CYCLE: 14
