
*** ChampSim Multicore Out-of-Order Simulator ***

Warmup Instructions: 200000000
Simulation Instructions: 1000000000
Number of CPUs: 4
LLC sets: 8192
LLC ways: 16
Off-chip DRAM Size: 8192 MB Channels: 2 Width: 64-bit Data Rate: 1600 MT/s

CPU 0 runs /scratch/user/djimenez/champsim-traces/speccpu2017/xz/603.bwaves_s/603.bwaves_s-1740B.champsimtrace.xz
CPU 1 runs /scratch/user/djimenez/champsim-traces/speccpu2017/xz/649.fotonik3d_s/649.fotonik3d_s-1176B.champsimtrace.xz
CPU 2 runs /scratch/user/djimenez/champsim-traces/speccpu2017/xz/649.fotonik3d_s/649.fotonik3d_s-7084B.champsimtrace.xz
CPU 3 runs /scratch/user/djimenez/champsim-traces/speccpu2017/xz/628.pop2_s/628.pop2_s-17B.champsimtrace.xz
L2C DA-AMPM prefetcher
L2C DA-AMPM prefetcher
L2C DA-AMPM prefetcher
L2C DA-AMPM prefetcher
Heartbeat CPU 3 instructions: 10000002 cycles: 4120807 heartbeat IPC: 2.42671 cumulative IPC: 2.42671 (Simulation time: 0 hr 1 min 54 sec) 
Heartbeat CPU 2 instructions: 10000000 cycles: 4192164 heartbeat IPC: 2.3854 cumulative IPC: 2.3854 (Simulation time: 0 hr 1 min 55 sec) 
Heartbeat CPU 1 instructions: 10000000 cycles: 4390172 heartbeat IPC: 2.27782 cumulative IPC: 2.27782 (Simulation time: 0 hr 2 min 0 sec) 
Heartbeat CPU 0 instructions: 10000001 cycles: 5273622 heartbeat IPC: 1.89623 cumulative IPC: 1.89623 (Simulation time: 0 hr 2 min 26 sec) 
Heartbeat CPU 3 instructions: 20000000 cycles: 8233246 heartbeat IPC: 2.43165 cumulative IPC: 2.42918 (Simulation time: 0 hr 3 min 49 sec) 
Heartbeat CPU 2 instructions: 20000000 cycles: 8382578 heartbeat IPC: 2.3864 cumulative IPC: 2.3859 (Simulation time: 0 hr 3 min 53 sec) 
Heartbeat CPU 1 instructions: 20000000 cycles: 8779399 heartbeat IPC: 2.27831 cumulative IPC: 2.27806 (Simulation time: 0 hr 4 min 3 sec) 
Heartbeat CPU 0 instructions: 20000000 cycles: 10549661 heartbeat IPC: 1.89536 cumulative IPC: 1.8958 (Simulation time: 0 hr 4 min 47 sec) 
Heartbeat CPU 3 instructions: 30000002 cycles: 12344122 heartbeat IPC: 2.43257 cumulative IPC: 2.43031 (Simulation time: 0 hr 5 min 33 sec) 
Heartbeat CPU 2 instructions: 30000000 cycles: 12562458 heartbeat IPC: 2.39241 cumulative IPC: 2.38807 (Simulation time: 0 hr 5 min 38 sec) 
Heartbeat CPU 1 instructions: 30000002 cycles: 13170326 heartbeat IPC: 2.27742 cumulative IPC: 2.27785 (Simulation time: 0 hr 5 min 53 sec) 
Heartbeat CPU 0 instructions: 30000002 cycles: 15824075 heartbeat IPC: 1.89595 cumulative IPC: 1.89585 (Simulation time: 0 hr 7 min 0 sec) 
Heartbeat CPU 3 instructions: 40000000 cycles: 16453631 heartbeat IPC: 2.43338 cumulative IPC: 2.43107 (Simulation time: 0 hr 7 min 16 sec) 
Heartbeat CPU 2 instructions: 40000000 cycles: 16736734 heartbeat IPC: 2.39563 cumulative IPC: 2.38995 (Simulation time: 0 hr 7 min 23 sec) 
Heartbeat CPU 1 instructions: 40000000 cycles: 17561225 heartbeat IPC: 2.27744 cumulative IPC: 2.27775 (Simulation time: 0 hr 7 min 44 sec) 
Heartbeat CPU 3 instructions: 50000003 cycles: 20552400 heartbeat IPC: 2.43976 cumulative IPC: 2.43281 (Simulation time: 0 hr 9 min 0 sec) 
Heartbeat CPU 2 instructions: 50000001 cycles: 20907545 heartbeat IPC: 2.39762 cumulative IPC: 2.39148 (Simulation time: 0 hr 9 min 8 sec) 
Heartbeat CPU 0 instructions: 40000000 cycles: 21097397 heartbeat IPC: 1.89634 cumulative IPC: 1.89597 (Simulation time: 0 hr 9 min 13 sec) 
Heartbeat CPU 1 instructions: 50000000 cycles: 21951129 heartbeat IPC: 2.27795 cumulative IPC: 2.27779 (Simulation time: 0 hr 9 min 34 sec) 
Heartbeat CPU 3 instructions: 60000000 cycles: 24637685 heartbeat IPC: 2.44781 cumulative IPC: 2.43529 (Simulation time: 0 hr 10 min 37 sec) 
Heartbeat CPU 2 instructions: 60000000 cycles: 25095458 heartbeat IPC: 2.38782 cumulative IPC: 2.39087 (Simulation time: 0 hr 10 min 48 sec) 
Heartbeat CPU 1 instructions: 60000000 cycles: 26340493 heartbeat IPC: 2.27823 cumulative IPC: 2.27786 (Simulation time: 0 hr 11 min 18 sec) 
Heartbeat CPU 0 instructions: 50000003 cycles: 26372198 heartbeat IPC: 1.89581 cumulative IPC: 1.89594 (Simulation time: 0 hr 11 min 19 sec) 
Heartbeat CPU 3 instructions: 70000001 cycles: 28704316 heartbeat IPC: 2.45904 cumulative IPC: 2.43866 (Simulation time: 0 hr 12 min 17 sec) 
Heartbeat CPU 2 instructions: 70000003 cycles: 29283992 heartbeat IPC: 2.38747 cumulative IPC: 2.39038 (Simulation time: 0 hr 12 min 32 sec) 
Heartbeat CPU 1 instructions: 70000002 cycles: 30730144 heartbeat IPC: 2.27809 cumulative IPC: 2.27789 (Simulation time: 0 hr 13 min 9 sec) 
Heartbeat CPU 0 instructions: 60000000 cycles: 31644740 heartbeat IPC: 1.89662 cumulative IPC: 1.89605 (Simulation time: 0 hr 13 min 32 sec) 
Heartbeat CPU 3 instructions: 80000000 cycles: 32434535 heartbeat IPC: 2.68081 cumulative IPC: 2.46651 (Simulation time: 0 hr 13 min 51 sec) 
Heartbeat CPU 2 instructions: 80000000 cycles: 33474259 heartbeat IPC: 2.38648 cumulative IPC: 2.3899 (Simulation time: 0 hr 14 min 17 sec) 
Heartbeat CPU 1 instructions: 80000000 cycles: 35119207 heartbeat IPC: 2.27839 cumulative IPC: 2.27796 (Simulation time: 0 hr 15 min 0 sec) 
Heartbeat CPU 3 instructions: 90000002 cycles: 36435736 heartbeat IPC: 2.49925 cumulative IPC: 2.4701 (Simulation time: 0 hr 15 min 39 sec) 
Heartbeat CPU 0 instructions: 70000000 cycles: 36918810 heartbeat IPC: 1.89607 cumulative IPC: 1.89605 (Simulation time: 0 hr 15 min 52 sec) 
Heartbeat CPU 2 instructions: 90000000 cycles: 37659011 heartbeat IPC: 2.38963 cumulative IPC: 2.38987 (Simulation time: 0 hr 16 min 15 sec) 
Heartbeat CPU 1 instructions: 90000001 cycles: 39510022 heartbeat IPC: 2.27748 cumulative IPC: 2.2779 (Simulation time: 0 hr 17 min 10 sec) 
Heartbeat CPU 3 instructions: 100000000 cycles: 40547507 heartbeat IPC: 2.43204 cumulative IPC: 2.46624 (Simulation time: 0 hr 17 min 37 sec) 
Heartbeat CPU 2 instructions: 100000000 cycles: 41839770 heartbeat IPC: 2.39191 cumulative IPC: 2.39007 (Simulation time: 0 hr 18 min 8 sec) 
Heartbeat CPU 0 instructions: 80000000 cycles: 42193687 heartbeat IPC: 1.89578 cumulative IPC: 1.89602 (Simulation time: 0 hr 18 min 18 sec) 
Heartbeat CPU 1 instructions: 100000000 cycles: 43900722 heartbeat IPC: 2.27754 cumulative IPC: 2.27787 (Simulation time: 0 hr 19 min 7 sec) 
Heartbeat CPU 3 instructions: 110000003 cycles: 44434933 heartbeat IPC: 2.5724 cumulative IPC: 2.47553 (Simulation time: 0 hr 19 min 21 sec) 
Heartbeat CPU 2 instructions: 110000001 cycles: 46012011 heartbeat IPC: 2.39679 cumulative IPC: 2.39068 (Simulation time: 0 hr 20 min 1 sec) 
Heartbeat CPU 0 instructions: 90000000 cycles: 47468413 heartbeat IPC: 1.89583 cumulative IPC: 1.896 (Simulation time: 0 hr 20 min 42 sec) 
Heartbeat CPU 1 instructions: 110000000 cycles: 48290756 heartbeat IPC: 2.27789 cumulative IPC: 2.27787 (Simulation time: 0 hr 21 min 5 sec) 
Heartbeat CPU 3 instructions: 120000000 cycles: 48423264 heartbeat IPC: 2.50731 cumulative IPC: 2.47815 (Simulation time: 0 hr 21 min 8 sec) 
Heartbeat CPU 2 instructions: 120000000 cycles: 50184728 heartbeat IPC: 2.39652 cumulative IPC: 2.39117 (Simulation time: 0 hr 21 min 57 sec) 
Heartbeat CPU 1 instructions: 120000000 cycles: 52680250 heartbeat IPC: 2.27817 cumulative IPC: 2.27789 (Simulation time: 0 hr 23 min 4 sec) 
Heartbeat CPU 3 instructions: 130000003 cycles: 52713058 heartbeat IPC: 2.33112 cumulative IPC: 2.46618 (Simulation time: 0 hr 23 min 5 sec) 
Heartbeat CPU 0 instructions: 100000000 cycles: 52742849 heartbeat IPC: 1.89594 cumulative IPC: 1.89599 (Simulation time: 0 hr 23 min 6 sec) 
Heartbeat CPU 2 instructions: 130000001 cycles: 54371206 heartbeat IPC: 2.38864 cumulative IPC: 2.39097 (Simulation time: 0 hr 23 min 49 sec) 
Heartbeat CPU 3 instructions: 140000000 cycles: 56945045 heartbeat IPC: 2.36296 cumulative IPC: 2.45851 (Simulation time: 0 hr 24 min 50 sec) 
Heartbeat CPU 1 instructions: 130000001 cycles: 57069631 heartbeat IPC: 2.27823 cumulative IPC: 2.27792 (Simulation time: 0 hr 24 min 54 sec) 
Heartbeat CPU 0 instructions: 110000001 cycles: 58016426 heartbeat IPC: 1.89625 cumulative IPC: 1.89601 (Simulation time: 0 hr 25 min 17 sec) 
Heartbeat CPU 2 instructions: 140000000 cycles: 58559882 heartbeat IPC: 2.38739 cumulative IPC: 2.39072 (Simulation time: 0 hr 25 min 30 sec) 
Heartbeat CPU 3 instructions: 150000001 cycles: 60787154 heartbeat IPC: 2.60274 cumulative IPC: 2.46763 (Simulation time: 0 hr 26 min 22 sec) 
Heartbeat CPU 1 instructions: 140000000 cycles: 61458939 heartbeat IPC: 2.27826 cumulative IPC: 2.27794 (Simulation time: 0 hr 26 min 37 sec) 
Heartbeat CPU 2 instructions: 150000002 cycles: 62751593 heartbeat IPC: 2.38566 cumulative IPC: 2.39038 (Simulation time: 0 hr 27 min 7 sec) 
Heartbeat CPU 0 instructions: 120000000 cycles: 63290195 heartbeat IPC: 1.89618 cumulative IPC: 1.89603 (Simulation time: 0 hr 27 min 21 sec) 
Heartbeat CPU 3 instructions: 160000000 cycles: 65068054 heartbeat IPC: 2.33596 cumulative IPC: 2.45896 (Simulation time: 0 hr 28 min 6 sec) 
Heartbeat CPU 1 instructions: 150000003 cycles: 65850218 heartbeat IPC: 2.27724 cumulative IPC: 2.2779 (Simulation time: 0 hr 28 min 26 sec) 
Heartbeat CPU 2 instructions: 160000000 cycles: 66932745 heartbeat IPC: 2.39168 cumulative IPC: 2.39046 (Simulation time: 0 hr 28 min 55 sec) 
Heartbeat CPU 0 instructions: 130000003 cycles: 68563333 heartbeat IPC: 1.8964 cumulative IPC: 1.89606 (Simulation time: 0 hr 29 min 39 sec) 
Heartbeat CPU 3 instructions: 170000000 cycles: 69164124 heartbeat IPC: 2.44136 cumulative IPC: 2.45792 (Simulation time: 0 hr 29 min 55 sec) 
Heartbeat CPU 1 instructions: 160000000 cycles: 70240414 heartbeat IPC: 2.2778 cumulative IPC: 2.27789 (Simulation time: 0 hr 30 min 21 sec) 
Heartbeat CPU 2 instructions: 170000001 cycles: 71110264 heartbeat IPC: 2.39377 cumulative IPC: 2.39065 (Simulation time: 0 hr 30 min 45 sec) 
Heartbeat CPU 3 instructions: 180000000 cycles: 73257398 heartbeat IPC: 2.44303 cumulative IPC: 2.45709 (Simulation time: 0 hr 31 min 44 sec) 
Heartbeat CPU 0 instructions: 140000000 cycles: 73837703 heartbeat IPC: 1.89596 cumulative IPC: 1.89605 (Simulation time: 0 hr 31 min 59 sec) 
Heartbeat CPU 1 instructions: 170000001 cycles: 74630531 heartbeat IPC: 2.27784 cumulative IPC: 2.27789 (Simulation time: 0 hr 32 min 21 sec) 
Heartbeat CPU 2 instructions: 180000000 cycles: 75279042 heartbeat IPC: 2.39878 cumulative IPC: 2.3911 (Simulation time: 0 hr 32 min 45 sec) 
Heartbeat CPU 3 instructions: 190000002 cycles: 77367555 heartbeat IPC: 2.433 cumulative IPC: 2.45581 (Simulation time: 0 hr 33 min 40 sec) 
Heartbeat CPU 1 instructions: 180000000 cycles: 79019456 heartbeat IPC: 2.27846 cumulative IPC: 2.27792 (Simulation time: 0 hr 34 min 23 sec) 
Heartbeat CPU 0 instructions: 150000002 cycles: 79112578 heartbeat IPC: 1.89578 cumulative IPC: 1.89603 (Simulation time: 0 hr 34 min 26 sec) 
Heartbeat CPU 2 instructions: 190000003 cycles: 79455771 heartbeat IPC: 2.39422 cumulative IPC: 2.39127 (Simulation time: 0 hr 34 min 36 sec) 
Heartbeat CPU 3 instructions: 200000000 cycles: 81474135 heartbeat IPC: 2.43512 cumulative IPC: 2.45477 (Simulation time: 0 hr 35 min 36 sec) 
Heartbeat CPU 1 instructions: 190000003 cycles: 83408859 heartbeat IPC: 2.27821 cumulative IPC: 2.27794 (Simulation time: 0 hr 36 min 29 sec) 
Heartbeat CPU 2 instructions: 200000000 cycles: 83643388 heartbeat IPC: 2.38799 cumulative IPC: 2.3911 (Simulation time: 0 hr 36 min 35 sec) 
Heartbeat CPU 0 instructions: 160000000 cycles: 84386899 heartbeat IPC: 1.89598 cumulative IPC: 1.89603 (Simulation time: 0 hr 36 min 54 sec) 
Heartbeat CPU 3 instructions: 210000001 cycles: 85578626 heartbeat IPC: 2.43636 cumulative IPC: 0.116852 (Simulation time: 0 hr 37 min 27 sec) 
Heartbeat CPU 1 instructions: 200000000 cycles: 87798510 heartbeat IPC: 2.27808 cumulative IPC: 2.27794 (Simulation time: 0 hr 38 min 28 sec) 
Heartbeat CPU 2 instructions: 210000001 cycles: 87832304 heartbeat IPC: 2.38725 cumulative IPC: 0.113853 (Simulation time: 0 hr 38 min 29 sec) 
Heartbeat CPU 0 instructions: 170000000 cycles: 89661164 heartbeat IPC: 1.896 cumulative IPC: 1.89603 (Simulation time: 0 hr 39 min 30 sec) 
Heartbeat CPU 3 instructions: 220000000 cycles: 89677317 heartbeat IPC: 2.4398 cumulative IPC: 0.223022 (Simulation time: 0 hr 39 min 31 sec) 
Heartbeat CPU 2 instructions: 220000000 cycles: 92020808 heartbeat IPC: 2.38749 cumulative IPC: 0.217342 (Simulation time: 0 hr 40 min 35 sec) 
Heartbeat CPU 1 instructions: 210000001 cycles: 92189731 heartbeat IPC: 2.27727 cumulative IPC: 0.108472 (Simulation time: 0 hr 40 min 40 sec) 
Heartbeat CPU 3 instructions: 230000000 cycles: 93785491 heartbeat IPC: 2.43417 cumulative IPC: 0.319879 (Simulation time: 0 hr 41 min 23 sec) 
Heartbeat CPU 0 instructions: 180000000 cycles: 94934173 heartbeat IPC: 1.89645 cumulative IPC: 1.89605 (Simulation time: 0 hr 41 min 52 sec) 
Heartbeat CPU 2 instructions: 230000003 cycles: 96200881 heartbeat IPC: 2.3923 cumulative IPC: 0.311847 (Simulation time: 0 hr 42 min 27 sec) 
Heartbeat CPU 1 instructions: 220000000 cycles: 96580053 heartbeat IPC: 2.27774 cumulative IPC: 0.207082 (Simulation time: 0 hr 42 min 40 sec) 
Heartbeat CPU 3 instructions: 240000000 cycles: 97882309 heartbeat IPC: 2.44092 cumulative IPC: 0.408654 (Simulation time: 0 hr 43 min 18 sec) 
Heartbeat CPU 0 instructions: 190000002 cycles: 100207497 heartbeat IPC: 1.89634 cumulative IPC: 1.89607 (Simulation time: 0 hr 44 min 26 sec) 
Heartbeat CPU 2 instructions: 240000000 cycles: 100376512 heartbeat IPC: 2.39485 cumulative IPC: 0.3985 (Simulation time: 0 hr 44 min 31 sec) 
Heartbeat CPU 1 instructions: 230000003 cycles: 100969289 heartbeat IPC: 2.2783 cumulative IPC: 0.29712 (Simulation time: 0 hr 44 min 49 sec) 
Heartbeat CPU 3 instructions: 250000003 cycles: 101941422 heartbeat IPC: 2.46359 cumulative IPC: 0.490478 (Simulation time: 0 hr 45 min 16 sec) 
Heartbeat CPU 2 instructions: 250000000 cycles: 104547769 heartbeat IPC: 2.39736 cumulative IPC: 0.47825 (Simulation time: 0 hr 46 min 29 sec) 
Heartbeat CPU 1 instructions: 240000000 cycles: 105358903 heartbeat IPC: 2.2781 cumulative IPC: 0.379655 (Simulation time: 0 hr 46 min 50 sec) 
Heartbeat CPU 0 instructions: 200000000 cycles: 105482909 heartbeat IPC: 1.89559 cumulative IPC: 1.89604 (Simulation time: 0 hr 46 min 54 sec) 

Warmup complete CPU 0 instructions: 200000001 cycles: 105482924 (Simulation time: 0 hr 46 min 54 sec) 
Warmup complete CPU 1 instructions: 240282404 cycles: 105482923 (Simulation time: 0 hr 46 min 54 sec) 
Warmup complete CPU 2 instructions: 252242338 cycles: 105482923 (Simulation time: 0 hr 46 min 54 sec) 
Warmup complete CPU 3 instructions: 259441835 cycles: 105482923 (Simulation time: 0 hr 46 min 54 sec) 

Heartbeat CPU 3 instructions: 260000000 cycles: 106111170 heartbeat IPC: 2.39823 cumulative IPC: 0.888448 (Simulation time: 0 hr 47 min 3 sec) 
Heartbeat CPU 2 instructions: 260000000 cycles: 112280833 heartbeat IPC: 1.29315 cumulative IPC: 1.14118 (Simulation time: 0 hr 48 min 37 sec) 
Heartbeat CPU 0 instructions: 210000002 cycles: 113996719 heartbeat IPC: 1.17456 cumulative IPC: 1.17456 (Simulation time: 0 hr 49 min 2 sec) 
Heartbeat CPU 1 instructions: 250000000 cycles: 116274281 heartbeat IPC: 0.916139 cumulative IPC: 0.900498 (Simulation time: 0 hr 49 min 36 sec) 
Heartbeat CPU 3 instructions: 270000001 cycles: 116314212 heartbeat IPC: 0.9801 cumulative IPC: 0.974784 (Simulation time: 0 hr 49 min 36 sec) 
Heartbeat CPU 2 instructions: 270000000 cycles: 120870960 heartbeat IPC: 1.16413 cumulative IPC: 1.15399 (Simulation time: 0 hr 50 min 44 sec) 
Heartbeat CPU 0 instructions: 220000000 cycles: 122385461 heartbeat IPC: 1.19207 cumulative IPC: 1.18325 (Simulation time: 0 hr 51 min 8 sec) 
Heartbeat CPU 3 instructions: 280000000 cycles: 125670871 heartbeat IPC: 1.06876 cumulative IPC: 1.01834 (Simulation time: 0 hr 51 min 59 sec) 
Heartbeat CPU 1 instructions: 260000000 cycles: 127532225 heartbeat IPC: 0.888262 cumulative IPC: 0.89425 (Simulation time: 0 hr 52 min 27 sec) 
Heartbeat CPU 2 instructions: 280000000 cycles: 129842611 heartbeat IPC: 1.11462 cumulative IPC: 1.13949 (Simulation time: 0 hr 53 min 1 sec) 
Heartbeat CPU 0 instructions: 230000002 cycles: 131091010 heartbeat IPC: 1.14869 cumulative IPC: 1.1715 (Simulation time: 0 hr 53 min 20 sec) 
Heartbeat CPU 3 instructions: 290000000 cycles: 134496561 heartbeat IPC: 1.13306 cumulative IPC: 1.05323 (Simulation time: 0 hr 54 min 15 sec) 
Heartbeat CPU 2 instructions: 290000003 cycles: 139073812 heartbeat IPC: 1.08328 cumulative IPC: 1.12404 (Simulation time: 0 hr 55 min 22 sec) 
Heartbeat CPU 0 instructions: 240000000 cycles: 139889432 heartbeat IPC: 1.13657 cumulative IPC: 1.16257 (Simulation time: 0 hr 55 min 33 sec) 
Heartbeat CPU 1 instructions: 270000000 cycles: 140103306 heartbeat IPC: 0.795477 cumulative IPC: 0.858384 (Simulation time: 0 hr 55 min 36 sec) 
Heartbeat CPU 3 instructions: 300000000 cycles: 143813369 heartbeat IPC: 1.07333 cumulative IPC: 1.05812 (Simulation time: 0 hr 56 min 27 sec) 
Heartbeat CPU 2 instructions: 300000000 cycles: 147351170 heartbeat IPC: 1.20811 cumulative IPC: 1.14067 (Simulation time: 0 hr 57 min 22 sec) 
Heartbeat CPU 0 instructions: 250000003 cycles: 148175430 heartbeat IPC: 1.20686 cumulative IPC: 1.17117 (Simulation time: 0 hr 57 min 36 sec) 
Heartbeat CPU 1 instructions: 280000000 cycles: 152565572 heartbeat IPC: 0.802422 cumulative IPC: 0.843572 (Simulation time: 0 hr 58 min 44 sec) 
Heartbeat CPU 3 instructions: 310000000 cycles: 153690413 heartbeat IPC: 1.01245 cumulative IPC: 1.04876 (Simulation time: 0 hr 59 min 1 sec) 
Heartbeat CPU 2 instructions: 310000002 cycles: 156229562 heartbeat IPC: 1.12633 cumulative IPC: 1.13816 (Simulation time: 0 hr 59 min 38 sec) 
Heartbeat CPU 0 instructions: 260000000 cycles: 156835264 heartbeat IPC: 1.15476 cumulative IPC: 1.1684 (Simulation time: 0 hr 59 min 46 sec) 
Heartbeat CPU 3 instructions: 320000000 cycles: 162663128 heartbeat IPC: 1.11449 cumulative IPC: 1.05908 (Simulation time: 1 hr 1 min 12 sec) 
Heartbeat CPU 1 instructions: 290000002 cycles: 163914977 heartbeat IPC: 0.881104 cumulative IPC: 0.850862 (Simulation time: 1 hr 1 min 30 sec) 
Heartbeat CPU 2 instructions: 320000000 cycles: 165066571 heartbeat IPC: 1.1316 cumulative IPC: 1.13719 (Simulation time: 1 hr 1 min 47 sec) 
Heartbeat CPU 0 instructions: 270000001 cycles: 165358031 heartbeat IPC: 1.17333 cumulative IPC: 1.1691 (Simulation time: 1 hr 1 min 51 sec) 
Heartbeat CPU 3 instructions: 330000002 cycles: 170632721 heartbeat IPC: 1.25477 cumulative IPC: 1.08301 (Simulation time: 1 hr 3 min 5 sec) 
Heartbeat CPU 2 instructions: 330000001 cycles: 173843315 heartbeat IPC: 1.13937 cumulative IPC: 1.13747 (Simulation time: 1 hr 3 min 50 sec) 
Heartbeat CPU 0 instructions: 280000000 cycles: 173849565 heartbeat IPC: 1.17764 cumulative IPC: 1.17016 (Simulation time: 1 hr 3 min 50 sec) 
Heartbeat CPU 1 instructions: 300000000 cycles: 175148758 heartbeat IPC: 0.890172 cumulative IPC: 0.857201 (Simulation time: 1 hr 4 min 9 sec) 
Heartbeat CPU 3 instructions: 340000000 cycles: 180148996 heartbeat IPC: 1.05083 cumulative IPC: 1.07891 (Simulation time: 1 hr 5 min 16 sec) 
Heartbeat CPU 0 instructions: 290000002 cycles: 182473284 heartbeat IPC: 1.15959 cumulative IPC: 1.16898 (Simulation time: 1 hr 5 min 49 sec) 
Heartbeat CPU 2 instructions: 340000000 cycles: 182696052 heartbeat IPC: 1.12959 cumulative IPC: 1.13656 (Simulation time: 1 hr 5 min 52 sec) 
Heartbeat CPU 1 instructions: 310000000 cycles: 186470135 heartbeat IPC: 0.883285 cumulative IPC: 0.860847 (Simulation time: 1 hr 6 min 45 sec) 
Heartbeat CPU 3 instructions: 350000000 cycles: 189962766 heartbeat IPC: 1.01898 cumulative IPC: 1.07195 (Simulation time: 1 hr 7 min 35 sec) 
Heartbeat CPU 0 instructions: 300000000 cycles: 190866879 heartbeat IPC: 1.19138 cumulative IPC: 1.17118 (Simulation time: 1 hr 7 min 48 sec) 
Heartbeat CPU 2 instructions: 350000003 cycles: 191339504 heartbeat IPC: 1.15695 cumulative IPC: 1.13862 (Simulation time: 1 hr 7 min 55 sec) 
Heartbeat CPU 1 instructions: 320000000 cycles: 197588087 heartbeat IPC: 0.899446 cumulative IPC: 0.865506 (Simulation time: 1 hr 9 min 23 sec) 
Heartbeat CPU 0 instructions: 310000001 cycles: 199289395 heartbeat IPC: 1.18729 cumulative IPC: 1.17263 (Simulation time: 1 hr 9 min 48 sec) 
Heartbeat CPU 2 instructions: 360000000 cycles: 199978149 heartbeat IPC: 1.15759 cumulative IPC: 1.14035 (Simulation time: 1 hr 9 min 58 sec) 
Heartbeat CPU 3 instructions: 360000000 cycles: 200180608 heartbeat IPC: 0.97868 cumulative IPC: 1.06189 (Simulation time: 1 hr 10 min 1 sec) 
Heartbeat CPU 0 instructions: 320000000 cycles: 207685944 heartbeat IPC: 1.19097 cumulative IPC: 1.17413 (Simulation time: 1 hr 11 min 51 sec) 
Heartbeat CPU 2 instructions: 370000002 cycles: 208657811 heartbeat IPC: 1.15212 cumulative IPC: 1.14134 (Simulation time: 1 hr 12 min 5 sec) 
Heartbeat CPU 1 instructions: 330000000 cycles: 208709774 heartbeat IPC: 0.899144 cumulative IPC: 0.86913 (Simulation time: 1 hr 12 min 6 sec) 
Heartbeat CPU 3 instructions: 370000001 cycles: 209146874 heartbeat IPC: 1.11529 cumulative IPC: 1.06651 (Simulation time: 1 hr 12 min 12 sec) 
Heartbeat CPU 0 instructions: 330000003 cycles: 216087754 heartbeat IPC: 1.19022 cumulative IPC: 1.17536 (Simulation time: 1 hr 13 min 55 sec) 
Heartbeat CPU 2 instructions: 380000000 cycles: 217247349 heartbeat IPC: 1.16421 cumulative IPC: 1.1431 (Simulation time: 1 hr 14 min 12 sec) 
Heartbeat CPU 3 instructions: 380000000 cycles: 218114287 heartbeat IPC: 1.11515 cumulative IPC: 1.07038 (Simulation time: 1 hr 14 min 24 sec) 
Heartbeat CPU 1 instructions: 340000000 cycles: 219802452 heartbeat IPC: 0.901496 cumulative IPC: 0.872271 (Simulation time: 1 hr 14 min 49 sec) 
Heartbeat CPU 0 instructions: 340000000 cycles: 224477956 heartbeat IPC: 1.19187 cumulative IPC: 1.17652 (Simulation time: 1 hr 16 min 1 sec) 
Heartbeat CPU 2 instructions: 390000003 cycles: 225867550 heartbeat IPC: 1.16007 cumulative IPC: 1.14431 (Simulation time: 1 hr 16 min 23 sec) 
Heartbeat CPU 3 instructions: 390000003 cycles: 227065177 heartbeat IPC: 1.11721 cumulative IPC: 1.07383 (Simulation time: 1 hr 16 min 41 sec) 
Heartbeat CPU 1 instructions: 350000003 cycles: 230886344 heartbeat IPC: 0.90221 cumulative IPC: 0.874917 (Simulation time: 1 hr 17 min 41 sec) 
Heartbeat CPU 0 instructions: 350000002 cycles: 232875458 heartbeat IPC: 1.19083 cumulative IPC: 1.17746 (Simulation time: 1 hr 18 min 12 sec) 
Heartbeat CPU 2 instructions: 400000000 cycles: 234467704 heartbeat IPC: 1.16277 cumulative IPC: 1.14554 (Simulation time: 1 hr 18 min 37 sec) 
Heartbeat CPU 3 instructions: 400000000 cycles: 236026692 heartbeat IPC: 1.11588 cumulative IPC: 1.07671 (Simulation time: 1 hr 19 min 1 sec) 
Heartbeat CPU 0 instructions: 360000000 cycles: 241310653 heartbeat IPC: 1.18551 cumulative IPC: 1.17796 (Simulation time: 1 hr 20 min 23 sec) 
Heartbeat CPU 1 instructions: 360000000 cycles: 242006891 heartbeat IPC: 0.899236 cumulative IPC: 0.876898 (Simulation time: 1 hr 20 min 34 sec) 
Heartbeat CPU 2 instructions: 410000001 cycles: 243102828 heartbeat IPC: 1.15806 cumulative IPC: 1.14633 (Simulation time: 1 hr 20 min 51 sec) 
Heartbeat CPU 3 instructions: 410000001 cycles: 245055848 heartbeat IPC: 1.10752 cumulative IPC: 1.07871 (Simulation time: 1 hr 21 min 22 sec) 
Heartbeat CPU 0 instructions: 370000000 cycles: 249718938 heartbeat IPC: 1.1893 cumulative IPC: 1.17862 (Simulation time: 1 hr 22 min 34 sec) 
Heartbeat CPU 2 instructions: 420000000 cycles: 251676356 heartbeat IPC: 1.16638 cumulative IPC: 1.1475 (Simulation time: 1 hr 23 min 5 sec) 
Heartbeat CPU 1 instructions: 370000001 cycles: 253126336 heartbeat IPC: 0.899326 cumulative IPC: 0.878587 (Simulation time: 1 hr 23 min 27 sec) 
Heartbeat CPU 3 instructions: 420000000 cycles: 254022036 heartbeat IPC: 1.1153 cumulative IPC: 1.08092 (Simulation time: 1 hr 23 min 41 sec) 
Heartbeat CPU 0 instructions: 380000000 cycles: 258142335 heartbeat IPC: 1.18717 cumulative IPC: 1.1791 (Simulation time: 1 hr 24 min 45 sec) 
Heartbeat CPU 2 instructions: 430000003 cycles: 260379447 heartbeat IPC: 1.14902 cumulative IPC: 1.14759 (Simulation time: 1 hr 25 min 20 sec) 
Heartbeat CPU 3 instructions: 430000003 cycles: 262852690 heartbeat IPC: 1.13242 cumulative IPC: 1.08381 (Simulation time: 1 hr 25 min 59 sec) 
Heartbeat CPU 1 instructions: 380000000 cycles: 264272288 heartbeat IPC: 0.897187 cumulative IPC: 0.879893 (Simulation time: 1 hr 26 min 22 sec) 
Heartbeat CPU 0 instructions: 390000001 cycles: 266512592 heartbeat IPC: 1.19471 cumulative IPC: 1.17991 (Simulation time: 1 hr 26 min 58 sec) 
Heartbeat CPU 2 instructions: 440000000 cycles: 268999788 heartbeat IPC: 1.16005 cumulative IPC: 1.14825 (Simulation time: 1 hr 27 min 38 sec) 
Heartbeat CPU 3 instructions: 440000000 cycles: 270396377 heartbeat IPC: 1.32561 cumulative IPC: 1.09487 (Simulation time: 1 hr 27 min 59 sec) 
Heartbeat CPU 0 instructions: 400000000 cycles: 275077700 heartbeat IPC: 1.16753 cumulative IPC: 1.17928 (Simulation time: 1 hr 29 min 9 sec) 
Heartbeat CPU 1 instructions: 390000003 cycles: 275486511 heartbeat IPC: 0.891725 cumulative IPC: 0.880673 (Simulation time: 1 hr 29 min 15 sec) 
Heartbeat CPU 2 instructions: 450000002 cycles: 277645071 heartbeat IPC: 1.1567 cumulative IPC: 1.14867 (Simulation time: 1 hr 29 min 47 sec) 
Heartbeat CPU 3 instructions: 450000000 cycles: 280981170 heartbeat IPC: 0.944752 cumulative IPC: 1.08581 (Simulation time: 1 hr 30 min 37 sec) 
Heartbeat CPU 0 instructions: 410000000 cycles: 283575406 heartbeat IPC: 1.17679 cumulative IPC: 1.17916 (Simulation time: 1 hr 31 min 15 sec) 
Heartbeat CPU 2 instructions: 460000000 cycles: 286349718 heartbeat IPC: 1.14881 cumulative IPC: 1.14868 (Simulation time: 1 hr 31 min 55 sec) 
Heartbeat CPU 1 instructions: 400000000 cycles: 286691661 heartbeat IPC: 0.892447 cumulative IPC: 0.881401 (Simulation time: 1 hr 32 min 0 sec) 
Heartbeat CPU 3 instructions: 460000000 cycles: 290059170 heartbeat IPC: 1.10156 cumulative IPC: 1.08659 (Simulation time: 1 hr 32 min 50 sec) 
Heartbeat CPU 0 instructions: 420000000 cycles: 292073918 heartbeat IPC: 1.17668 cumulative IPC: 1.17905 (Simulation time: 1 hr 33 min 19 sec) 
Heartbeat CPU 2 instructions: 470000002 cycles: 295288255 heartbeat IPC: 1.11875 cumulative IPC: 1.14727 (Simulation time: 1 hr 34 min 2 sec) 
Heartbeat CPU 1 instructions: 410000001 cycles: 298100303 heartbeat IPC: 0.876529 cumulative IPC: 0.881113 (Simulation time: 1 hr 34 min 44 sec) 
Heartbeat CPU 3 instructions: 470000003 cycles: 299224975 heartbeat IPC: 1.09101 cumulative IPC: 1.0868 (Simulation time: 1 hr 35 min 0 sec) 
Heartbeat CPU 0 instructions: 430000000 cycles: 300887319 heartbeat IPC: 1.13464 cumulative IPC: 1.17705 (Simulation time: 1 hr 35 min 24 sec) 
Heartbeat CPU 2 instructions: 480000000 cycles: 304273981 heartbeat IPC: 1.11288 cumulative IPC: 1.14571 (Simulation time: 1 hr 36 min 12 sec) 
Heartbeat CPU 3 instructions: 480000000 cycles: 308299232 heartbeat IPC: 1.10202 cumulative IPC: 1.08748 (Simulation time: 1 hr 37 min 7 sec) 
Heartbeat CPU 0 instructions: 440000000 cycles: 309615217 heartbeat IPC: 1.14575 cumulative IPC: 1.17571 (Simulation time: 1 hr 37 min 25 sec) 
Heartbeat CPU 1 instructions: 420000000 cycles: 309619175 heartbeat IPC: 0.86814 cumulative IPC: 0.880381 (Simulation time: 1 hr 37 min 25 sec) 
Heartbeat CPU 2 instructions: 490000001 cycles: 312908055 heartbeat IPC: 1.1582 cumulative IPC: 1.14623 (Simulation time: 1 hr 38 min 12 sec) 
Heartbeat CPU 3 instructions: 490000000 cycles: 317856318 heartbeat IPC: 1.04634 cumulative IPC: 1.08563 (Simulation time: 1 hr 39 min 22 sec) 
Heartbeat CPU 0 instructions: 450000000 cycles: 318008136 heartbeat IPC: 1.19148 cumulative IPC: 1.17633 (Simulation time: 1 hr 39 min 25 sec) 
Heartbeat CPU 1 instructions: 430000002 cycles: 320797967 heartbeat IPC: 0.894551 cumulative IPC: 0.881116 (Simulation time: 1 hr 40 min 3 sec) 
Heartbeat CPU 2 instructions: 500000000 cycles: 321689585 heartbeat IPC: 1.13875 cumulative IPC: 1.14593 (Simulation time: 1 hr 40 min 15 sec) 
Heartbeat CPU 0 instructions: 460000000 cycles: 326755124 heartbeat IPC: 1.14325 cumulative IPC: 1.17502 (Simulation time: 1 hr 41 min 23 sec) 
Heartbeat CPU 3 instructions: 500000000 cycles: 327649100 heartbeat IPC: 1.02116 cumulative IPC: 1.08278 (Simulation time: 1 hr 41 min 36 sec) 
Heartbeat CPU 2 instructions: 510000002 cycles: 330543788 heartbeat IPC: 1.12941 cumulative IPC: 1.14528 (Simulation time: 1 hr 42 min 18 sec) 
Heartbeat CPU 1 instructions: 440000000 cycles: 332100888 heartbeat IPC: 0.884727 cumulative IPC: 0.881296 (Simulation time: 1 hr 42 min 40 sec) 
Heartbeat CPU 0 instructions: 470000000 cycles: 335193321 heartbeat IPC: 1.18509 cumulative IPC: 1.17539 (Simulation time: 1 hr 43 min 25 sec) 
Heartbeat CPU 3 instructions: 510000001 cycles: 335210245 heartbeat IPC: 1.32255 cumulative IPC: 1.09068 (Simulation time: 1 hr 43 min 25 sec) 
Heartbeat CPU 2 instructions: 520000000 cycles: 339200283 heartbeat IPC: 1.1552 cumulative IPC: 1.14565 (Simulation time: 1 hr 44 min 25 sec) 
Heartbeat CPU 1 instructions: 450000003 cycles: 343463773 heartbeat IPC: 0.880058 cumulative IPC: 0.881237 (Simulation time: 1 hr 45 min 27 sec) 
Heartbeat CPU 0 instructions: 480000000 cycles: 343771725 heartbeat IPC: 1.16572 cumulative IPC: 1.17504 (Simulation time: 1 hr 45 min 32 sec) 
Heartbeat CPU 3 instructions: 520000000 cycles: 344579800 heartbeat IPC: 1.06729 cumulative IPC: 1.08976 (Simulation time: 1 hr 45 min 43 sec) 
Heartbeat CPU 2 instructions: 530000001 cycles: 347988471 heartbeat IPC: 1.13789 cumulative IPC: 1.14537 (Simulation time: 1 hr 46 min 34 sec) 
Heartbeat CPU 0 instructions: 490000003 cycles: 352228542 heartbeat IPC: 1.18248 cumulative IPC: 1.1753 (Simulation time: 1 hr 47 min 38 sec) 
Heartbeat CPU 3 instructions: 530000001 cycles: 353961169 heartbeat IPC: 1.06594 cumulative IPC: 1.08886 (Simulation time: 1 hr 48 min 4 sec) 
Heartbeat CPU 1 instructions: 460000000 cycles: 354632174 heartbeat IPC: 0.895383 cumulative IPC: 0.881871 (Simulation time: 1 hr 48 min 14 sec) 
Heartbeat CPU 2 instructions: 540000000 cycles: 356579192 heartbeat IPC: 1.16405 cumulative IPC: 1.14601 (Simulation time: 1 hr 48 min 44 sec) 
Heartbeat CPU 0 instructions: 500000000 cycles: 360610352 heartbeat IPC: 1.19306 cumulative IPC: 1.17588 (Simulation time: 1 hr 49 min 45 sec) 
Heartbeat CPU 3 instructions: 540000000 cycles: 364392728 heartbeat IPC: 0.958629 cumulative IPC: 1.08361 (Simulation time: 1 hr 50 min 41 sec) 
Heartbeat CPU 2 instructions: 550000003 cycles: 365234166 heartbeat IPC: 1.15541 cumulative IPC: 1.14632 (Simulation time: 1 hr 50 min 54 sec) 
Heartbeat CPU 1 instructions: 470000003 cycles: 365728192 heartbeat IPC: 0.901224 cumulative IPC: 0.882697 (Simulation time: 1 hr 51 min 2 sec) 
Heartbeat CPU 0 instructions: 510000002 cycles: 368993673 heartbeat IPC: 1.19284 cumulative IPC: 1.17642 (Simulation time: 1 hr 51 min 54 sec) 
Heartbeat CPU 3 instructions: 550000003 cycles: 373295099 heartbeat IPC: 1.1233 cumulative IPC: 1.08493 (Simulation time: 1 hr 53 min 1 sec) 
Heartbeat CPU 2 instructions: 560000000 cycles: 373960288 heartbeat IPC: 1.14598 cumulative IPC: 1.14631 (Simulation time: 1 hr 53 min 11 sec) 
Heartbeat CPU 1 instructions: 480000000 cycles: 376858513 heartbeat IPC: 0.898446 cumulative IPC: 0.883343 (Simulation time: 1 hr 53 min 56 sec) 
Heartbeat CPU 0 instructions: 520000000 cycles: 377375893 heartbeat IPC: 1.193 cumulative IPC: 1.17693 (Simulation time: 1 hr 54 min 4 sec) 
Heartbeat CPU 3 instructions: 560000000 cycles: 382156974 heartbeat IPC: 1.12843 cumulative IPC: 1.08633 (Simulation time: 1 hr 55 min 19 sec) 
Heartbeat CPU 2 instructions: 570000001 cycles: 382562715 heartbeat IPC: 1.16246 cumulative IPC: 1.14681 (Simulation time: 1 hr 55 min 26 sec) 
Heartbeat CPU 0 instructions: 530000003 cycles: 385786670 heartbeat IPC: 1.18895 cumulative IPC: 1.17729 (Simulation time: 1 hr 56 min 16 sec) 
Heartbeat CPU 1 instructions: 490000001 cycles: 387972870 heartbeat IPC: 0.899737 cumulative IPC: 0.883988 (Simulation time: 1 hr 56 min 51 sec) 
Heartbeat CPU 3 instructions: 570000000 cycles: 391029799 heartbeat IPC: 1.12704 cumulative IPC: 1.08759 (Simulation time: 1 hr 57 min 39 sec) 
Heartbeat CPU 2 instructions: 580000000 cycles: 391086026 heartbeat IPC: 1.17325 cumulative IPC: 1.1476 (Simulation time: 1 hr 57 min 40 sec) 
Heartbeat CPU 0 instructions: 540000000 cycles: 394165124 heartbeat IPC: 1.19354 cumulative IPC: 1.17777 (Simulation time: 1 hr 58 min 28 sec) 
Heartbeat CPU 1 instructions: 500000000 cycles: 399099912 heartbeat IPC: 0.898711 cumulative IPC: 0.884546 (Simulation time: 1 hr 59 min 45 sec) 
Heartbeat CPU 2 instructions: 590000002 cycles: 399733342 heartbeat IPC: 1.15643 cumulative IPC: 1.14786 (Simulation time: 1 hr 59 min 55 sec) 
Heartbeat CPU 3 instructions: 580000000 cycles: 399927909 heartbeat IPC: 1.12383 cumulative IPC: 1.08869 (Simulation time: 1 hr 59 min 58 sec) 
Heartbeat CPU 0 instructions: 550000001 cycles: 402546669 heartbeat IPC: 1.1931 cumulative IPC: 1.1782 (Simulation time: 2 hr 0 min 40 sec) 
Heartbeat CPU 2 instructions: 600000000 cycles: 408370553 heartbeat IPC: 1.15778 cumulative IPC: 1.14814 (Simulation time: 2 hr 2 min 11 sec) 
Heartbeat CPU 3 instructions: 590000002 cycles: 408807420 heartbeat IPC: 1.12619 cumulative IPC: 1.08978 (Simulation time: 2 hr 2 min 17 sec) 
Heartbeat CPU 1 instructions: 510000000 cycles: 410199046 heartbeat IPC: 0.900971 cumulative IPC: 0.885144 (Simulation time: 2 hr 2 min 39 sec) 
Heartbeat CPU 0 instructions: 560000000 cycles: 410941469 heartbeat IPC: 1.19121 cumulative IPC: 1.17856 (Simulation time: 2 hr 2 min 51 sec) 
Heartbeat CPU 2 instructions: 610000003 cycles: 416985629 heartbeat IPC: 1.16076 cumulative IPC: 1.14849 (Simulation time: 2 hr 4 min 25 sec) 
Heartbeat CPU 3 instructions: 600000000 cycles: 417684905 heartbeat IPC: 1.12644 cumulative IPC: 1.09083 (Simulation time: 2 hr 4 min 36 sec) 
Heartbeat CPU 0 instructions: 570000003 cycles: 419363964 heartbeat IPC: 1.1873 cumulative IPC: 1.17879 (Simulation time: 2 hr 5 min 2 sec) 
Heartbeat CPU 1 instructions: 520000000 cycles: 421340223 heartbeat IPC: 0.897571 cumulative IPC: 0.885582 (Simulation time: 2 hr 5 min 33 sec) 
Heartbeat CPU 2 instructions: 620000000 cycles: 425616240 heartbeat IPC: 1.15867 cumulative IPC: 1.14876 (Simulation time: 2 hr 6 min 40 sec) 
Heartbeat CPU 3 instructions: 610000002 cycles: 426648216 heartbeat IPC: 1.11566 cumulative IPC: 1.09152 (Simulation time: 2 hr 6 min 56 sec) 
Heartbeat CPU 0 instructions: 580000000 cycles: 427763452 heartbeat IPC: 1.19055 cumulative IPC: 1.1791 (Simulation time: 2 hr 7 min 13 sec) 
Heartbeat CPU 1 instructions: 530000001 cycles: 432429831 heartbeat IPC: 0.901745 cumulative IPC: 0.88613 (Simulation time: 2 hr 8 min 28 sec) 
Heartbeat CPU 3 instructions: 620000000 cycles: 433983983 heartbeat IPC: 1.36318 cumulative IPC: 1.09759 (Simulation time: 2 hr 8 min 53 sec) 
Heartbeat CPU 2 instructions: 630000001 cycles: 434300020 heartbeat IPC: 1.15157 cumulative IPC: 1.14884 (Simulation time: 2 hr 8 min 58 sec) 
Heartbeat CPU 0 instructions: 590000001 cycles: 436177929 heartbeat IPC: 1.18843 cumulative IPC: 1.17933 (Simulation time: 2 hr 9 min 27 sec) 
Heartbeat CPU 2 instructions: 640000000 cycles: 443063850 heartbeat IPC: 1.14105 cumulative IPC: 1.14864 (Simulation time: 2 hr 11 min 9 sec) 
Heartbeat CPU 1 instructions: 540000000 cycles: 443665195 heartbeat IPC: 0.890047 cumulative IPC: 0.886261 (Simulation time: 2 hr 11 min 18 sec) 
Heartbeat CPU 3 instructions: 630000001 cycles: 444545931 heartbeat IPC: 0.946795 cumulative IPC: 1.09289 (Simulation time: 2 hr 11 min 31 sec) 
Heartbeat CPU 0 instructions: 600000000 cycles: 444686204 heartbeat IPC: 1.17533 cumulative IPC: 1.17923 (Simulation time: 2 hr 11 min 33 sec) 
Heartbeat CPU 2 instructions: 650000000 cycles: 451672763 heartbeat IPC: 1.16159 cumulative IPC: 1.14896 (Simulation time: 2 hr 13 min 15 sec) 
Heartbeat CPU 0 instructions: 610000000 cycles: 453080876 heartbeat IPC: 1.19123 cumulative IPC: 1.17952 (Simulation time: 2 hr 13 min 35 sec) 
Heartbeat CPU 3 instructions: 640000000 cycles: 454253192 heartbeat IPC: 1.03016 cumulative IPC: 1.09114 (Simulation time: 2 hr 13 min 52 sec) 
Heartbeat CPU 1 instructions: 550000000 cycles: 454735385 heartbeat IPC: 0.903327 cumulative IPC: 0.886801 (Simulation time: 2 hr 13 min 59 sec) 
Heartbeat CPU 2 instructions: 660000000 cycles: 460461434 heartbeat IPC: 1.13783 cumulative IPC: 1.14868 (Simulation time: 2 hr 15 min 26 sec) 
Heartbeat CPU 0 instructions: 620000000 cycles: 461722768 heartbeat IPC: 1.15715 cumulative IPC: 1.17898 (Simulation time: 2 hr 15 min 43 sec) 
Heartbeat CPU 3 instructions: 650000000 cycles: 463493764 heartbeat IPC: 1.08218 cumulative IPC: 1.09091 (Simulation time: 2 hr 16 min 10 sec) 
Heartbeat CPU 1 instructions: 560000000 cycles: 466245819 heartbeat IPC: 0.868777 cumulative IPC: 0.886226 (Simulation time: 2 hr 16 min 53 sec) 
Heartbeat CPU 2 instructions: 670000001 cycles: 469586715 heartbeat IPC: 1.09586 cumulative IPC: 1.14736 (Simulation time: 2 hr 17 min 44 sec) 
Heartbeat CPU 0 instructions: 630000002 cycles: 470589083 heartbeat IPC: 1.12786 cumulative IPC: 1.17774 (Simulation time: 2 hr 17 min 58 sec) 
Heartbeat CPU 3 instructions: 660000000 cycles: 472225056 heartbeat IPC: 1.14531 cumulative IPC: 1.09221 (Simulation time: 2 hr 18 min 21 sec) 
Heartbeat CPU 1 instructions: 570000003 cycles: 477642741 heartbeat IPC: 0.87743 cumulative IPC: 0.885957 (Simulation time: 2 hr 19 min 42 sec) 
Heartbeat CPU 2 instructions: 680000000 cycles: 478323745 heartbeat IPC: 1.14455 cumulative IPC: 1.14729 (Simulation time: 2 hr 19 min 52 sec) 
Heartbeat CPU 0 instructions: 640000000 cycles: 479064222 heartbeat IPC: 1.17992 cumulative IPC: 1.17779 (Simulation time: 2 hr 20 min 3 sec) 
Heartbeat CPU 3 instructions: 670000001 cycles: 481662321 heartbeat IPC: 1.05963 cumulative IPC: 1.09139 (Simulation time: 2 hr 20 min 43 sec) 
Heartbeat CPU 2 instructions: 690000002 cycles: 487091922 heartbeat IPC: 1.14049 cumulative IPC: 1.14714 (Simulation time: 2 hr 22 min 3 sec) 
Heartbeat CPU 0 instructions: 650000000 cycles: 487534177 heartbeat IPC: 1.18064 cumulative IPC: 1.17785 (Simulation time: 2 hr 22 min 9 sec) 
Heartbeat CPU 1 instructions: 580000000 cycles: 488918187 heartbeat IPC: 0.886883 cumulative IPC: 0.885984 (Simulation time: 2 hr 22 min 28 sec) 
Heartbeat CPU 3 instructions: 680000000 cycles: 492773219 heartbeat IPC: 0.900017 cumulative IPC: 1.0859 (Simulation time: 2 hr 23 min 21 sec) 
Heartbeat CPU 2 instructions: 700000000 cycles: 496168666 heartbeat IPC: 1.10172 cumulative IPC: 1.14608 (Simulation time: 2 hr 24 min 14 sec) 
Heartbeat CPU 0 instructions: 660000000 cycles: 496320888 heartbeat IPC: 1.13808 cumulative IPC: 1.17696 (Simulation time: 2 hr 24 min 16 sec) 
Heartbeat CPU 3 instructions: 690000000 cycles: 500196075 heartbeat IPC: 1.34719 cumulative IPC: 1.09081 (Simulation time: 2 hr 25 min 14 sec) 
Heartbeat CPU 1 instructions: 590000001 cycles: 500202526 heartbeat IPC: 0.886184 cumulative IPC: 0.88599 (Simulation time: 2 hr 25 min 14 sec) 
Heartbeat CPU 0 instructions: 670000001 cycles: 504771873 heartbeat IPC: 1.18329 cumulative IPC: 1.17709 (Simulation time: 2 hr 26 min 23 sec) 
Heartbeat CPU 2 instructions: 710000002 cycles: 504902294 heartbeat IPC: 1.145 cumulative IPC: 1.14606 (Simulation time: 2 hr 26 min 25 sec) 
Heartbeat CPU 3 instructions: 700000000 cycles: 508377672 heartbeat IPC: 1.22226 cumulative IPC: 1.09348 (Simulation time: 2 hr 27 min 17 sec) 
Heartbeat CPU 1 instructions: 600000000 cycles: 511480091 heartbeat IPC: 0.886716 cumulative IPC: 0.88601 (Simulation time: 2 hr 28 min 1 sec) 
Heartbeat CPU 0 instructions: 680000000 cycles: 513467071 heartbeat IPC: 1.15006 cumulative IPC: 1.17652 (Simulation time: 2 hr 28 min 30 sec) 
Heartbeat CPU 2 instructions: 720000000 cycles: 513800257 heartbeat IPC: 1.12385 cumulative IPC: 1.14557 (Simulation time: 2 hr 28 min 35 sec) 
Heartbeat CPU 3 instructions: 710000001 cycles: 518369777 heartbeat IPC: 1.00079 cumulative IPC: 1.09124 (Simulation time: 2 hr 29 min 44 sec) 
Heartbeat CPU 0 instructions: 690000003 cycles: 521816687 heartbeat IPC: 1.19766 cumulative IPC: 1.17694 (Simulation time: 2 hr 30 min 36 sec) 
Heartbeat CPU 2 instructions: 730000003 cycles: 522386534 heartbeat IPC: 1.16465 cumulative IPC: 1.14597 (Simulation time: 2 hr 30 min 45 sec) 
Heartbeat CPU 1 instructions: 610000003 cycles: 522677436 heartbeat IPC: 0.893069 cumulative IPC: 0.8862 (Simulation time: 2 hr 30 min 49 sec) 
Heartbeat CPU 3 instructions: 720000000 cycles: 528550992 heartbeat IPC: 0.982201 cumulative IPC: 1.08861 (Simulation time: 2 hr 32 min 18 sec) 
Heartbeat CPU 0 instructions: 700000000 cycles: 530216554 heartbeat IPC: 1.19049 cumulative IPC: 1.17721 (Simulation time: 2 hr 32 min 43 sec) 
Heartbeat CPU 2 instructions: 740000000 cycles: 530990325 heartbeat IPC: 1.16228 cumulative IPC: 1.1463 (Simulation time: 2 hr 32 min 54 sec) 
Heartbeat CPU 1 instructions: 620000000 cycles: 533734790 heartbeat IPC: 0.904375 cumulative IPC: 0.886669 (Simulation time: 2 hr 33 min 36 sec) 
Heartbeat CPU 3 instructions: 730000000 cycles: 538154508 heartbeat IPC: 1.04129 cumulative IPC: 1.08756 (Simulation time: 2 hr 34 min 44 sec) 
Heartbeat CPU 0 instructions: 710000002 cycles: 538641404 heartbeat IPC: 1.18696 cumulative IPC: 1.1774 (Simulation time: 2 hr 34 min 51 sec) 
Heartbeat CPU 2 instructions: 750000000 cycles: 539646394 heartbeat IPC: 1.15526 cumulative IPC: 1.14648 (Simulation time: 2 hr 35 min 6 sec) 
Heartbeat CPU 1 instructions: 630000001 cycles: 544775549 heartbeat IPC: 0.905735 cumulative IPC: 0.887148 (Simulation time: 2 hr 36 min 21 sec) 
Heartbeat CPU 3 instructions: 740000000 cycles: 546993801 heartbeat IPC: 1.13131 cumulative IPC: 1.08844 (Simulation time: 2 hr 36 min 54 sec) 
Heartbeat CPU 0 instructions: 720000000 cycles: 547064005 heartbeat IPC: 1.18728 cumulative IPC: 1.17759 (Simulation time: 2 hr 36 min 55 sec) 
Heartbeat CPU 2 instructions: 760000000 cycles: 548362144 heartbeat IPC: 1.14735 cumulative IPC: 1.14649 (Simulation time: 2 hr 37 min 15 sec) 
Heartbeat CPU 0 instructions: 730000000 cycles: 555511352 heartbeat IPC: 1.1838 cumulative IPC: 1.1777 (Simulation time: 2 hr 39 min 4 sec) 
Heartbeat CPU 3 instructions: 750000001 cycles: 555863960 heartbeat IPC: 1.12738 cumulative IPC: 1.08921 (Simulation time: 2 hr 39 min 10 sec) 
Heartbeat CPU 1 instructions: 640000000 cycles: 555876523 heartbeat IPC: 0.900822 cumulative IPC: 0.887485 (Simulation time: 2 hr 39 min 10 sec) 
Heartbeat CPU 2 instructions: 770000002 cycles: 557121804 heartbeat IPC: 1.1416 cumulative IPC: 1.1464 (Simulation time: 2 hr 39 min 28 sec) 
Heartbeat CPU 0 instructions: 740000000 cycles: 563932685 heartbeat IPC: 1.18746 cumulative IPC: 1.17788 (Simulation time: 2 hr 41 min 8 sec) 
Heartbeat CPU 3 instructions: 760000000 cycles: 564728472 heartbeat IPC: 1.12809 cumulative IPC: 1.08996 (Simulation time: 2 hr 41 min 20 sec) 
Heartbeat CPU 2 instructions: 780000000 cycles: 565837100 heartbeat IPC: 1.14741 cumulative IPC: 1.14642 (Simulation time: 2 hr 41 min 37 sec) 
Heartbeat CPU 1 instructions: 650000002 cycles: 566936331 heartbeat IPC: 0.904175 cumulative IPC: 0.887885 (Simulation time: 2 hr 41 min 53 sec) 
Heartbeat CPU 0 instructions: 750000001 cycles: 572296040 heartbeat IPC: 1.19569 cumulative IPC: 1.1782 (Simulation time: 2 hr 43 min 12 sec) 
Heartbeat CPU 3 instructions: 770000003 cycles: 573623028 heartbeat IPC: 1.12428 cumulative IPC: 1.09061 (Simulation time: 2 hr 43 min 31 sec) 
Heartbeat CPU 2 instructions: 790000001 cycles: 574588221 heartbeat IPC: 1.14271 cumulative IPC: 1.14635 (Simulation time: 2 hr 43 min 45 sec) 
Heartbeat CPU 1 instructions: 660000000 cycles: 578116029 heartbeat IPC: 0.894478 cumulative IPC: 0.888041 (Simulation time: 2 hr 44 min 37 sec) 
Heartbeat CPU 0 instructions: 760000000 cycles: 580695521 heartbeat IPC: 1.19055 cumulative IPC: 1.17842 (Simulation time: 2 hr 45 min 15 sec) 
Heartbeat CPU 3 instructions: 780000000 cycles: 582569468 heartbeat IPC: 1.11776 cumulative IPC: 1.09112 (Simulation time: 2 hr 45 min 45 sec) 
Heartbeat CPU 2 instructions: 800000000 cycles: 583218371 heartbeat IPC: 1.15873 cumulative IPC: 1.14657 (Simulation time: 2 hr 45 min 55 sec) 
Heartbeat CPU 0 instructions: 770000003 cycles: 589101105 heartbeat IPC: 1.18969 cumulative IPC: 1.17862 (Simulation time: 2 hr 47 min 26 sec) 
Heartbeat CPU 1 instructions: 670000002 cycles: 589235902 heartbeat IPC: 0.899291 cumulative IPC: 0.8883 (Simulation time: 2 hr 47 min 28 sec) 
Heartbeat CPU 3 instructions: 790000001 cycles: 591562430 heartbeat IPC: 1.11198 cumulative IPC: 1.0915 (Simulation time: 2 hr 48 min 4 sec) 
Heartbeat CPU 2 instructions: 810000002 cycles: 591825710 heartbeat IPC: 1.1618 cumulative IPC: 1.14684 (Simulation time: 2 hr 48 min 8 sec) 
Heartbeat CPU 0 instructions: 780000000 cycles: 597489992 heartbeat IPC: 1.19205 cumulative IPC: 1.17884 (Simulation time: 2 hr 49 min 37 sec) 
Heartbeat CPU 3 instructions: 800000000 cycles: 599685708 heartbeat IPC: 1.23103 cumulative IPC: 1.0938 (Simulation time: 2 hr 50 min 12 sec) 
Heartbeat CPU 1 instructions: 680000000 cycles: 600325827 heartbeat IPC: 0.901719 cumulative IPC: 0.8886 (Simulation time: 2 hr 50 min 23 sec) 
Heartbeat CPU 2 instructions: 820000000 cycles: 600533629 heartbeat IPC: 1.14838 cumulative IPC: 1.14687 (Simulation time: 2 hr 50 min 26 sec) 
Heartbeat CPU 0 instructions: 790000002 cycles: 605944679 heartbeat IPC: 1.18278 cumulative IPC: 1.17891 (Simulation time: 2 hr 51 min 49 sec) 
Heartbeat CPU 3 instructions: 810000000 cycles: 608511568 heartbeat IPC: 1.13303 cumulative IPC: 1.09449 (Simulation time: 2 hr 52 min 27 sec) 
Heartbeat CPU 2 instructions: 830000003 cycles: 609287411 heartbeat IPC: 1.14236 cumulative IPC: 1.14679 (Simulation time: 2 hr 52 min 39 sec) 
Heartbeat CPU 1 instructions: 690000003 cycles: 611500541 heartbeat IPC: 0.894878 cumulative IPC: 0.888739 (Simulation time: 2 hr 53 min 13 sec) 
Heartbeat CPU 0 instructions: 800000000 cycles: 614378881 heartbeat IPC: 1.18565 cumulative IPC: 1.17902 (Simulation time: 2 hr 53 min 56 sec) 
Heartbeat CPU 2 instructions: 840000000 cycles: 617840654 heartbeat IPC: 1.16915 cumulative IPC: 1.14716 (Simulation time: 2 hr 54 min 48 sec) 
Heartbeat CPU 3 instructions: 820000000 cycles: 618731093 heartbeat IPC: 0.978519 cumulative IPC: 1.09218 (Simulation time: 2 hr 55 min 2 sec) 
Heartbeat CPU 1 instructions: 700000000 cycles: 622607906 heartbeat IPC: 0.900303 cumulative IPC: 0.888987 (Simulation time: 2 hr 56 min 3 sec) 
Heartbeat CPU 0 instructions: 810000000 cycles: 622781631 heartbeat IPC: 1.19009 cumulative IPC: 1.1792 (Simulation time: 2 hr 56 min 5 sec) 
Heartbeat CPU 2 instructions: 850000000 cycles: 626635937 heartbeat IPC: 1.13697 cumulative IPC: 1.14699 (Simulation time: 2 hr 57 min 51 sec) 
Heartbeat CPU 3 instructions: 830000001 cycles: 628095090 heartbeat IPC: 1.06792 cumulative IPC: 1.09174 (Simulation time: 2 hr 58 min 37 sec) 
Heartbeat CPU 0 instructions: 820000000 cycles: 631469850 heartbeat IPC: 1.15098 cumulative IPC: 1.17874 (Simulation time: 3 hr 0 min 19 sec) 
Heartbeat CPU 1 instructions: 710000002 cycles: 634161917 heartbeat IPC: 0.8655 cumulative IPC: 0.888474 (Simulation time: 3 hr 1 min 46 sec) 
Heartbeat CPU 2 instructions: 860000000 cycles: 635756633 heartbeat IPC: 1.09641 cumulative IPC: 1.14612 (Simulation time: 3 hr 2 min 34 sec) 
Heartbeat CPU 3 instructions: 840000000 cycles: 636556713 heartbeat IPC: 1.18181 cumulative IPC: 1.09318 (Simulation time: 3 hr 3 min 0 sec) 
Heartbeat CPU 0 instructions: 830000002 cycles: 640420692 heartbeat IPC: 1.11721 cumulative IPC: 1.17771 (Simulation time: 3 hr 4 min 57 sec) 
Heartbeat CPU 2 instructions: 870000001 cycles: 644572528 heartbeat IPC: 1.13431 cumulative IPC: 1.14593 (Simulation time: 3 hr 6 min 8 sec) 
Heartbeat CPU 1 instructions: 720000000 cycles: 645611152 heartbeat IPC: 0.873421 cumulative IPC: 0.888155 (Simulation time: 3 hr 6 min 23 sec) 
Heartbeat CPU 3 instructions: 850000001 cycles: 646182950 heartbeat IPC: 1.03883 cumulative IPC: 1.09221 (Simulation time: 3 hr 6 min 32 sec) 
Heartbeat CPU 0 instructions: 840000000 cycles: 648763046 heartbeat IPC: 1.1987 cumulative IPC: 1.17803 (Simulation time: 3 hr 7 min 13 sec) 
Heartbeat CPU 2 instructions: 880000000 cycles: 653196702 heartbeat IPC: 1.15953 cumulative IPC: 1.14614 (Simulation time: 3 hr 8 min 30 sec) 
Heartbeat CPU 3 instructions: 860000000 cycles: 656442150 heartbeat IPC: 0.974735 cumulative IPC: 1.09002 (Simulation time: 3 hr 9 min 37 sec) 
Heartbeat CPU 1 instructions: 730000000 cycles: 656855266 heartbeat IPC: 0.889354 cumulative IPC: 0.888179 (Simulation time: 3 hr 9 min 43 sec) 
Heartbeat CPU 0 instructions: 850000001 cycles: 657345557 heartbeat IPC: 1.16516 cumulative IPC: 1.17783 (Simulation time: 3 hr 9 min 49 sec) 
Heartbeat CPU 2 instructions: 890000000 cycles: 662155987 heartbeat IPC: 1.11616 cumulative IPC: 1.14566 (Simulation time: 3 hr 10 min 57 sec) 
Heartbeat CPU 3 instructions: 870000001 cycles: 665190141 heartbeat IPC: 1.14312 cumulative IPC: 1.09085 (Simulation time: 3 hr 11 min 44 sec) 
Heartbeat CPU 0 instructions: 860000000 cycles: 665964860 heartbeat IPC: 1.16019 cumulative IPC: 1.17756 (Simulation time: 3 hr 11 min 56 sec) 
Heartbeat CPU 1 instructions: 740000000 cycles: 668173281 heartbeat IPC: 0.883547 cumulative IPC: 0.888086 (Simulation time: 3 hr 12 min 28 sec) 
Heartbeat CPU 2 instructions: 900000000 cycles: 670705570 heartbeat IPC: 1.16965 cumulative IPC: 1.14602 (Simulation time: 3 hr 13 min 6 sec) 
Heartbeat CPU 3 instructions: 880000000 cycles: 673449245 heartbeat IPC: 1.21078 cumulative IPC: 1.0926 (Simulation time: 3 hr 13 min 47 sec) 
Heartbeat CPU 0 instructions: 870000001 cycles: 674549381 heartbeat IPC: 1.16489 cumulative IPC: 1.17737 (Simulation time: 3 hr 14 min 3 sec) 
Heartbeat CPU 1 instructions: 750000002 cycles: 679550478 heartbeat IPC: 0.878951 cumulative IPC: 0.887905 (Simulation time: 3 hr 15 min 11 sec) 
Heartbeat CPU 2 instructions: 910000002 cycles: 679643923 heartbeat IPC: 1.11877 cumulative IPC: 1.1456 (Simulation time: 3 hr 15 min 13 sec) 
Heartbeat CPU 3 instructions: 890000000 cycles: 682972840 heartbeat IPC: 1.05002 cumulative IPC: 1.09189 (Simulation time: 3 hr 16 min 1 sec) 
Heartbeat CPU 0 instructions: 880000000 cycles: 683174211 heartbeat IPC: 1.15944 cumulative IPC: 1.1771 (Simulation time: 3 hr 16 min 4 sec) 
Heartbeat CPU 2 instructions: 920000000 cycles: 688361425 heartbeat IPC: 1.14712 cumulative IPC: 1.14562 (Simulation time: 3 hr 17 min 22 sec) 
Heartbeat CPU 1 instructions: 760000000 cycles: 690738918 heartbeat IPC: 0.893779 cumulative IPC: 0.888018 (Simulation time: 3 hr 17 min 58 sec) 
Heartbeat CPU 0 instructions: 890000003 cycles: 691580664 heartbeat IPC: 1.18956 cumulative IPC: 1.17728 (Simulation time: 3 hr 18 min 11 sec) 
Heartbeat CPU 3 instructions: 900000000 cycles: 692758626 heartbeat IPC: 1.02189 cumulative IPC: 1.09073 (Simulation time: 3 hr 18 min 28 sec) 
Heartbeat CPU 2 instructions: 930000001 cycles: 696887062 heartbeat IPC: 1.17293 cumulative IPC: 1.14601 (Simulation time: 3 hr 19 min 30 sec) 
Heartbeat CPU 0 instructions: 900000000 cycles: 700024161 heartbeat IPC: 1.18434 cumulative IPC: 1.17738 (Simulation time: 3 hr 20 min 16 sec) 
Heartbeat CPU 1 instructions: 770000000 cycles: 701969530 heartbeat IPC: 0.890423 cumulative IPC: 0.888063 (Simulation time: 3 hr 20 min 47 sec) 
Heartbeat CPU 3 instructions: 910000002 cycles: 702895997 heartbeat IPC: 0.986449 cumulative IPC: 1.08896 (Simulation time: 3 hr 21 min 1 sec) 
Heartbeat CPU 2 instructions: 940000000 cycles: 705446524 heartbeat IPC: 1.1683 cumulative IPC: 1.14633 (Simulation time: 3 hr 21 min 41 sec) 
Heartbeat CPU 0 instructions: 910000002 cycles: 708450944 heartbeat IPC: 1.18669 cumulative IPC: 1.17751 (Simulation time: 3 hr 22 min 28 sec) 
Heartbeat CPU 3 instructions: 920000000 cycles: 711671656 heartbeat IPC: 1.13952 cumulative IPC: 1.08969 (Simulation time: 3 hr 23 min 18 sec) 
Heartbeat CPU 1 instructions: 780000000 cycles: 713110206 heartbeat IPC: 0.897612 cumulative IPC: 0.888238 (Simulation time: 3 hr 23 min 40 sec) 
Heartbeat CPU 2 instructions: 950000000 cycles: 714146428 heartbeat IPC: 1.14944 cumulative IPC: 1.14638 (Simulation time: 3 hr 23 min 56 sec) 
Heartbeat CPU 0 instructions: 920000000 cycles: 716862051 heartbeat IPC: 1.1889 cumulative IPC: 1.17767 (Simulation time: 3 hr 24 min 39 sec) 
Heartbeat CPU 3 instructions: 930000002 cycles: 720449581 heartbeat IPC: 1.13922 cumulative IPC: 1.0904 (Simulation time: 3 hr 25 min 35 sec) 
Heartbeat CPU 2 instructions: 960000000 cycles: 722790677 heartbeat IPC: 1.15684 cumulative IPC: 1.14652 (Simulation time: 3 hr 26 min 11 sec) 
Heartbeat CPU 1 instructions: 790000003 cycles: 724266732 heartbeat IPC: 0.896337 cumulative IPC: 0.888384 (Simulation time: 3 hr 26 min 35 sec) 
Heartbeat CPU 0 instructions: 930000000 cycles: 725261074 heartbeat IPC: 1.19061 cumulative IPC: 1.17784 (Simulation time: 3 hr 26 min 50 sec) 
Heartbeat CPU 3 instructions: 940000000 cycles: 729185807 heartbeat IPC: 1.14466 cumulative IPC: 1.09116 (Simulation time: 3 hr 27 min 51 sec) 
Heartbeat CPU 2 instructions: 970000001 cycles: 731384812 heartbeat IPC: 1.16358 cumulative IPC: 1.14676 (Simulation time: 3 hr 28 min 26 sec) 
Heartbeat CPU 0 instructions: 940000000 cycles: 733658998 heartbeat IPC: 1.19077 cumulative IPC: 1.17801 (Simulation time: 3 hr 29 min 1 sec) 
Heartbeat CPU 1 instructions: 800000000 cycles: 735385272 heartbeat IPC: 0.899398 cumulative IPC: 0.888578 (Simulation time: 3 hr 29 min 29 sec) 
Heartbeat CPU 3 instructions: 950000003 cycles: 737946104 heartbeat IPC: 1.14151 cumulative IPC: 1.09186 (Simulation time: 3 hr 30 min 10 sec) 
Heartbeat CPU 2 instructions: 980000000 cycles: 739982848 heartbeat IPC: 1.16306 cumulative IPC: 1.14698 (Simulation time: 3 hr 30 min 42 sec) 
Heartbeat CPU 0 instructions: 950000002 cycles: 742041101 heartbeat IPC: 1.19302 cumulative IPC: 1.17821 (Simulation time: 3 hr 31 min 14 sec) 
Heartbeat CPU 1 instructions: 810000001 cycles: 746506357 heartbeat IPC: 0.899193 cumulative IPC: 0.888763 (Simulation time: 3 hr 32 min 24 sec) 
Heartbeat CPU 3 instructions: 960000000 cycles: 746694269 heartbeat IPC: 1.1431 cumulative IPC: 1.09255 (Simulation time: 3 hr 32 min 27 sec) 
Heartbeat CPU 2 instructions: 990000002 cycles: 748611250 heartbeat IPC: 1.15896 cumulative IPC: 1.14714 (Simulation time: 3 hr 32 min 57 sec) 
Heartbeat CPU 0 instructions: 960000000 cycles: 750428003 heartbeat IPC: 1.19234 cumulative IPC: 1.17839 (Simulation time: 3 hr 33 min 26 sec) 
Heartbeat CPU 3 instructions: 970000000 cycles: 755612906 heartbeat IPC: 1.12125 cumulative IPC: 1.09295 (Simulation time: 3 hr 34 min 47 sec) 
Heartbeat CPU 2 instructions: 1000000000 cycles: 757171783 heartbeat IPC: 1.16815 cumulative IPC: 1.14742 (Simulation time: 3 hr 35 min 11 sec) 
Heartbeat CPU 1 instructions: 820000000 cycles: 757652818 heartbeat IPC: 0.897146 cumulative IPC: 0.888906 (Simulation time: 3 hr 35 min 19 sec) 
Heartbeat CPU 0 instructions: 970000000 cycles: 758844655 heartbeat IPC: 1.18812 cumulative IPC: 1.17852 (Simulation time: 3 hr 35 min 37 sec) 
Heartbeat CPU 3 instructions: 980000000 cycles: 764645564 heartbeat IPC: 1.10709 cumulative IPC: 1.09314 (Simulation time: 3 hr 37 min 7 sec) 
Heartbeat CPU 2 instructions: 1010000002 cycles: 765745865 heartbeat IPC: 1.16631 cumulative IPC: 1.14766 (Simulation time: 3 hr 37 min 25 sec) 
Heartbeat CPU 0 instructions: 980000000 cycles: 767250475 heartbeat IPC: 1.18965 cumulative IPC: 1.17866 (Simulation time: 3 hr 37 min 49 sec) 
Heartbeat CPU 1 instructions: 830000003 cycles: 768798417 heartbeat IPC: 0.897215 cumulative IPC: 0.889045 (Simulation time: 3 hr 38 min 14 sec) 
Heartbeat CPU 3 instructions: 990000002 cycles: 772091870 heartbeat IPC: 1.34295 cumulative IPC: 1.09593 (Simulation time: 3 hr 39 min 6 sec) 
Heartbeat CPU 2 instructions: 1020000000 cycles: 774517965 heartbeat IPC: 1.13998 cumulative IPC: 1.14756 (Simulation time: 3 hr 39 min 42 sec) 
Heartbeat CPU 0 instructions: 990000003 cycles: 775790596 heartbeat IPC: 1.17094 cumulative IPC: 1.17856 (Simulation time: 3 hr 40 min 0 sec) 
Heartbeat CPU 1 instructions: 840000000 cycles: 780023411 heartbeat IPC: 0.890869 cumulative IPC: 0.889076 (Simulation time: 3 hr 41 min 4 sec) 
Heartbeat CPU 3 instructions: 1000000000 cycles: 782664376 heartbeat IPC: 0.945849 cumulative IPC: 1.09359 (Simulation time: 3 hr 41 min 51 sec) 
Heartbeat CPU 2 instructions: 1030000003 cycles: 783130746 heartbeat IPC: 1.16107 cumulative IPC: 1.14773 (Simulation time: 3 hr 41 min 59 sec) 
Heartbeat CPU 0 instructions: 1000000000 cycles: 784189290 heartbeat IPC: 1.19066 cumulative IPC: 1.17871 (Simulation time: 3 hr 42 min 17 sec) 
Heartbeat CPU 1 instructions: 850000002 cycles: 791124443 heartbeat IPC: 0.900817 cumulative IPC: 0.889266 (Simulation time: 3 hr 44 min 4 sec) 
Heartbeat CPU 2 instructions: 1040000000 cycles: 791764794 heartbeat IPC: 1.1582 cumulative IPC: 1.14786 (Simulation time: 3 hr 44 min 14 sec) 
Heartbeat CPU 3 instructions: 1010000002 cycles: 791993253 heartbeat IPC: 1.07194 cumulative IPC: 1.09329 (Simulation time: 3 hr 44 min 18 sec) 
Heartbeat CPU 0 instructions: 1010000000 cycles: 792648856 heartbeat IPC: 1.18209 cumulative IPC: 1.17875 (Simulation time: 3 hr 44 min 30 sec) 
Heartbeat CPU 2 instructions: 1050000001 cycles: 800779820 heartbeat IPC: 1.10926 cumulative IPC: 1.14736 (Simulation time: 3 hr 46 min 43 sec) 
Heartbeat CPU 3 instructions: 1020000000 cycles: 801060023 heartbeat IPC: 1.10293 cumulative IPC: 1.09342 (Simulation time: 3 hr 46 min 49 sec) 
Heartbeat CPU 0 instructions: 1020000000 cycles: 801433823 heartbeat IPC: 1.13831 cumulative IPC: 1.17824 (Simulation time: 3 hr 46 min 55 sec) 
Heartbeat CPU 1 instructions: 860000000 cycles: 802704979 heartbeat IPC: 0.863518 cumulative IPC: 0.888838 (Simulation time: 3 hr 47 min 15 sec) 
Heartbeat CPU 2 instructions: 1060000000 cycles: 809807766 heartbeat IPC: 1.10767 cumulative IPC: 1.14685 (Simulation time: 3 hr 49 min 5 sec) 
Heartbeat CPU 3 instructions: 1030000000 cycles: 810170535 heartbeat IPC: 1.09763 cumulative IPC: 1.09347 (Simulation time: 3 hr 49 min 11 sec) 
Heartbeat CPU 0 instructions: 1030000002 cycles: 810222833 heartbeat IPC: 1.13778 cumulative IPC: 1.17774 (Simulation time: 3 hr 49 min 11 sec) 
Heartbeat CPU 1 instructions: 870000001 cycles: 814077965 heartbeat IPC: 0.879277 cumulative IPC: 0.888685 (Simulation time: 3 hr 50 min 8 sec) 
Heartbeat CPU 2 instructions: 1070000001 cycles: 818406771 heartbeat IPC: 1.16293 cumulative IPC: 1.14705 (Simulation time: 3 hr 51 min 16 sec) 
Heartbeat CPU 0 instructions: 1040000000 cycles: 818677997 heartbeat IPC: 1.18271 cumulative IPC: 1.1778 (Simulation time: 3 hr 51 min 20 sec) 
Heartbeat CPU 3 instructions: 1040000000 cycles: 819927549 heartbeat IPC: 1.0249 cumulative IPC: 1.09254 (Simulation time: 3 hr 51 min 38 sec) 
Heartbeat CPU 1 instructions: 880000000 cycles: 825354732 heartbeat IPC: 0.886779 cumulative IPC: 0.888655 (Simulation time: 3 hr 52 min 56 sec) 
Heartbeat CPU 2 instructions: 1080000000 cycles: 827316706 heartbeat IPC: 1.12234 cumulative IPC: 1.14674 (Simulation time: 3 hr 53 min 22 sec) 
Heartbeat CPU 0 instructions: 1050000002 cycles: 827366812 heartbeat IPC: 1.15091 cumulative IPC: 1.17747 (Simulation time: 3 hr 53 min 23 sec) 
Heartbeat CPU 3 instructions: 1050000001 cycles: 830164865 heartbeat IPC: 0.976819 cumulative IPC: 1.0909 (Simulation time: 3 hr 54 min 4 sec) 
Heartbeat CPU 0 instructions: 1060000000 cycles: 835799684 heartbeat IPC: 1.18584 cumulative IPC: 1.17757 (Simulation time: 3 hr 55 min 29 sec) 
Heartbeat CPU 2 instructions: 1090000000 cycles: 835985456 heartbeat IPC: 1.15357 cumulative IPC: 1.14682 (Simulation time: 3 hr 55 min 32 sec) 
Heartbeat CPU 1 instructions: 890000003 cycles: 836628939 heartbeat IPC: 0.886981 cumulative IPC: 0.888629 (Simulation time: 3 hr 55 min 41 sec) 
Heartbeat CPU 3 instructions: 1060000000 cycles: 837928614 heartbeat IPC: 1.28804 cumulative IPC: 1.09299 (Simulation time: 3 hr 56 min 1 sec) 
Heartbeat CPU 0 instructions: 1070000000 cycles: 844445011 heartbeat IPC: 1.15669 cumulative IPC: 1.17733 (Simulation time: 3 hr 57 min 45 sec) 
Heartbeat CPU 2 instructions: 1100000000 cycles: 844931295 heartbeat IPC: 1.11784 cumulative IPC: 1.14647 (Simulation time: 3 hr 57 min 52 sec) 
Heartbeat CPU 3 instructions: 1070000001 cycles: 847292820 heartbeat IPC: 1.0679 cumulative IPC: 1.09268 (Simulation time: 3 hr 58 min 42 sec) 
Heartbeat CPU 1 instructions: 900000000 cycles: 848113033 heartbeat IPC: 0.870769 cumulative IPC: 0.888353 (Simulation time: 3 hr 59 min 5 sec) 
Heartbeat CPU 0 instructions: 1080000000 cycles: 853038476 heartbeat IPC: 1.16367 cumulative IPC: 1.17717 (Simulation time: 4 hr 0 min 53 sec) 
Heartbeat CPU 2 instructions: 1110000000 cycles: 853744603 heartbeat IPC: 1.13465 cumulative IPC: 1.14633 (Simulation time: 4 hr 1 min 3 sec) 
Heartbeat CPU 3 instructions: 1080000000 cycles: 856630511 heartbeat IPC: 1.07093 cumulative IPC: 1.09241 (Simulation time: 4 hr 1 min 47 sec) 
Heartbeat CPU 1 instructions: 910000002 cycles: 859221405 heartbeat IPC: 0.900222 cumulative IPC: 0.888528 (Simulation time: 4 hr 2 min 26 sec) 
Heartbeat CPU 0 instructions: 1090000000 cycles: 861428496 heartbeat IPC: 1.19189 cumulative IPC: 1.17733 (Simulation time: 4 hr 3 min 0 sec) 
Heartbeat CPU 2 instructions: 1120000000 cycles: 862378096 heartbeat IPC: 1.15828 cumulative IPC: 1.14647 (Simulation time: 4 hr 3 min 14 sec) 
Heartbeat CPU 3 instructions: 1090000000 cycles: 866953914 heartbeat IPC: 0.968673 cumulative IPC: 1.09073 (Simulation time: 4 hr 4 min 45 sec) 
Heartbeat CPU 0 instructions: 1100000000 cycles: 869852101 heartbeat IPC: 1.18714 cumulative IPC: 1.17744 (Simulation time: 4 hr 6 min 18 sec) 
Heartbeat CPU 1 instructions: 920000000 cycles: 870281601 heartbeat IPC: 0.904143 cumulative IPC: 0.888754 (Simulation time: 4 hr 6 min 32 sec) 
Heartbeat CPU 2 instructions: 1130000001 cycles: 871013551 heartbeat IPC: 1.15802 cumulative IPC: 1.1466 (Simulation time: 4 hr 6 min 56 sec) 
Heartbeat CPU 3 instructions: 1100000000 cycles: 875957082 heartbeat IPC: 1.11072 cumulative IPC: 1.09096 (Simulation time: 4 hr 8 min 48 sec) 
Heartbeat CPU 0 instructions: 1110000000 cycles: 878256192 heartbeat IPC: 1.1899 cumulative IPC: 1.17758 (Simulation time: 4 hr 9 min 27 sec) 
Heartbeat CPU 2 instructions: 1140000000 cycles: 879669303 heartbeat IPC: 1.1553 cumulative IPC: 1.1467 (Simulation time: 4 hr 9 min 52 sec) 
Heartbeat CPU 1 instructions: 930000003 cycles: 881400910 heartbeat IPC: 0.899337 cumulative IPC: 0.888905 (Simulation time: 4 hr 10 min 20 sec) 
Heartbeat CPU 3 instructions: 1110000001 cycles: 884806646 heartbeat IPC: 1.13 cumulative IPC: 1.09141 (Simulation time: 4 hr 11 min 13 sec) 
Heartbeat CPU 0 instructions: 1120000000 cycles: 886651668 heartbeat IPC: 1.19112 cumulative IPC: 1.17772 (Simulation time: 4 hr 11 min 41 sec) 
Heartbeat CPU 2 instructions: 1150000001 cycles: 888317850 heartbeat IPC: 1.15626 cumulative IPC: 1.1468 (Simulation time: 4 hr 12 min 7 sec) 
Heartbeat CPU 1 instructions: 940000000 cycles: 892516694 heartbeat IPC: 0.899621 cumulative IPC: 0.889057 (Simulation time: 4 hr 13 min 12 sec) 
Heartbeat CPU 3 instructions: 1120000000 cycles: 893586313 heartbeat IPC: 1.139 cumulative IPC: 1.09194 (Simulation time: 4 hr 13 min 29 sec) 
Heartbeat CPU 0 instructions: 1130000000 cycles: 895059776 heartbeat IPC: 1.18933 cumulative IPC: 1.17785 (Simulation time: 4 hr 13 min 52 sec) 
Heartbeat CPU 2 instructions: 1160000000 cycles: 896968351 heartbeat IPC: 1.156 cumulative IPC: 1.1469 (Simulation time: 4 hr 14 min 22 sec) 
Heartbeat CPU 3 instructions: 1130000000 cycles: 902393835 heartbeat IPC: 1.13539 cumulative IPC: 1.09242 (Simulation time: 4 hr 15 min 46 sec) 
Heartbeat CPU 0 instructions: 1140000000 cycles: 903520666 heartbeat IPC: 1.18191 cumulative IPC: 1.17789 (Simulation time: 4 hr 16 min 3 sec) 
Heartbeat CPU 1 instructions: 950000000 cycles: 903652637 heartbeat IPC: 0.897993 cumulative IPC: 0.889181 (Simulation time: 4 hr 16 min 5 sec) 
Heartbeat CPU 2 instructions: 1170000000 cycles: 905728946 heartbeat IPC: 1.14147 cumulative IPC: 1.14684 (Simulation time: 4 hr 16 min 37 sec) 
Heartbeat CPU 3 instructions: 1140000000 cycles: 911198499 heartbeat IPC: 1.13576 cumulative IPC: 1.09289 (Simulation time: 4 hr 18 min 2 sec) 
Heartbeat CPU 0 instructions: 1150000001 cycles: 911921725 heartbeat IPC: 1.19033 cumulative IPC: 1.17802 (Simulation time: 4 hr 18 min 14 sec) 
Heartbeat CPU 2 instructions: 1180000000 cycles: 914311162 heartbeat IPC: 1.1652 cumulative IPC: 1.14704 (Simulation time: 4 hr 18 min 51 sec) 
Heartbeat CPU 1 instructions: 960000000 cycles: 914769953 heartbeat IPC: 0.899498 cumulative IPC: 0.889323 (Simulation time: 4 hr 18 min 58 sec) 
Heartbeat CPU 3 instructions: 1150000002 cycles: 920033779 heartbeat IPC: 1.13183 cumulative IPC: 1.09331 (Simulation time: 4 hr 20 min 20 sec) 
Heartbeat CPU 0 instructions: 1160000000 cycles: 920327512 heartbeat IPC: 1.18966 cumulative IPC: 1.17814 (Simulation time: 4 hr 20 min 25 sec) 
Heartbeat CPU 2 instructions: 1190000001 cycles: 922959598 heartbeat IPC: 1.15628 cumulative IPC: 1.14714 (Simulation time: 4 hr 21 min 5 sec) 
Heartbeat CPU 1 instructions: 970000002 cycles: 925858102 heartbeat IPC: 0.901864 cumulative IPC: 0.889493 (Simulation time: 4 hr 21 min 50 sec) 
Heartbeat CPU 0 instructions: 1170000000 cycles: 928722183 heartbeat IPC: 1.19123 cumulative IPC: 1.17827 (Simulation time: 4 hr 22 min 33 sec) 
Heartbeat CPU 3 instructions: 1160000000 cycles: 929088149 heartbeat IPC: 1.10444 cumulative IPC: 1.09343 (Simulation time: 4 hr 22 min 39 sec) 
Heartbeat CPU 2 instructions: 1200000000 cycles: 931673426 heartbeat IPC: 1.1476 cumulative IPC: 1.14714 (Simulation time: 4 hr 23 min 19 sec) 
Heartbeat CPU 3 instructions: 1170000003 cycles: 936730685 heartbeat IPC: 1.30847 cumulative IPC: 1.09541 (Simulation time: 4 hr 24 min 39 sec) 
Heartbeat CPU 1 instructions: 980000000 cycles: 937047039 heartbeat IPC: 0.89374 cumulative IPC: 0.88955 (Simulation time: 4 hr 24 min 44 sec) 
Heartbeat CPU 0 instructions: 1180000000 cycles: 937089618 heartbeat IPC: 1.19511 cumulative IPC: 1.17844 (Simulation time: 4 hr 24 min 45 sec) 
Heartbeat CPU 2 instructions: 1210000002 cycles: 940349994 heartbeat IPC: 1.15253 cumulative IPC: 1.1472 (Simulation time: 4 hr 25 min 35 sec) 
Heartbeat CPU 0 instructions: 1190000003 cycles: 945625114 heartbeat IPC: 1.17158 cumulative IPC: 1.17837 (Simulation time: 4 hr 26 min 52 sec) 
Heartbeat CPU 3 instructions: 1180000000 cycles: 946538486 heartbeat IPC: 1.0196 cumulative IPC: 1.09453 (Simulation time: 4 hr 27 min 5 sec) 
Heartbeat CPU 1 instructions: 990000000 cycles: 948252804 heartbeat IPC: 0.892398 cumulative IPC: 0.889588 (Simulation time: 4 hr 27 min 31 sec) 
Heartbeat CPU 2 instructions: 1220000000 cycles: 949108313 heartbeat IPC: 1.14177 cumulative IPC: 1.14714 (Simulation time: 4 hr 27 min 43 sec) 
Heartbeat CPU 0 instructions: 1200000000 cycles: 954033289 heartbeat IPC: 1.18932 cumulative IPC: 1.17848 (Simulation time: 4 hr 28 min 57 sec) 
Finished CPU 0 instructions: 1000000000 cycles: 848550380 cumulative IPC: 1.17848 (Simulation time: 4 hr 28 min 57 sec) 
Heartbeat CPU 3 instructions: 1190000000 cycles: 956512936 heartbeat IPC: 1.00256 cumulative IPC: 1.09345 (Simulation time: 4 hr 29 min 34 sec) 
Heartbeat CPU 2 instructions: 1230000001 cycles: 957771809 heartbeat IPC: 1.15427 cumulative IPC: 1.14721 (Simulation time: 4 hr 29 min 53 sec) 
Heartbeat CPU 1 instructions: 1000000000 cycles: 959372706 heartbeat IPC: 0.899288 cumulative IPC: 0.889714 (Simulation time: 4 hr 30 min 18 sec) 
Heartbeat CPU 0 instructions: 1210000001 cycles: 962584735 heartbeat IPC: 1.16939 cumulative IPC: 1.17839 (Simulation time: 4 hr 31 min 6 sec) 
Heartbeat CPU 3 instructions: 1200000000 cycles: 966150249 heartbeat IPC: 1.03763 cumulative IPC: 1.09282 (Simulation time: 4 hr 31 min 58 sec) 
Heartbeat CPU 2 instructions: 1240000000 cycles: 966768970 heartbeat IPC: 1.11146 cumulative IPC: 1.14684 (Simulation time: 4 hr 32 min 7 sec) 
Heartbeat CPU 1 instructions: 1010000001 cycles: 970931118 heartbeat IPC: 0.865171 cumulative IPC: 0.889386 (Simulation time: 4 hr 33 min 11 sec) 
Heartbeat CPU 0 instructions: 1220000000 cycles: 971447002 heartbeat IPC: 1.12838 cumulative IPC: 1.17788 (Simulation time: 4 hr 33 min 19 sec) 
Heartbeat CPU 3 instructions: 1210000001 cycles: 974156017 heartbeat IPC: 1.2491 cumulative IPC: 1.09426 (Simulation time: 4 hr 33 min 59 sec) 
Heartbeat CPU 2 instructions: 1250000003 cycles: 975934406 heartbeat IPC: 1.09106 cumulative IPC: 1.14625 (Simulation time: 4 hr 34 min 24 sec) 
Finished CPU 2 instructions: 1000000000 cycles: 872332600 cumulative IPC: 1.14635 (Simulation time: 4 hr 34 min 52 sec) 
Heartbeat CPU 0 instructions: 1230000002 cycles: 980058297 heartbeat IPC: 1.16127 cumulative IPC: 1.17771 (Simulation time: 4 hr 35 min 25 sec) 
Heartbeat CPU 1 instructions: 1020000000 cycles: 982211062 heartbeat IPC: 0.886529 cumulative IPC: 0.889349 (Simulation time: 4 hr 35 min 57 sec) 
Heartbeat CPU 3 instructions: 1220000000 cycles: 984084812 heartbeat IPC: 1.00717 cumulative IPC: 1.09328 (Simulation time: 4 hr 36 min 25 sec) 
Heartbeat CPU 2 instructions: 1260000000 cycles: 984435465 heartbeat IPC: 1.17632 cumulative IPC: 1.14654 (Simulation time: 4 hr 36 min 31 sec) 
Heartbeat CPU 0 instructions: 1240000000 cycles: 988480682 heartbeat IPC: 1.18731 cumulative IPC: 1.17781 (Simulation time: 4 hr 37 min 30 sec) 
Heartbeat CPU 2 instructions: 1270000003 cycles: 993245153 heartbeat IPC: 1.13511 cumulative IPC: 1.14643 (Simulation time: 4 hr 38 min 39 sec) 
Heartbeat CPU 1 instructions: 1030000003 cycles: 993525874 heartbeat IPC: 0.883798 cumulative IPC: 0.889279 (Simulation time: 4 hr 38 min 43 sec) 
Heartbeat CPU 3 instructions: 1230000003 cycles: 995391998 heartbeat IPC: 0.884394 cumulative IPC: 1.09063 (Simulation time: 4 hr 39 min 8 sec) 
Heartbeat CPU 0 instructions: 1250000000 cycles: 997221746 heartbeat IPC: 1.14403 cumulative IPC: 1.17747 (Simulation time: 4 hr 39 min 34 sec) 
Heartbeat CPU 2 instructions: 1280000000 cycles: 1002047542 heartbeat IPC: 1.13605 cumulative IPC: 1.14633 (Simulation time: 4 hr 40 min 48 sec) 
Heartbeat CPU 3 instructions: 1240000000 cycles: 1002352957 heartbeat IPC: 1.43658 cumulative IPC: 1.09331 (Simulation time: 4 hr 40 min 53 sec) 
Heartbeat CPU 1 instructions: 1040000000 cycles: 1004773475 heartbeat IPC: 0.889078 cumulative IPC: 0.889276 (Simulation time: 4 hr 41 min 27 sec) 
Heartbeat CPU 0 instructions: 1260000000 cycles: 1005687841 heartbeat IPC: 1.18118 cumulative IPC: 1.17751 (Simulation time: 4 hr 41 min 41 sec) 
Heartbeat CPU 2 instructions: 1290000001 cycles: 1010811135 heartbeat IPC: 1.14108 cumulative IPC: 1.14628 (Simulation time: 4 hr 42 min 57 sec) 
Heartbeat CPU 3 instructions: 1250000000 cycles: 1011259322 heartbeat IPC: 1.12279 cumulative IPC: 1.0936 (Simulation time: 4 hr 43 min 4 sec) 
Heartbeat CPU 0 instructions: 1270000000 cycles: 1014337693 heartbeat IPC: 1.15609 cumulative IPC: 1.17731 (Simulation time: 4 hr 43 min 48 sec) 
Heartbeat CPU 1 instructions: 1050000001 cycles: 1016153063 heartbeat IPC: 0.878767 cumulative IPC: 0.889145 (Simulation time: 4 hr 44 min 13 sec) 
Heartbeat CPU 2 instructions: 1300000000 cycles: 1019767941 heartbeat IPC: 1.11647 cumulative IPC: 1.14599 (Simulation time: 4 hr 45 min 6 sec) 
Finished CPU 3 instructions: 1000000003 cycles: 914822111 cumulative IPC: 1.09311 (Simulation time: 4 hr 45 min 14 sec) 
Heartbeat CPU 3 instructions: 1260000000 cycles: 1020993877 heartbeat IPC: 1.02727 cumulative IPC: 1.0929 (Simulation time: 4 hr 45 min 24 sec) 
Heartbeat CPU 0 instructions: 1280000000 cycles: 1022834650 heartbeat IPC: 1.17689 cumulative IPC: 1.1773 (Simulation time: 4 hr 45 min 52 sec) 
Heartbeat CPU 1 instructions: 1060000000 cycles: 1027294898 heartbeat IPC: 0.897518 cumulative IPC: 0.889246 (Simulation time: 4 hr 46 min 59 sec) 
Heartbeat CPU 2 instructions: 1310000000 cycles: 1028358693 heartbeat IPC: 1.16404 cumulative IPC: 1.14615 (Simulation time: 4 hr 47 min 15 sec) 
Heartbeat CPU 3 instructions: 1270000002 cycles: 1031104818 heartbeat IPC: 0.989028 cumulative IPC: 1.09176 (Simulation time: 4 hr 47 min 57 sec) 
Heartbeat CPU 0 instructions: 1290000001 cycles: 1031208318 heartbeat IPC: 1.19422 cumulative IPC: 1.17745 (Simulation time: 4 hr 47 min 59 sec) 
Heartbeat CPU 2 instructions: 1320000000 cycles: 1036912143 heartbeat IPC: 1.16912 cumulative IPC: 1.14636 (Simulation time: 4 hr 49 min 24 sec) 
Heartbeat CPU 1 instructions: 1070000002 cycles: 1038381034 heartbeat IPC: 0.902028 cumulative IPC: 0.889398 (Simulation time: 4 hr 49 min 47 sec) 
Heartbeat CPU 0 instructions: 1300000000 cycles: 1039601304 heartbeat IPC: 1.19147 cumulative IPC: 1.17758 (Simulation time: 4 hr 50 min 6 sec) 
Heartbeat CPU 3 instructions: 1280000000 cycles: 1040918583 heartbeat IPC: 1.01898 cumulative IPC: 1.091 (Simulation time: 4 hr 50 min 26 sec) 
Heartbeat CPU 2 instructions: 1330000001 cycles: 1045543330 heartbeat IPC: 1.15859 cumulative IPC: 1.14648 (Simulation time: 4 hr 51 min 38 sec) 
Heartbeat CPU 0 instructions: 1310000000 cycles: 1047997063 heartbeat IPC: 1.19108 cumulative IPC: 1.1777 (Simulation time: 4 hr 52 min 16 sec) 
Heartbeat CPU 1 instructions: 1080000000 cycles: 1049514895 heartbeat IPC: 0.898161 cumulative IPC: 0.889501 (Simulation time: 4 hr 52 min 40 sec) 
Heartbeat CPU 3 instructions: 1290000001 cycles: 1049736072 heartbeat IPC: 1.13411 cumulative IPC: 1.0914 (Simulation time: 4 hr 52 min 43 sec) 
Heartbeat CPU 2 instructions: 1340000000 cycles: 1054160368 heartbeat IPC: 1.16049 cumulative IPC: 1.1466 (Simulation time: 4 hr 53 min 53 sec) 
Heartbeat CPU 0 instructions: 1320000000 cycles: 1056381551 heartbeat IPC: 1.19268 cumulative IPC: 1.17783 (Simulation time: 4 hr 54 min 27 sec) 
Heartbeat CPU 3 instructions: 1300000000 cycles: 1058513664 heartbeat IPC: 1.13926 cumulative IPC: 1.09184 (Simulation time: 4 hr 55 min 0 sec) 
Heartbeat CPU 1 instructions: 1090000001 cycles: 1060647593 heartbeat IPC: 0.898255 cumulative IPC: 0.889603 (Simulation time: 4 hr 55 min 34 sec) 
Heartbeat CPU 2 instructions: 1350000002 cycles: 1062764838 heartbeat IPC: 1.16219 cumulative IPC: 1.14674 (Simulation time: 4 hr 56 min 6 sec) 
Heartbeat CPU 0 instructions: 1330000000 cycles: 1064787418 heartbeat IPC: 1.18965 cumulative IPC: 1.17794 (Simulation time: 4 hr 56 min 38 sec) 
Heartbeat CPU 3 instructions: 1310000001 cycles: 1067271570 heartbeat IPC: 1.14183 cumulative IPC: 1.0923 (Simulation time: 4 hr 57 min 17 sec) 
Heartbeat CPU 2 instructions: 1360000000 cycles: 1071398762 heartbeat IPC: 1.15822 cumulative IPC: 1.14685 (Simulation time: 4 hr 58 min 21 sec) 
Heartbeat CPU 1 instructions: 1100000000 cycles: 1071757542 heartbeat IPC: 0.900094 cumulative IPC: 0.889724 (Simulation time: 4 hr 58 min 27 sec) 
Heartbeat CPU 0 instructions: 1340000000 cycles: 1073190647 heartbeat IPC: 1.19002 cumulative IPC: 1.17804 (Simulation time: 4 hr 58 min 49 sec) 
Heartbeat CPU 3 instructions: 1320000000 cycles: 1076039874 heartbeat IPC: 1.14047 cumulative IPC: 1.09273 (Simulation time: 4 hr 59 min 34 sec) 
Heartbeat CPU 2 instructions: 1370000003 cycles: 1079998316 heartbeat IPC: 1.16285 cumulative IPC: 1.14699 (Simulation time: 5 hr 0 min 36 sec) 
Heartbeat CPU 0 instructions: 1350000002 cycles: 1081583230 heartbeat IPC: 1.19153 cumulative IPC: 1.17816 (Simulation time: 5 hr 1 min 0 sec) 
Heartbeat CPU 1 instructions: 1110000000 cycles: 1082868156 heartbeat IPC: 0.90004 cumulative IPC: 0.889841 (Simulation time: 5 hr 1 min 20 sec) 
Heartbeat CPU 3 instructions: 1330000000 cycles: 1084772400 heartbeat IPC: 1.14514 cumulative IPC: 1.0932 (Simulation time: 5 hr 1 min 46 sec) 
Heartbeat CPU 0 instructions: 1360000000 cycles: 1089836551 heartbeat IPC: 1.21163 cumulative IPC: 1.17844 (Simulation time: 5 hr 2 min 54 sec) 
Heartbeat CPU 3 instructions: 1340000000 cycles: 1093679309 heartbeat IPC: 1.12272 cumulative IPC: 1.09346 (Simulation time: 5 hr 3 min 45 sec) 
Heartbeat CPU 1 instructions: 1120000000 cycles: 1093845522 heartbeat IPC: 0.910965 cumulative IPC: 0.890076 (Simulation time: 5 hr 3 min 47 sec) 
Heartbeat CPU 0 instructions: 1370000003 cycles: 1098056611 heartbeat IPC: 1.21654 cumulative IPC: 1.17875 (Simulation time: 5 hr 4 min 43 sec) 
Heartbeat CPU 2 instructions: 1380000000 cycles: 1100775329 heartbeat IPC: 0.481301 cumulative IPC: 1.13309 (Simulation time: 5 hr 5 min 20 sec) 
Heartbeat CPU 3 instructions: 1350000001 cycles: 1102269088 heartbeat IPC: 1.16417 cumulative IPC: 1.09407 (Simulation time: 5 hr 5 min 40 sec) 
Heartbeat CPU 1 instructions: 1130000002 cycles: 1104805700 heartbeat IPC: 0.912394 cumulative IPC: 0.890321 (Simulation time: 5 hr 6 min 16 sec) 
Heartbeat CPU 0 instructions: 1380000000 cycles: 1106255946 heartbeat IPC: 1.21961 cumulative IPC: 1.17909 (Simulation time: 5 hr 6 min 36 sec) 
Heartbeat CPU 3 instructions: 1360000000 cycles: 1110360845 heartbeat IPC: 1.23583 cumulative IPC: 1.09522 (Simulation time: 5 hr 7 min 29 sec) 
Heartbeat CPU 0 instructions: 1390000003 cycles: 1114576759 heartbeat IPC: 1.20181 cumulative IPC: 1.17928 (Simulation time: 5 hr 8 min 22 sec) 
Heartbeat CPU 1 instructions: 1140000000 cycles: 1115802822 heartbeat IPC: 0.909329 cumulative IPC: 0.890527 (Simulation time: 5 hr 8 min 37 sec) 
Heartbeat CPU 3 instructions: 1370000000 cycles: 1119962064 heartbeat IPC: 1.04153 cumulative IPC: 1.09471 (Simulation time: 5 hr 9 min 31 sec) 
Heartbeat CPU 0 instructions: 1400000000 cycles: 1122775115 heartbeat IPC: 1.21976 cumulative IPC: 1.1796 (Simulation time: 5 hr 10 min 8 sec) 
Heartbeat CPU 1 instructions: 1150000003 cycles: 1126774091 heartbeat IPC: 0.911472 cumulative IPC: 0.890752 (Simulation time: 5 hr 11 min 2 sec) 
Heartbeat CPU 2 instructions: 1390000001 cycles: 1127661032 heartbeat IPC: 0.371945 cumulative IPC: 1.11307 (Simulation time: 5 hr 11 min 13 sec) 
Heartbeat CPU 3 instructions: 1380000000 cycles: 1129338773 heartbeat IPC: 1.06647 cumulative IPC: 1.09445 (Simulation time: 5 hr 11 min 35 sec) 
Heartbeat CPU 0 instructions: 1410000001 cycles: 1131071948 heartbeat IPC: 1.20528 cumulative IPC: 1.17981 (Simulation time: 5 hr 11 min 57 sec) 
Heartbeat CPU 3 instructions: 1390000003 cycles: 1137568559 heartbeat IPC: 1.2151 cumulative IPC: 1.09541 (Simulation time: 5 hr 13 min 23 sec) 
Heartbeat CPU 1 instructions: 1160000000 cycles: 1138122679 heartbeat IPC: 0.881167 cumulative IPC: 0.890647 (Simulation time: 5 hr 13 min 30 sec) 
Heartbeat CPU 0 instructions: 1420000000 cycles: 1139511276 heartbeat IPC: 1.18493 cumulative IPC: 1.17985 (Simulation time: 5 hr 13 min 48 sec) 
Heartbeat CPU 3 instructions: 1400000000 cycles: 1147053032 heartbeat IPC: 1.05435 cumulative IPC: 1.09504 (Simulation time: 5 hr 15 min 17 sec) 
Heartbeat CPU 0 instructions: 1430000002 cycles: 1147792382 heartbeat IPC: 1.20757 cumulative IPC: 1.18007 (Simulation time: 5 hr 15 min 26 sec) 
Heartbeat CPU 1 instructions: 1170000000 cycles: 1149204479 heartbeat IPC: 0.90238 cumulative IPC: 0.890772 (Simulation time: 5 hr 15 min 43 sec) 
Heartbeat CPU 2 instructions: 1400000000 cycles: 1155455012 heartbeat IPC: 0.35979 cumulative IPC: 1.09313 (Simulation time: 5 hr 17 min 1 sec) 
Heartbeat CPU 0 instructions: 1440000000 cycles: 1156035307 heartbeat IPC: 1.21316 cumulative IPC: 1.18033 (Simulation time: 5 hr 17 min 9 sec) 
Heartbeat CPU 3 instructions: 1410000003 cycles: 1157172788 heartbeat IPC: 0.988166 cumulative IPC: 1.09401 (Simulation time: 5 hr 17 min 23 sec) 
Heartbeat CPU 1 instructions: 1180000000 cycles: 1160380651 heartbeat IPC: 0.894761 cumulative IPC: 0.890814 (Simulation time: 5 hr 18 min 1 sec) 
Heartbeat CPU 0 instructions: 1450000001 cycles: 1164418813 heartbeat IPC: 1.19282 cumulative IPC: 1.18043 (Simulation time: 5 hr 18 min 53 sec) 
Heartbeat CPU 3 instructions: 1420000000 cycles: 1165773586 heartbeat IPC: 1.16268 cumulative IPC: 1.09457 (Simulation time: 5 hr 19 min 11 sec) 
Heartbeat CPU 1 instructions: 1190000000 cycles: 1171456854 heartbeat IPC: 0.902836 cumulative IPC: 0.890939 (Simulation time: 5 hr 20 min 24 sec) 
Heartbeat CPU 0 instructions: 1460000000 cycles: 1172677776 heartbeat IPC: 1.21081 cumulative IPC: 1.18067 (Simulation time: 5 hr 20 min 40 sec) 
Heartbeat CPU 3 instructions: 1430000003 cycles: 1173798605 heartbeat IPC: 1.2461 cumulative IPC: 1.0957 (Simulation time: 5 hr 20 min 54 sec) 
Heartbeat CPU 0 instructions: 1470000003 cycles: 1180996285 heartbeat IPC: 1.20214 cumulative IPC: 1.18083 (Simulation time: 5 hr 22 min 24 sec) 
Heartbeat CPU 1 instructions: 1200000000 cycles: 1182658234 heartbeat IPC: 0.892747 cumulative IPC: 0.890958 (Simulation time: 5 hr 22 min 44 sec) 
Heartbeat CPU 2 instructions: 1410000000 cycles: 1183119305 heartbeat IPC: 0.361477 cumulative IPC: 1.07435 (Simulation time: 5 hr 22 min 50 sec) 
Heartbeat CPU 3 instructions: 1440000000 cycles: 1183272610 heartbeat IPC: 1.05552 cumulative IPC: 1.09535 (Simulation time: 5 hr 22 min 52 sec) 
Heartbeat CPU 0 instructions: 1480000000 cycles: 1189232195 heartbeat IPC: 1.21419 cumulative IPC: 1.18108 (Simulation time: 5 hr 24 min 8 sec) 
Heartbeat CPU 3 instructions: 1450000001 cycles: 1193058167 heartbeat IPC: 1.02191 cumulative IPC: 1.09469 (Simulation time: 5 hr 24 min 57 sec) 
Heartbeat CPU 1 instructions: 1210000003 cycles: 1193596989 heartbeat IPC: 0.914181 cumulative IPC: 0.891191 (Simulation time: 5 hr 25 min 4 sec) 
Heartbeat CPU 0 instructions: 1490000002 cycles: 1197430446 heartbeat IPC: 1.21977 cumulative IPC: 1.18138 (Simulation time: 5 hr 25 min 54 sec) 
Heartbeat CPU 3 instructions: 1460000000 cycles: 1203176621 heartbeat IPC: 0.988293 cumulative IPC: 1.09371 (Simulation time: 5 hr 27 min 8 sec) 
Heartbeat CPU 1 instructions: 1220000000 cycles: 1204559044 heartbeat IPC: 0.912237 cumulative IPC: 0.891401 (Simulation time: 5 hr 27 min 27 sec) 
Heartbeat CPU 0 instructions: 1500000000 cycles: 1205656857 heartbeat IPC: 1.2156 cumulative IPC: 1.18163 (Simulation time: 5 hr 27 min 42 sec) 
Heartbeat CPU 2 instructions: 1420000000 cycles: 1209588172 heartbeat IPC: 0.377802 cumulative IPC: 1.05765 (Simulation time: 5 hr 28 min 35 sec) 
Heartbeat CPU 3 instructions: 1470000000 cycles: 1211982694 heartbeat IPC: 1.13558 cumulative IPC: 1.09404 (Simulation time: 5 hr 29 min 7 sec) 
Heartbeat CPU 0 instructions: 1510000000 cycles: 1213873797 heartbeat IPC: 1.217 cumulative IPC: 1.18189 (Simulation time: 5 hr 29 min 32 sec) 
Heartbeat CPU 1 instructions: 1230000001 cycles: 1215487557 heartbeat IPC: 0.915038 cumulative IPC: 0.891634 (Simulation time: 5 hr 29 min 54 sec) 
Heartbeat CPU 3 instructions: 1480000000 cycles: 1220786467 heartbeat IPC: 1.13588 cumulative IPC: 1.09437 (Simulation time: 5 hr 31 min 5 sec) 
Heartbeat CPU 0 instructions: 1520000000 cycles: 1222087755 heartbeat IPC: 1.21744 cumulative IPC: 1.18216 (Simulation time: 5 hr 31 min 23 sec) 
Heartbeat CPU 1 instructions: 1240000000 cycles: 1226428352 heartbeat IPC: 0.91401 cumulative IPC: 0.891852 (Simulation time: 5 hr 32 min 21 sec) 
Finished CPU 1 instructions: 1000000001 cycles: 1121260964 cumulative IPC: 0.891853 (Simulation time: 5 hr 32 min 25 sec) 

CPU 0 Branch Prediction Accuracy: 99.9709% MPKI: 0.00727338

CPU 1 Branch Prediction Accuracy: 99.9346% MPKI: 0.0112642

CPU 2 Branch Prediction Accuracy: 99.2285% MPKI: 0.0516272

CPU 3 Branch Prediction Accuracy: 97.6304% MPKI: 3.39669

ChampSim completed all CPUs

Total Simulation Statistics (not including warmup)

CPU 0 cumulative IPC: 1.18229 instructions: 1325656352 cycles: 1121260963
L1D TOTAL     ACCESS:  505982111  HIT:  478457989  MISS:   27524122
L1D LOAD      ACCESS:  432711179  HIT:  406016655  MISS:   26694524
L1D RFO       ACCESS:   73270932  HIT:   72441334  MISS:     829598
L1D PREFETCH  ACCESS:          0  HIT:          0  MISS:          0
L1D WRITEBACK ACCESS:          0  HIT:          0  MISS:          0
L1I TOTAL     ACCESS:  325949799  HIT:  325949799  MISS:          0
L1I LOAD      ACCESS:  325949799  HIT:  325949799  MISS:          0
L1I RFO       ACCESS:          0  HIT:          0  MISS:          0
L1I PREFETCH  ACCESS:          0  HIT:          0  MISS:          0
L1I WRITEBACK ACCESS:          0  HIT:          0  MISS:          0
L2C TOTAL     ACCESS:   50886144  HIT:   25575346  MISS:   25310798
L2C LOAD      ACCESS:   26686341  HIT:   24509109  MISS:    2177232
L2C RFO       ACCESS:     813337  HIT:     167420  MISS:     645917
L2C PREFETCH  ACCESS:   22480655  HIT:        605  MISS:   22480050
L2C WRITEBACK ACCESS:     905811  HIT:     898212  MISS:       7599

L2C DA-AMPM prefetcher final stats
LLC TOTAL     ACCESS:   25957814  HIT:     764817  MISS:   25192997
LLC LOAD      ACCESS:    1474175  HIT:     111994  MISS:    1362181
LLC RFO       ACCESS:     645917  HIT:          0  MISS:     645917
LLC PREFETCH  ACCESS:   23183106  HIT:          0  MISS:   23183106
LLC WRITEBACK ACCESS:     654616  HIT:     652823  MISS:       1793

CPU 1 cumulative IPC: 0.891853 instructions: 1000000001 cycles: 1121260964
L1D TOTAL     ACCESS:  212903795  HIT:  199712579  MISS:   13191216
L1D LOAD      ACCESS:  142630962  HIT:  129457039  MISS:   13173923
L1D RFO       ACCESS:   70272833  HIT:   70255540  MISS:      17293
L1D PREFETCH  ACCESS:          0  HIT:          0  MISS:          0
L1D WRITEBACK ACCESS:          0  HIT:          0  MISS:          0
L1I TOTAL     ACCESS:  210472996  HIT:  210472719  MISS:        277
L1I LOAD      ACCESS:  210472996  HIT:  210472719  MISS:        277
L1I RFO       ACCESS:          0  HIT:          0  MISS:          0
L1I PREFETCH  ACCESS:          0  HIT:          0  MISS:          0
L1I WRITEBACK ACCESS:          0  HIT:          0  MISS:          0
L2C TOTAL     ACCESS:   29753313  HIT:   16818165  MISS:   12935148
L2C LOAD      ACCESS:   13174200  HIT:    7924279  MISS:    5249921
L2C RFO       ACCESS:      17293  HIT:       2405  MISS:      14888
L2C PREFETCH  ACCESS:    7805147  HIT:     134815  MISS:    7670332
L2C WRITEBACK ACCESS:    8756673  HIT:    8756666  MISS:          7

L2C DA-AMPM prefetcher final stats
LLC TOTAL     ACCESS:   21687895  HIT:   12937929  MISS:    8749966
LLC LOAD      ACCESS:    4868631  HIT:    4174878  MISS:     693753
LLC RFO       ACCESS:      14888  HIT:      14080  MISS:        808
LLC PREFETCH  ACCESS:    8051622  HIT:          0  MISS:    8051622
LLC WRITEBACK ACCESS:    8752754  HIT:    8748971  MISS:       3783

CPU 2 cumulative IPC: 1.0472 instructions: 1174185592 cycles: 1121260964
L1D TOTAL     ACCESS:  344672925  HIT:  324960579  MISS:   19712346
L1D LOAD      ACCESS:  285833631  HIT:  266121307  MISS:   19712324
L1D RFO       ACCESS:   58839294  HIT:   58839272  MISS:         22
L1D PREFETCH  ACCESS:          0  HIT:          0  MISS:          0
L1D WRITEBACK ACCESS:          0  HIT:          0  MISS:          0
L1I TOTAL     ACCESS:  253349852  HIT:  253349731  MISS:        121
L1I LOAD      ACCESS:  253349852  HIT:  253349731  MISS:        121
L1I RFO       ACCESS:          0  HIT:          0  MISS:          0
L1I PREFETCH  ACCESS:          0  HIT:          0  MISS:          0
L1I WRITEBACK ACCESS:          0  HIT:          0  MISS:          0
L2C TOTAL     ACCESS:   44421068  HIT:   24030653  MISS:   20390415
L2C LOAD      ACCESS:   19712445  HIT:   17777759  MISS:    1934686
L2C RFO       ACCESS:         22  HIT:          4  MISS:         18
L2C PREFETCH  ACCESS:   18452326  HIT:         37  MISS:   18452289
L2C WRITEBACK ACCESS:    6256275  HIT:    6252853  MISS:       3422

L2C DA-AMPM prefetcher final stats
LLC TOTAL     ACCESS:   26613642  HIT:    6248368  MISS:   20365274
LLC LOAD      ACCESS:    1766192  HIT:      20042  MISS:    1746150
LLC RFO       ACCESS:         18  HIT:         16  MISS:          2
LLC PREFETCH  ACCESS:   18620781  HIT:       2713  MISS:   18618068
LLC WRITEBACK ACCESS:    6226651  HIT:    6225597  MISS:       1054

CPU 3 cumulative IPC: 1.09458 instructions: 1227311707 cycles: 1121260964
L1D TOTAL     ACCESS:  227561678  HIT:  206861650  MISS:   20700028
L1D LOAD      ACCESS:  163609913  HIT:  149913631  MISS:   13696282
L1D RFO       ACCESS:   63951765  HIT:   56948019  MISS:    7003746
L1D PREFETCH  ACCESS:          0  HIT:          0  MISS:          0
L1D WRITEBACK ACCESS:          0  HIT:          0  MISS:          0
L1I TOTAL     ACCESS:  296708822  HIT:  296127824  MISS:     580998
L1I LOAD      ACCESS:  296708822  HIT:  296127824  MISS:     580998
L1I RFO       ACCESS:          0  HIT:          0  MISS:          0
L1I PREFETCH  ACCESS:          0  HIT:          0  MISS:          0
L1I WRITEBACK ACCESS:          0  HIT:          0  MISS:          0
L2C TOTAL     ACCESS:   35894723  HIT:   24937392  MISS:   10957331
L2C LOAD      ACCESS:   14276266  HIT:   11712678  MISS:    2563588
L2C RFO       ACCESS:    7003387  HIT:    3525788  MISS:    3477599
L2C PREFETCH  ACCESS:    5724988  HIT:     819913  MISS:    4905075
L2C WRITEBACK ACCESS:    8890082  HIT:    8879013  MISS:      11069

L2C DA-AMPM prefetcher final stats
LLC TOTAL     ACCESS:   15748062  HIT:   10725028  MISS:    5023034
LLC LOAD      ACCESS:    2248021  HIT:    1897653  MISS:     350368
LLC RFO       ACCESS:    3477503  HIT:    1679916  MISS:    1797587
LLC PREFETCH  ACCESS:    5220611  HIT:    2441468  MISS:    2779143
LLC WRITEBACK ACCESS:    4801927  HIT:    4705991  MISS:      95936

Region of Interest Statistics

CPU 0 cumulative IPC: 1.17848 instructions: 1000000000 cycles: 848550380
L1D TOTAL     ACCESS:  381682911  HIT:  360920509  MISS:   20762402
L1D LOAD      ACCESS:  326411709  HIT:  306275039  MISS:   20136670
L1D RFO       ACCESS:   55271202  HIT:   54645470  MISS:     625732
L1D PREFETCH  ACCESS:          0  HIT:          0  MISS:          0
L1D WRITEBACK ACCESS:          0  HIT:          0  MISS:          0
L1D PREFETCH  REQUESTED:          0  ISSUED:          0  USEFUL:          0  USELESS:          0
L1I TOTAL     ACCESS:  245883914  HIT:  245883914  MISS:          0
L1I LOAD      ACCESS:  245883914  HIT:  245883914  MISS:          0
L1I RFO       ACCESS:          0  HIT:          0  MISS:          0
L1I PREFETCH  ACCESS:          0  HIT:          0  MISS:          0
L1I WRITEBACK ACCESS:          0  HIT:          0  MISS:          0
L1I PREFETCH  REQUESTED:          0  ISSUED:          0  USEFUL:          0  USELESS:          0
L2C TOTAL     ACCESS:   38376330  HIT:   19284603  MISS:   19091727
L2C LOAD      ACCESS:   20130438  HIT:   18480429  MISS:    1650009
L2C RFO       ACCESS:     613439  HIT:     126196  MISS:     487243
L2C PREFETCH  ACCESS:   16949211  HIT:        507  MISS:   16948704
L2C WRITEBACK ACCESS:     683242  HIT:     677471  MISS:       5771
L2C PREFETCH  REQUESTED:   28141931  ISSUED:   26860472  USEFUL:   25996204  USELESS:        517
LLC TOTAL     ACCESS:   19579773  HIT:     575636  MISS:   19004137
LLC LOAD      ACCESS:    1115567  HIT:      83195  MISS:    1032372
LLC RFO       ACCESS:     487243  HIT:          0  MISS:     487243
LLC PREFETCH  ACCESS:   17483144  HIT:          0  MISS:   17483144
LLC WRITEBACK ACCESS:     493819  HIT:     492441  MISS:       1378
LLC PREFETCH  REQUESTED:          0  ISSUED:          0  USEFUL:     656911  USELESS:   62073356
Major fault: 0 Minor fault: 430051

CPU 1 cumulative IPC: 0.891853 instructions: 1000000001 cycles: 1121260964
L1D TOTAL     ACCESS:  212903795  HIT:  199712579  MISS:   13191216
L1D LOAD      ACCESS:  142630962  HIT:  129457039  MISS:   13173923
L1D RFO       ACCESS:   70272833  HIT:   70255540  MISS:      17293
L1D PREFETCH  ACCESS:          0  HIT:          0  MISS:          0
L1D WRITEBACK ACCESS:          0  HIT:          0  MISS:          0
L1D PREFETCH  REQUESTED:          0  ISSUED:          0  USEFUL:          0  USELESS:          0
L1I TOTAL     ACCESS:  210472996  HIT:  210472719  MISS:        277
L1I LOAD      ACCESS:  210472996  HIT:  210472719  MISS:        277
L1I RFO       ACCESS:          0  HIT:          0  MISS:          0
L1I PREFETCH  ACCESS:          0  HIT:          0  MISS:          0
L1I WRITEBACK ACCESS:          0  HIT:          0  MISS:          0
L1I PREFETCH  REQUESTED:          0  ISSUED:          0  USEFUL:          0  USELESS:          0
L2C TOTAL     ACCESS:   29753313  HIT:   16818165  MISS:   12935148
L2C LOAD      ACCESS:   13174200  HIT:    7924279  MISS:    5249921
L2C RFO       ACCESS:      17293  HIT:       2405  MISS:      14888
L2C PREFETCH  ACCESS:    7805147  HIT:     134815  MISS:    7670332
L2C WRITEBACK ACCESS:    8756673  HIT:    8756666  MISS:          7
L2C PREFETCH  REQUESTED:   10331016  ISSUED:   10331016  USEFUL:    9597016  USELESS:      16219
LLC TOTAL     ACCESS:   21687895  HIT:   12937929  MISS:    8749966
LLC LOAD      ACCESS:    4868631  HIT:    4174878  MISS:     693753
LLC RFO       ACCESS:      14888  HIT:      14080  MISS:        808
LLC PREFETCH  ACCESS:    8051622  HIT:          0  MISS:    8051622
LLC WRITEBACK ACCESS:    8752754  HIT:    8748971  MISS:       3783
LLC PREFETCH  REQUESTED:          0  ISSUED:          0  USEFUL:     656911  USELESS:   62073356
Major fault: 0 Minor fault: 169801

CPU 2 cumulative IPC: 1.14635 instructions: 1000000000 cycles: 872332600
L1D TOTAL     ACCESS:  282946915  HIT:  266114432  MISS:   16832483
L1D LOAD      ACCESS:  233774742  HIT:  216942259  MISS:   16832483
L1D RFO       ACCESS:   49172173  HIT:   49172173  MISS:          0
L1D PREFETCH  ACCESS:          0  HIT:          0  MISS:          0
L1D WRITEBACK ACCESS:          0  HIT:          0  MISS:          0
L1D PREFETCH  REQUESTED:          0  ISSUED:          0  USEFUL:          0  USELESS:          0
L1I TOTAL     ACCESS:  212339427  HIT:  212339427  MISS:          0
L1I LOAD      ACCESS:  212339427  HIT:  212339427  MISS:          0
L1I RFO       ACCESS:          0  HIT:          0  MISS:          0
L1I PREFETCH  ACCESS:          0  HIT:          0  MISS:          0
L1I WRITEBACK ACCESS:          0  HIT:          0  MISS:          0
L1I PREFETCH  REQUESTED:          0  ISSUED:          0  USEFUL:          0  USELESS:          0
L2C TOTAL     ACCESS:   38269573  HIT:   20904085  MISS:   17365488
L2C LOAD      ACCESS:   16832483  HIT:   15685891  MISS:    1146592
L2C RFO       ACCESS:          0  HIT:          0  MISS:          0
L2C PREFETCH  ACCESS:   16215881  HIT:         25  MISS:   16215856
L2C WRITEBACK ACCESS:    5221209  HIT:    5218169  MISS:       3040
L2C PREFETCH  REQUESTED:   22755542  ISSUED:   22751028  USEFUL:   21147675  USELESS:    1432061
LLC TOTAL     ACCESS:   22557713  HIT:    5197022  MISS:   17360691
LLC LOAD      ACCESS:     998701  HIT:       2686  MISS:     996015
LLC RFO       ACCESS:          0  HIT:          0  MISS:          0
LLC PREFETCH  ACCESS:   16363745  HIT:          0  MISS:   16363745
LLC WRITEBACK ACCESS:    5195267  HIT:    5194336  MISS:        931
LLC PREFETCH  REQUESTED:          0  ISSUED:          0  USEFUL:     656911  USELESS:   62073356
Major fault: 0 Minor fault: 408220

CPU 3 cumulative IPC: 1.09311 instructions: 1000000003 cycles: 914822111
L1D TOTAL     ACCESS:  183801887  HIT:  167162488  MISS:   16639399
L1D LOAD      ACCESS:  132437577  HIT:  121514457  MISS:   10923120
L1D RFO       ACCESS:   51364310  HIT:   45648031  MISS:    5716279
L1D PREFETCH  ACCESS:          0  HIT:          0  MISS:          0
L1D WRITEBACK ACCESS:          0  HIT:          0  MISS:          0
L1D PREFETCH  REQUESTED:          0  ISSUED:          0  USEFUL:          0  USELESS:          0
L1I TOTAL     ACCESS:  242347775  HIT:  241893056  MISS:     454719
L1I LOAD      ACCESS:  242347775  HIT:  241893056  MISS:     454719
L1I RFO       ACCESS:          0  HIT:          0  MISS:          0
L1I PREFETCH  ACCESS:          0  HIT:          0  MISS:          0
L1I WRITEBACK ACCESS:          0  HIT:          0  MISS:          0
L1I PREFETCH  REQUESTED:          0  ISSUED:          0  USEFUL:          0  USELESS:          0
L2C TOTAL     ACCESS:   28864062  HIT:   20069480  MISS:    8794582
L2C LOAD      ACCESS:   11377147  HIT:    9334880  MISS:    2042267
L2C RFO       ACCESS:    5715979  HIT:    2874906  MISS:    2841073
L2C PREFETCH  ACCESS:    4557469  HIT:     654877  MISS:    3902592
L2C WRITEBACK ACCESS:    7213467  HIT:    7204817  MISS:       8650
L2C PREFETCH  REQUESTED:    7866318  ISSUED:    7838102  USEFUL:    5091603  USELESS:    1144749
LLC TOTAL     ACCESS:   12681315  HIT:    8535307  MISS:    4146008
LLC LOAD      ACCESS:    1783923  HIT:    1497279  MISS:     286644
LLC RFO       ACCESS:    2840998  HIT:    1314982  MISS:    1526016
LLC PREFETCH  ACCESS:    4160908  HIT:    1908772  MISS:    2252136
LLC WRITEBACK ACCESS:    3895486  HIT:    3814274  MISS:      81212
LLC PREFETCH  REQUESTED:          0  ISSUED:          0  USEFUL:     656911  USELESS:   62073356
Major fault: 0 Minor fault: 41403

L2C DA-AMPM prefetcher final stats

L2C DA-AMPM prefetcher final stats

L2C DA-AMPM prefetcher final stats

L2C DA-AMPM prefetcher final stats

DRAM Statistics
 CHANNEL 0
 RQ ROW_BUFFER_HIT:   20054537  ROW_BUFFER_MISS:    9553249
 DBUS_CONGESTED:   52558853
 WQ ROW_BUFFER_HIT:    1603151  ROW_BUFFER_MISS:    7450757  FULL:          0

 CHANNEL 1
 RQ ROW_BUFFER_HIT:   20017696  ROW_BUFFER_MISS:    9602865
 DBUS_CONGESTED:   52558853
 WQ ROW_BUFFER_HIT:    1590955  ROW_BUFFER_MISS:    7462829  FULL:          0

 AVG_CONGESTED_CYCLE: 13
