
*** ChampSim Multicore Out-of-Order Simulator ***

Warmup Instructions: 20000000
Simulation Instructions: 100000000
Number of CPUs: 8
LLC sets: 16384
LLC ways: 16
Off-chip DRAM Size: 8192 MB Channels: 2 Width: 64-bit Data Rate: 1600 MT/s

CPU 0 runs /scratch/user/djimenez/champsim-traces/speccpu2017/xz/605.mcf_s/605.mcf_s-782B.champsimtrace.xz
CPU 1 runs /scratch/user/djimenez/champsim-traces/speccpu2017/xz/627.cam4_s/627.cam4_s-490B.champsimtrace.xz
CPU 2 runs /scratch/user/djimenez/champsim-traces/speccpu2017/xz/649.fotonik3d_s/649.fotonik3d_s-8225B.champsimtrace.xz
CPU 3 runs /scratch/user/djimenez/champsim-traces/speccpu2017/xz/607.cactuBSSN_s/607.cactuBSSN_s-2421B.champsimtrace.xz
CPU 4 runs /scratch/user/djimenez/champsim-traces/speccpu2017/xz/607.cactuBSSN_s/607.cactuBSSN_s-3477B.champsimtrace.xz
CPU 5 runs /scratch/user/djimenez/champsim-traces/speccpu2017/xz/649.fotonik3d_s/649.fotonik3d_s-7084B.champsimtrace.xz
CPU 6 runs /scratch/user/djimenez/champsim-traces/speccpu2017/xz/621.wrf_s/621.wrf_s-6673B.champsimtrace.xz
CPU 7 runs /scratch/user/djimenez/champsim-traces/speccpu2017/xz/623.xalancbmk_s/623.xalancbmk_s-202B.champsimtrace.xz
L2C DA-AMPM prefetcher
L2C DA-AMPM prefetcher
L2C DA-AMPM prefetcher
L2C DA-AMPM prefetcher
L2C DA-AMPM prefetcher
L2C DA-AMPM prefetcher
L2C DA-AMPM prefetcher
L2C DA-AMPM prefetcher
Heartbeat CPU 1 instructions: 10000002 cycles: 3990465 heartbeat IPC: 2.50597 cumulative IPC: 2.50597 (Simulation time: 0 hr 3 min 52 sec) 
Heartbeat CPU 7 instructions: 10000000 cycles: 4133680 heartbeat IPC: 2.41915 cumulative IPC: 2.41915 (Simulation time: 0 hr 4 min 0 sec) 
Heartbeat CPU 5 instructions: 10000000 cycles: 4193080 heartbeat IPC: 2.38488 cumulative IPC: 2.38488 (Simulation time: 0 hr 4 min 3 sec) 
Heartbeat CPU 2 instructions: 10000001 cycles: 4396838 heartbeat IPC: 2.27436 cumulative IPC: 2.27436 (Simulation time: 0 hr 4 min 15 sec) 
Heartbeat CPU 6 instructions: 10000001 cycles: 5375325 heartbeat IPC: 1.86035 cumulative IPC: 1.86035 (Simulation time: 0 hr 5 min 12 sec) 
Heartbeat CPU 4 instructions: 10000003 cycles: 5770846 heartbeat IPC: 1.73285 cumulative IPC: 1.73285 (Simulation time: 0 hr 5 min 35 sec) 
Heartbeat CPU 3 instructions: 10000000 cycles: 5802552 heartbeat IPC: 1.72338 cumulative IPC: 1.72338 (Simulation time: 0 hr 5 min 37 sec) 
Heartbeat CPU 0 instructions: 10000001 cycles: 6172378 heartbeat IPC: 1.62012 cumulative IPC: 1.62012 (Simulation time: 0 hr 5 min 59 sec) 
Heartbeat CPU 1 instructions: 20000000 cycles: 7763320 heartbeat IPC: 2.65051 cumulative IPC: 2.57622 (Simulation time: 0 hr 7 min 32 sec) 
Heartbeat CPU 7 instructions: 20000000 cycles: 8273335 heartbeat IPC: 2.41566 cumulative IPC: 2.4174 (Simulation time: 0 hr 8 min 3 sec) 
Heartbeat CPU 5 instructions: 20000000 cycles: 8383970 heartbeat IPC: 2.38613 cumulative IPC: 2.3855 (Simulation time: 0 hr 8 min 10 sec) 
Heartbeat CPU 2 instructions: 20000000 cycles: 8792993 heartbeat IPC: 2.27471 cumulative IPC: 2.27454 (Simulation time: 0 hr 8 min 34 sec) 
Heartbeat CPU 6 instructions: 20000000 cycles: 9445732 heartbeat IPC: 2.45676 cumulative IPC: 2.11736 (Simulation time: 0 hr 9 min 12 sec) 
Heartbeat CPU 4 instructions: 20000000 cycles: 11540067 heartbeat IPC: 1.73334 cumulative IPC: 1.73309 (Simulation time: 0 hr 11 min 15 sec) 
Heartbeat CPU 3 instructions: 20000000 cycles: 11603782 heartbeat IPC: 1.72377 cumulative IPC: 1.72358 (Simulation time: 0 hr 11 min 19 sec) 
Heartbeat CPU 1 instructions: 30000000 cycles: 11726753 heartbeat IPC: 2.52307 cumulative IPC: 0.852751 (Simulation time: 0 hr 11 min 26 sec) 
Heartbeat CPU 0 instructions: 20000000 cycles: 12260140 heartbeat IPC: 1.64264 cumulative IPC: 1.6313 (Simulation time: 0 hr 11 min 56 sec) 

Warmup complete CPU 0 instructions: 20000001 cycles: 12260145 (Simulation time: 0 hr 11 min 56 sec) 
Warmup complete CPU 1 instructions: 31443290 cycles: 12260144 (Simulation time: 0 hr 11 min 56 sec) 
Warmup complete CPU 2 instructions: 27887401 cycles: 12260144 (Simulation time: 0 hr 11 min 56 sec) 
Warmup complete CPU 3 instructions: 21131539 cycles: 12260144 (Simulation time: 0 hr 11 min 56 sec) 
Warmup complete CPU 4 instructions: 21248076 cycles: 12260144 (Simulation time: 0 hr 11 min 56 sec) 
Warmup complete CPU 5 instructions: 29272067 cycles: 12260144 (Simulation time: 0 hr 11 min 56 sec) 
Warmup complete CPU 6 instructions: 27432410 cycles: 12260144 (Simulation time: 0 hr 11 min 56 sec) 
Warmup complete CPU 7 instructions: 29645477 cycles: 12260144 (Simulation time: 0 hr 11 min 56 sec) 

Heartbeat CPU 5 instructions: 30000002 cycles: 12922581 heartbeat IPC: 2.20332 cumulative IPC: 1.09887 (Simulation time: 0 hr 12 min 39 sec) 
Heartbeat CPU 7 instructions: 30000002 cycles: 13000522 heartbeat IPC: 2.11542 cumulative IPC: 0.478843 (Simulation time: 0 hr 12 min 42 sec) 
Heartbeat CPU 6 instructions: 30000000 cycles: 14683478 heartbeat IPC: 1.90922 cumulative IPC: 1.05953 (Simulation time: 0 hr 13 min 33 sec) 
Heartbeat CPU 2 instructions: 30000000 cycles: 14714910 heartbeat IPC: 1.68864 cumulative IPC: 0.860611 (Simulation time: 0 hr 13 min 34 sec) 
Heartbeat CPU 4 instructions: 30000000 cycles: 21039279 heartbeat IPC: 1.05272 cumulative IPC: 0.9969 (Simulation time: 0 hr 16 min 30 sec) 
Heartbeat CPU 1 instructions: 40000000 cycles: 21067944 heartbeat IPC: 1.07053 cumulative IPC: 0.971492 (Simulation time: 0 hr 16 min 31 sec) 
Heartbeat CPU 3 instructions: 30000001 cycles: 21268969 heartbeat IPC: 1.03464 cumulative IPC: 0.984419 (Simulation time: 0 hr 16 min 37 sec) 
Heartbeat CPU 5 instructions: 40000000 cycles: 23076306 heartbeat IPC: 0.98486 cumulative IPC: 0.991843 (Simulation time: 0 hr 17 min 23 sec) 
Heartbeat CPU 2 instructions: 40000000 cycles: 28374803 heartbeat IPC: 0.73207 cumulative IPC: 0.751651 (Simulation time: 0 hr 19 min 42 sec) 
Heartbeat CPU 6 instructions: 40000000 cycles: 31203786 heartbeat IPC: 0.605316 cumulative IPC: 0.66342 (Simulation time: 0 hr 21 min 1 sec) 
Heartbeat CPU 4 instructions: 40000000 cycles: 31415660 heartbeat IPC: 0.963727 cumulative IPC: 0.978931 (Simulation time: 0 hr 21 min 7 sec) 
Heartbeat CPU 3 instructions: 40000000 cycles: 31734081 heartbeat IPC: 0.955556 cumulative IPC: 0.968908 (Simulation time: 0 hr 21 min 16 sec) 
Heartbeat CPU 1 instructions: 50000000 cycles: 32213369 heartbeat IPC: 0.897229 cumulative IPC: 0.930011 (Simulation time: 0 hr 21 min 30 sec) 
Heartbeat CPU 5 instructions: 50000000 cycles: 34032600 heartbeat IPC: 0.912717 cumulative IPC: 0.952025 (Simulation time: 0 hr 22 min 19 sec) 
Heartbeat CPU 7 instructions: 40000000 cycles: 38086855 heartbeat IPC: 0.398623 cumulative IPC: 0.400923 (Simulation time: 0 hr 24 min 12 sec) 
Heartbeat CPU 2 instructions: 50000000 cycles: 41697148 heartbeat IPC: 0.750619 cumulative IPC: 0.751184 (Simulation time: 0 hr 25 min 52 sec) 
Heartbeat CPU 4 instructions: 50000000 cycles: 41824444 heartbeat IPC: 0.960727 cumulative IPC: 0.972522 (Simulation time: 0 hr 25 min 56 sec) 
Heartbeat CPU 3 instructions: 50000003 cycles: 41976919 heartbeat IPC: 0.976292 cumulative IPC: 0.971453 (Simulation time: 0 hr 26 min 1 sec) 
Heartbeat CPU 1 instructions: 60000000 cycles: 43455255 heartbeat IPC: 0.88953 cumulative IPC: 0.915423 (Simulation time: 0 hr 26 min 43 sec) 
Heartbeat CPU 6 instructions: 50000000 cycles: 43961096 heartbeat IPC: 0.783864 cumulative IPC: 0.71189 (Simulation time: 0 hr 26 min 58 sec) 
Heartbeat CPU 5 instructions: 60000000 cycles: 44165928 heartbeat IPC: 0.986843 cumulative IPC: 0.963083 (Simulation time: 0 hr 27 min 3 sec) 
Heartbeat CPU 4 instructions: 60000000 cycles: 51867040 heartbeat IPC: 0.995758 cumulative IPC: 0.978414 (Simulation time: 0 hr 30 min 35 sec) 
Heartbeat CPU 3 instructions: 60000000 cycles: 52952947 heartbeat IPC: 0.911076 cumulative IPC: 0.955168 (Simulation time: 0 hr 31 min 1 sec) 
Heartbeat CPU 1 instructions: 70000000 cycles: 53701127 heartbeat IPC: 0.976003 cumulative IPC: 0.9304 (Simulation time: 0 hr 31 min 21 sec) 
Heartbeat CPU 5 instructions: 70000001 cycles: 54412539 heartbeat IPC: 0.975933 cumulative IPC: 0.966207 (Simulation time: 0 hr 31 min 40 sec) 
Heartbeat CPU 2 instructions: 60000000 cycles: 54733830 heartbeat IPC: 0.767066 cumulative IPC: 0.756059 (Simulation time: 0 hr 31 min 49 sec) 
Heartbeat CPU 6 instructions: 60000000 cycles: 57892658 heartbeat IPC: 0.717795 cumulative IPC: 0.713693 (Simulation time: 0 hr 33 min 14 sec) 
Heartbeat CPU 7 instructions: 50000002 cycles: 60816866 heartbeat IPC: 0.439947 cumulative IPC: 0.419191 (Simulation time: 0 hr 34 min 33 sec) 
Heartbeat CPU 4 instructions: 70000001 cycles: 61940893 heartbeat IPC: 0.992669 cumulative IPC: 0.981304 (Simulation time: 0 hr 35 min 3 sec) 
Heartbeat CPU 3 instructions: 70000000 cycles: 63550955 heartbeat IPC: 0.943574 cumulative IPC: 0.952772 (Simulation time: 0 hr 35 min 44 sec) 
Heartbeat CPU 5 instructions: 80000000 cycles: 64624760 heartbeat IPC: 0.979219 cumulative IPC: 0.968744 (Simulation time: 0 hr 36 min 11 sec) 
Heartbeat CPU 1 instructions: 80000000 cycles: 64686229 heartbeat IPC: 0.910324 cumulative IPC: 0.926194 (Simulation time: 0 hr 36 min 13 sec) 
Heartbeat CPU 2 instructions: 70000001 cycles: 68019581 heartbeat IPC: 0.752686 cumulative IPC: 0.755255 (Simulation time: 0 hr 37 min 35 sec) 
Heartbeat CPU 4 instructions: 80000000 cycles: 72054209 heartbeat IPC: 0.988795 cumulative IPC: 0.982571 (Simulation time: 0 hr 39 min 13 sec) 
Heartbeat CPU 3 instructions: 80000000 cycles: 74540141 heartbeat IPC: 0.909985 cumulative IPC: 0.945223 (Simulation time: 0 hr 40 min 18 sec) 
Heartbeat CPU 6 instructions: 70000003 cycles: 75004109 heartbeat IPC: 0.584404 cumulative IPC: 0.678433 (Simulation time: 0 hr 40 min 31 sec) 
Heartbeat CPU 5 instructions: 90000003 cycles: 75326614 heartbeat IPC: 0.934418 cumulative IPC: 0.96292 (Simulation time: 0 hr 40 min 40 sec) 
Heartbeat CPU 1 instructions: 90000002 cycles: 75469321 heartbeat IPC: 0.927378 cumulative IPC: 0.926396 (Simulation time: 0 hr 40 min 44 sec) 
Heartbeat CPU 2 instructions: 80000000 cycles: 81618817 heartbeat IPC: 0.735335 cumulative IPC: 0.751349 (Simulation time: 0 hr 43 min 28 sec) 
Heartbeat CPU 4 instructions: 90000002 cycles: 82185336 heartbeat IPC: 0.987057 cumulative IPC: 0.983221 (Simulation time: 0 hr 43 min 42 sec) 
Heartbeat CPU 3 instructions: 90000000 cycles: 85257041 heartbeat IPC: 0.933106 cumulative IPC: 0.943444 (Simulation time: 0 hr 45 min 12 sec) 
Heartbeat CPU 5 instructions: 100000000 cycles: 85684021 heartbeat IPC: 0.965492 cumulative IPC: 0.963282 (Simulation time: 0 hr 45 min 23 sec) 
Heartbeat CPU 1 instructions: 100000000 cycles: 86450394 heartbeat IPC: 0.910658 cumulative IPC: 0.924066 (Simulation time: 0 hr 45 min 43 sec) 
Heartbeat CPU 7 instructions: 60000000 cycles: 86451219 heartbeat IPC: 0.390101 cumulative IPC: 0.40914 (Simulation time: 0 hr 45 min 43 sec) 
Heartbeat CPU 6 instructions: 80000000 cycles: 87949847 heartbeat IPC: 0.772455 cumulative IPC: 0.694514 (Simulation time: 0 hr 46 min 25 sec) 
Heartbeat CPU 4 instructions: 100000000 cycles: 92285213 heartbeat IPC: 0.990111 cumulative IPC: 0.984091 (Simulation time: 0 hr 48 min 19 sec) 
Heartbeat CPU 2 instructions: 90000000 cycles: 94685320 heartbeat IPC: 0.765316 cumulative IPC: 0.753563 (Simulation time: 0 hr 49 min 23 sec) 
Heartbeat CPU 3 instructions: 100000000 cycles: 95922498 heartbeat IPC: 0.937606 cumulative IPC: 0.942699 (Simulation time: 0 hr 49 min 56 sec) 
Heartbeat CPU 5 instructions: 110000002 cycles: 95958861 heartbeat IPC: 0.973251 cumulative IPC: 0.964506 (Simulation time: 0 hr 49 min 57 sec) 
Heartbeat CPU 1 instructions: 110000001 cycles: 97329748 heartbeat IPC: 0.919172 cumulative IPC: 0.92344 (Simulation time: 0 hr 50 min 33 sec) 
Heartbeat CPU 0 instructions: 30000000 cycles: 98620395 heartbeat IPC: 0.115794 cumulative IPC: 0.115794 (Simulation time: 0 hr 51 min 6 sec) 
Heartbeat CPU 6 instructions: 90000003 cycles: 101788775 heartbeat IPC: 0.7226 cumulative IPC: 0.698856 (Simulation time: 0 hr 52 min 30 sec) 
Heartbeat CPU 4 instructions: 110000001 cycles: 102350260 heartbeat IPC: 0.993537 cumulative IPC: 0.985146 (Simulation time: 0 hr 52 min 45 sec) 
Heartbeat CPU 5 instructions: 120000000 cycles: 106062017 heartbeat IPC: 0.98979 cumulative IPC: 0.967229 (Simulation time: 0 hr 54 min 26 sec) 
Heartbeat CPU 3 instructions: 110000003 cycles: 106422324 heartbeat IPC: 0.952397 cumulative IPC: 0.943781 (Simulation time: 0 hr 54 min 35 sec) 
Heartbeat CPU 2 instructions: 100000000 cycles: 107757812 heartbeat IPC: 0.764965 cumulative IPC: 0.755124 (Simulation time: 0 hr 55 min 7 sec) 
Heartbeat CPU 1 instructions: 120000000 cycles: 108456675 heartbeat IPC: 0.898721 cumulative IPC: 0.920581 (Simulation time: 0 hr 55 min 24 sec) 
Heartbeat CPU 7 instructions: 70000002 cycles: 110160211 heartbeat IPC: 0.421781 cumulative IPC: 0.412201 (Simulation time: 0 hr 56 min 8 sec) 
Heartbeat CPU 4 instructions: 120000000 cycles: 112517622 heartbeat IPC: 0.983539 cumulative IPC: 0.984983 (Simulation time: 0 hr 57 min 5 sec) 
Finished CPU 4 instructions: 100000000 cycles: 101589918 cumulative IPC: 0.98435 (Simulation time: 0 hr 57 min 38 sec) 
Finished CPU 5 instructions: 100000002 cycles: 103875296 cumulative IPC: 0.962693 (Simulation time: 0 hr 58 min 38 sec) 
Heartbeat CPU 5 instructions: 130000001 cycles: 116966841 heartbeat IPC: 0.917025 cumulative IPC: 0.962001 (Simulation time: 0 hr 58 min 58 sec) 
Heartbeat CPU 3 instructions: 120000000 cycles: 117521438 heartbeat IPC: 0.900973 cumulative IPC: 0.939267 (Simulation time: 0 hr 59 min 12 sec) 
Finished CPU 3 instructions: 100000003 cycles: 106573977 cumulative IPC: 0.938315 (Simulation time: 0 hr 59 min 43 sec) 
Heartbeat CPU 1 instructions: 130000001 cycles: 119791832 heartbeat IPC: 0.882211 cumulative IPC: 0.916536 (Simulation time: 1 hr 0 min 5 sec) 
Finished CPU 1 instructions: 100000001 cycles: 108935631 cumulative IPC: 0.917973 (Simulation time: 1 hr 0 min 40 sec) 
Heartbeat CPU 2 instructions: 110000002 cycles: 121896150 heartbeat IPC: 0.707297 cumulative IPC: 0.748957 (Simulation time: 1 hr 0 min 57 sec) 
Heartbeat CPU 6 instructions: 100000000 cycles: 122150409 heartbeat IPC: 0.49112 cumulative IPC: 0.660364 (Simulation time: 1 hr 1 min 2 sec) 
Heartbeat CPU 4 instructions: 130000001 cycles: 122804011 heartbeat IPC: 0.972159 cumulative IPC: 0.98379 (Simulation time: 1 hr 1 min 17 sec) 
Heartbeat CPU 5 instructions: 140000000 cycles: 127760993 heartbeat IPC: 0.926427 cumulative IPC: 0.958676 (Simulation time: 1 hr 3 min 35 sec) 
Heartbeat CPU 3 instructions: 130000001 cycles: 128396897 heartbeat IPC: 0.919501 cumulative IPC: 0.937416 (Simulation time: 1 hr 3 min 53 sec) 
Heartbeat CPU 1 instructions: 140000000 cycles: 130698391 heartbeat IPC: 0.916879 cumulative IPC: 0.916568 (Simulation time: 1 hr 4 min 58 sec) 
Heartbeat CPU 6 instructions: 110000001 cycles: 130779412 heartbeat IPC: 1.15888 cumulative IPC: 0.69666 (Simulation time: 1 hr 5 min 0 sec) 
Heartbeat CPU 4 instructions: 140000000 cycles: 132842922 heartbeat IPC: 0.996124 cumulative IPC: 0.984817 (Simulation time: 1 hr 5 min 57 sec) 
Heartbeat CPU 2 instructions: 120000000 cycles: 134831718 heartbeat IPC: 0.773062 cumulative IPC: 0.7515 (Simulation time: 1 hr 6 min 53 sec) 
Heartbeat CPU 7 instructions: 80000000 cycles: 137070999 heartbeat IPC: 0.371598 cumulative IPC: 0.403447 (Simulation time: 1 hr 7 min 52 sec) 
Heartbeat CPU 5 instructions: 150000002 cycles: 137703679 heartbeat IPC: 1.00576 cumulative IPC: 0.962409 (Simulation time: 1 hr 8 min 13 sec) 
Heartbeat CPU 3 instructions: 140000000 cycles: 138916359 heartbeat IPC: 0.950619 cumulative IPC: 0.938513 (Simulation time: 1 hr 8 min 46 sec) 
Heartbeat CPU 1 instructions: 150000001 cycles: 141286870 heartbeat IPC: 0.944423 cumulative IPC: 0.918854 (Simulation time: 1 hr 9 min 51 sec) 
Heartbeat CPU 6 instructions: 120000000 cycles: 141326329 heartbeat IPC: 0.948144 cumulative IPC: 0.71721 (Simulation time: 1 hr 9 min 52 sec) 
Heartbeat CPU 4 instructions: 150000001 cycles: 143053755 heartbeat IPC: 0.979352 cumulative IPC: 0.98439 (Simulation time: 1 hr 10 min 37 sec) 
Finished CPU 2 instructions: 100000001 cycles: 133059105 cumulative IPC: 0.751546 (Simulation time: 1 hr 11 min 40 sec) 
Finished CPU 6 instructions: 100000003 cycles: 135412677 cumulative IPC: 0.738483 (Simulation time: 1 hr 12 min 45 sec) 
Heartbeat CPU 5 instructions: 160000000 cycles: 147959573 heartbeat IPC: 0.975049 cumulative IPC: 0.963364 (Simulation time: 1 hr 12 min 53 sec) 
Heartbeat CPU 2 instructions: 130000000 cycles: 147967181 heartbeat IPC: 0.761298 cumulative IPC: 0.752449 (Simulation time: 1 hr 12 min 54 sec) 
Heartbeat CPU 3 instructions: 150000002 cycles: 149684847 heartbeat IPC: 0.928636 cumulative IPC: 0.937739 (Simulation time: 1 hr 13 min 42 sec) 
Heartbeat CPU 6 instructions: 130000001 cycles: 150028163 heartbeat IPC: 1.14918 cumulative IPC: 0.744495 (Simulation time: 1 hr 13 min 52 sec) 
Heartbeat CPU 1 instructions: 160000000 cycles: 152589495 heartbeat IPC: 0.88475 cumulative IPC: 0.916107 (Simulation time: 1 hr 15 min 2 sec) 
Heartbeat CPU 4 instructions: 160000000 cycles: 153148630 heartbeat IPC: 0.990602 cumulative IPC: 0.984835 (Simulation time: 1 hr 15 min 18 sec) 
Heartbeat CPU 5 instructions: 170000001 cycles: 158086348 heartbeat IPC: 0.987481 cumulative IPC: 0.965039 (Simulation time: 1 hr 17 min 31 sec) 
Heartbeat CPU 7 instructions: 90000000 cycles: 160017975 heartbeat IPC: 0.435787 cumulative IPC: 0.408469 (Simulation time: 1 hr 18 min 28 sec) 
Heartbeat CPU 3 instructions: 160000000 cycles: 160346139 heartbeat IPC: 0.937972 cumulative IPC: 0.937756 (Simulation time: 1 hr 18 min 38 sec) 
Heartbeat CPU 6 instructions: 140000000 cycles: 160462377 heartbeat IPC: 0.958385 cumulative IPC: 0.759554 (Simulation time: 1 hr 18 min 42 sec) 
Heartbeat CPU 2 instructions: 140000000 cycles: 160896075 heartbeat IPC: 0.773461 cumulative IPC: 0.754277 (Simulation time: 1 hr 18 min 56 sec) 
Heartbeat CPU 4 instructions: 170000001 cycles: 163173504 heartbeat IPC: 0.997519 cumulative IPC: 0.985678 (Simulation time: 1 hr 20 min 7 sec) 
Heartbeat CPU 1 instructions: 170000001 cycles: 163532272 heartbeat IPC: 0.913845 cumulative IPC: 0.915943 (Simulation time: 1 hr 20 min 17 sec) 
Heartbeat CPU 5 instructions: 180000000 cycles: 168026866 heartbeat IPC: 1.00598 cumulative IPC: 0.967652 (Simulation time: 1 hr 22 min 29 sec) 
Heartbeat CPU 6 instructions: 150000000 cycles: 169844194 heartbeat IPC: 1.06589 cumulative IPC: 0.777792 (Simulation time: 1 hr 23 min 17 sec) 
Heartbeat CPU 3 instructions: 170000003 cycles: 170786774 heartbeat IPC: 0.957796 cumulative IPC: 0.939075 (Simulation time: 1 hr 23 min 41 sec) 
Heartbeat CPU 4 instructions: 180000000 cycles: 173233633 heartbeat IPC: 0.994023 cumulative IPC: 0.986199 (Simulation time: 1 hr 24 min 45 sec) 
Heartbeat CPU 2 instructions: 150000003 cycles: 173730648 heartbeat IPC: 0.779146 cumulative IPC: 0.756253 (Simulation time: 1 hr 24 min 59 sec) 
Heartbeat CPU 1 instructions: 180000000 cycles: 174195143 heartbeat IPC: 0.937834 cumulative IPC: 0.917385 (Simulation time: 1 hr 25 min 12 sec) 
Heartbeat CPU 5 instructions: 190000001 cycles: 178199533 heartbeat IPC: 0.983027 cumulative IPC: 0.968594 (Simulation time: 1 hr 27 min 4 sec) 
Heartbeat CPU 6 instructions: 160000000 cycles: 179376024 heartbeat IPC: 1.04912 cumulative IPC: 0.793267 (Simulation time: 1 hr 27 min 35 sec) 
Heartbeat CPU 3 instructions: 180000000 cycles: 181342651 heartbeat IPC: 0.947339 cumulative IPC: 0.939591 (Simulation time: 1 hr 28 min 30 sec) 
Heartbeat CPU 0 instructions: 40000000 cycles: 181833545 heartbeat IPC: 0.120173 cumulative IPC: 0.117943 (Simulation time: 1 hr 28 min 43 sec) 
Heartbeat CPU 4 instructions: 190000003 cycles: 183232256 heartbeat IPC: 1.00014 cumulative IPC: 0.987014 (Simulation time: 1 hr 29 min 21 sec) 
Heartbeat CPU 7 instructions: 100000000 cycles: 183265367 heartbeat IPC: 0.430156 cumulative IPC: 0.411417 (Simulation time: 1 hr 29 min 22 sec) 
Heartbeat CPU 1 instructions: 190000000 cycles: 185312720 heartbeat IPC: 0.899477 cumulative IPC: 0.916234 (Simulation time: 1 hr 30 min 18 sec) 
Heartbeat CPU 2 instructions: 160000000 cycles: 186355384 heartbeat IPC: 0.792096 cumulative IPC: 0.758852 (Simulation time: 1 hr 30 min 46 sec) 
Heartbeat CPU 5 instructions: 200000000 cycles: 188247627 heartbeat IPC: 0.995214 cumulative IPC: 0.970114 (Simulation time: 1 hr 31 min 40 sec) 
Heartbeat CPU 6 instructions: 170000000 cycles: 189874047 heartbeat IPC: 0.95256 cumulative IPC: 0.802683 (Simulation time: 1 hr 32 min 32 sec) 
Heartbeat CPU 3 instructions: 190000002 cycles: 192043243 heartbeat IPC: 0.934528 cumulative IPC: 0.93929 (Simulation time: 1 hr 33 min 38 sec) 
Heartbeat CPU 4 instructions: 200000000 cycles: 193499251 heartbeat IPC: 0.973995 cumulative IPC: 0.986277 (Simulation time: 1 hr 34 min 21 sec) 
Heartbeat CPU 1 instructions: 200000000 cycles: 196055795 heartbeat IPC: 0.930832 cumulative IPC: 0.917088 (Simulation time: 1 hr 35 min 43 sec) 
Heartbeat CPU 5 instructions: 210000002 cycles: 198062851 heartbeat IPC: 1.01883 cumulative IPC: 0.972687 (Simulation time: 1 hr 36 min 42 sec) 
Heartbeat CPU 6 instructions: 180000000 cycles: 198078781 heartbeat IPC: 1.21881 cumulative IPC: 0.821056 (Simulation time: 1 hr 36 min 43 sec) 
Heartbeat CPU 2 instructions: 170000002 cycles: 199189433 heartbeat IPC: 0.779177 cumulative IPC: 0.760248 (Simulation time: 1 hr 37 min 12 sec) 
Heartbeat CPU 3 instructions: 200000000 cycles: 202383524 heartbeat IPC: 0.967092 cumulative IPC: 0.940802 (Simulation time: 1 hr 38 min 37 sec) 
Heartbeat CPU 4 instructions: 210000000 cycles: 203468798 heartbeat IPC: 1.00305 cumulative IPC: 0.987152 (Simulation time: 1 hr 39 min 10 sec) 
Heartbeat CPU 7 instructions: 110000002 cycles: 206868391 heartbeat IPC: 0.423675 cumulative IPC: 0.412904 (Simulation time: 1 hr 40 min 44 sec) 
Heartbeat CPU 1 instructions: 210000003 cycles: 207311950 heartbeat IPC: 0.888403 cumulative IPC: 0.915432 (Simulation time: 1 hr 40 min 55 sec) 
Heartbeat CPU 5 instructions: 220000000 cycles: 208298993 heartbeat IPC: 0.97693 cumulative IPC: 0.972909 (Simulation time: 1 hr 41 min 23 sec) 
Heartbeat CPU 2 instructions: 180000000 cycles: 211906887 heartbeat IPC: 0.786321 cumulative IPC: 0.761909 (Simulation time: 1 hr 43 min 5 sec) 
Heartbeat CPU 6 instructions: 190000002 cycles: 212190619 heartbeat IPC: 0.708625 cumulative IPC: 0.813121 (Simulation time: 1 hr 43 min 12 sec) 
Heartbeat CPU 3 instructions: 210000000 cycles: 212849715 heartbeat IPC: 0.955457 cumulative IPC: 0.941567 (Simulation time: 1 hr 43 min 30 sec) 
Heartbeat CPU 4 instructions: 220000000 cycles: 213437306 heartbeat IPC: 1.00316 cumulative IPC: 0.987945 (Simulation time: 1 hr 43 min 46 sec) 
Heartbeat CPU 1 instructions: 220000000 cycles: 217768825 heartbeat IPC: 0.956308 cumulative IPC: 0.917512 (Simulation time: 1 hr 45 min 45 sec) 
Heartbeat CPU 5 instructions: 230000003 cycles: 217771214 heartbeat IPC: 1.05572 cumulative IPC: 0.976726 (Simulation time: 1 hr 45 min 45 sec) 
Heartbeat CPU 3 instructions: 220000000 cycles: 222992164 heartbeat IPC: 0.985955 cumulative IPC: 0.943703 (Simulation time: 1 hr 48 min 8 sec) 
Heartbeat CPU 4 instructions: 230000003 cycles: 223303902 heartbeat IPC: 1.01352 cumulative IPC: 0.989141 (Simulation time: 1 hr 48 min 17 sec) 
Heartbeat CPU 2 instructions: 190000000 cycles: 224004126 heartbeat IPC: 0.826635 cumulative IPC: 0.765607 (Simulation time: 1 hr 48 min 35 sec) 
Heartbeat CPU 7 instructions: 120000000 cycles: 226645424 heartbeat IPC: 0.505637 cumulative IPC: 0.421459 (Simulation time: 1 hr 49 min 49 sec) 
Heartbeat CPU 6 instructions: 200000000 cycles: 227177458 heartbeat IPC: 0.667252 cumulative IPC: 0.802949 (Simulation time: 1 hr 50 min 4 sec) 
Heartbeat CPU 5 instructions: 240000000 cycles: 227216079 heartbeat IPC: 1.05878 cumulative IPC: 0.980331 (Simulation time: 1 hr 50 min 5 sec) 
Heartbeat CPU 1 instructions: 230000000 cycles: 228666213 heartbeat IPC: 0.917651 cumulative IPC: 0.917519 (Simulation time: 1 hr 50 min 46 sec) 
Heartbeat CPU 3 instructions: 230000001 cycles: 233149247 heartbeat IPC: 0.984535 cumulative IPC: 0.945581 (Simulation time: 1 hr 52 min 50 sec) 
Heartbeat CPU 4 instructions: 240000000 cycles: 233254661 heartbeat IPC: 1.00495 cumulative IPC: 0.989852 (Simulation time: 1 hr 52 min 53 sec) 
Heartbeat CPU 2 instructions: 200000000 cycles: 236092065 heartbeat IPC: 0.827271 cumulative IPC: 0.768937 (Simulation time: 1 hr 54 min 10 sec) 
Heartbeat CPU 5 instructions: 250000000 cycles: 236637648 heartbeat IPC: 1.06139 cumulative IPC: 0.983735 (Simulation time: 1 hr 54 min 25 sec) 
Heartbeat CPU 1 instructions: 240000000 cycles: 239285150 heartbeat IPC: 0.941714 cumulative IPC: 0.918651 (Simulation time: 1 hr 55 min 37 sec) 
Heartbeat CPU 6 instructions: 210000003 cycles: 242155823 heartbeat IPC: 0.66763 cumulative IPC: 0.794132 (Simulation time: 1 hr 56 min 54 sec) 
Heartbeat CPU 4 instructions: 250000002 cycles: 243156246 heartbeat IPC: 1.00994 cumulative IPC: 0.990714 (Simulation time: 1 hr 57 min 21 sec) 
Heartbeat CPU 3 instructions: 240000000 cycles: 243488575 heartbeat IPC: 0.967181 cumulative IPC: 0.946546 (Simulation time: 1 hr 57 min 30 sec) 
Heartbeat CPU 5 instructions: 260000000 cycles: 246134647 heartbeat IPC: 1.05296 cumulative IPC: 0.986546 (Simulation time: 1 hr 58 min 44 sec) 
Finished CPU 7 instructions: 100000001 cycles: 234146261 cumulative IPC: 0.427083 (Simulation time: 1 hr 58 min 51 sec) 
Heartbeat CPU 7 instructions: 130000001 cycles: 247289871 heartbeat IPC: 0.484392 cumulative IPC: 0.426987 (Simulation time: 1 hr 59 min 14 sec) 
Heartbeat CPU 2 instructions: 210000003 cycles: 248218973 heartbeat IPC: 0.824613 cumulative IPC: 0.771798 (Simulation time: 1 hr 59 min 40 sec) 
Heartbeat CPU 1 instructions: 250000001 cycles: 249869409 heartbeat IPC: 0.944799 cumulative IPC: 0.919816 (Simulation time: 2 hr 0 min 30 sec) 
Heartbeat CPU 4 instructions: 260000000 cycles: 253085460 heartbeat IPC: 1.00713 cumulative IPC: 0.99139 (Simulation time: 2 hr 1 min 56 sec) 
Heartbeat CPU 3 instructions: 250000003 cycles: 253609835 heartbeat IPC: 0.98802 cumulative IPC: 0.948286 (Simulation time: 2 hr 2 min 11 sec) 
Heartbeat CPU 5 instructions: 270000000 cycles: 255710813 heartbeat IPC: 1.04426 cumulative IPC: 0.988816 (Simulation time: 2 hr 3 min 9 sec) 
Heartbeat CPU 6 instructions: 220000000 cycles: 257343281 heartbeat IPC: 0.658438 cumulative IPC: 0.785724 (Simulation time: 2 hr 3 min 52 sec) 
Heartbeat CPU 2 instructions: 220000000 cycles: 260825409 heartbeat IPC: 0.793245 cumulative IPC: 0.772886 (Simulation time: 2 hr 5 min 17 sec) 
Heartbeat CPU 0 instructions: 50000000 cycles: 261032533 heartbeat IPC: 0.126264 cumulative IPC: 0.120592 (Simulation time: 2 hr 5 min 22 sec) 
Heartbeat CPU 1 instructions: 260000000 cycles: 261233378 heartbeat IPC: 0.879974 cumulative IPC: 0.917997 (Simulation time: 2 hr 5 min 27 sec) 
Heartbeat CPU 4 instructions: 270000000 cycles: 263158256 heartbeat IPC: 0.992773 cumulative IPC: 0.991446 (Simulation time: 2 hr 6 min 12 sec) 
Heartbeat CPU 3 instructions: 260000000 cycles: 264379059 heartbeat IPC: 0.928572 cumulative IPC: 0.947444 (Simulation time: 2 hr 6 min 46 sec) 
Heartbeat CPU 5 instructions: 280000000 cycles: 266346907 heartbeat IPC: 0.940195 cumulative IPC: 0.986781 (Simulation time: 2 hr 7 min 39 sec) 
Heartbeat CPU 6 instructions: 230000003 cycles: 271593117 heartbeat IPC: 0.701763 cumulative IPC: 0.78111 (Simulation time: 2 hr 9 min 56 sec) 
Heartbeat CPU 1 instructions: 270000000 cycles: 272441162 heartbeat IPC: 0.892237 cumulative IPC: 0.916887 (Simulation time: 2 hr 10 min 18 sec) 
Heartbeat CPU 7 instructions: 140000000 cycles: 272859159 heartbeat IPC: 0.391094 cumulative IPC: 0.423465 (Simulation time: 2 hr 10 min 29 sec) 
Heartbeat CPU 4 instructions: 280000000 cycles: 273303406 heartbeat IPC: 0.985693 cumulative IPC: 0.991222 (Simulation time: 2 hr 10 min 41 sec) 
Heartbeat CPU 2 instructions: 230000003 cycles: 274360232 heartbeat IPC: 0.738835 cumulative IPC: 0.771128 (Simulation time: 2 hr 11 min 10 sec) 
Heartbeat CPU 3 instructions: 270000000 cycles: 275128900 heartbeat IPC: 0.930246 cumulative IPC: 0.94674 (Simulation time: 2 hr 11 min 30 sec) 
Heartbeat CPU 5 instructions: 290000003 cycles: 276949312 heartbeat IPC: 0.943183 cumulative IPC: 0.985034 (Simulation time: 2 hr 12 min 13 sec) 
Heartbeat CPU 4 instructions: 290000003 cycles: 283637994 heartbeat IPC: 0.967625 cumulative IPC: 0.990324 (Simulation time: 2 hr 14 min 48 sec) 
Heartbeat CPU 1 instructions: 280000000 cycles: 284815777 heartbeat IPC: 0.808106 cumulative IPC: 0.911949 (Simulation time: 2 hr 15 min 19 sec) 
Heartbeat CPU 3 instructions: 280000000 cycles: 286573147 heartbeat IPC: 0.873801 cumulative IPC: 0.943697 (Simulation time: 2 hr 16 min 10 sec) 
Heartbeat CPU 6 instructions: 240000000 cycles: 287470725 heartbeat IPC: 0.629818 cumulative IPC: 0.772382 (Simulation time: 2 hr 16 min 34 sec) 
Heartbeat CPU 5 instructions: 300000000 cycles: 288367237 heartbeat IPC: 0.875816 cumulative IPC: 0.980518 (Simulation time: 2 hr 16 min 57 sec) 
Heartbeat CPU 2 instructions: 240000000 cycles: 288766919 heartbeat IPC: 0.694122 cumulative IPC: 0.767115 (Simulation time: 2 hr 17 min 8 sec) 
Heartbeat CPU 4 instructions: 300000000 cycles: 293731524 heartbeat IPC: 0.990733 cumulative IPC: 0.990338 (Simulation time: 2 hr 19 min 28 sec) 
Heartbeat CPU 1 instructions: 290000001 cycles: 295633422 heartbeat IPC: 0.924416 cumulative IPC: 0.912424 (Simulation time: 2 hr 20 min 20 sec) 
Heartbeat CPU 6 instructions: 250000003 cycles: 296495660 heartbeat IPC: 1.10804 cumulative IPC: 0.783039 (Simulation time: 2 hr 20 min 46 sec) 
Heartbeat CPU 3 instructions: 290000000 cycles: 297009661 heartbeat IPC: 0.958174 cumulative IPC: 0.944228 (Simulation time: 2 hr 21 min 0 sec) 
Heartbeat CPU 7 instructions: 150000000 cycles: 297587016 heartbeat IPC: 0.404402 cumulative IPC: 0.421813 (Simulation time: 2 hr 21 min 15 sec) 
Heartbeat CPU 5 instructions: 310000002 cycles: 298361884 heartbeat IPC: 1.00054 cumulative IPC: 0.981217 (Simulation time: 2 hr 21 min 36 sec) 
Heartbeat CPU 2 instructions: 250000000 cycles: 301364116 heartbeat IPC: 0.793827 cumulative IPC: 0.768279 (Simulation time: 2 hr 23 min 2 sec) 
Heartbeat CPU 4 instructions: 310000003 cycles: 303738534 heartbeat IPC: 0.9993 cumulative IPC: 0.990646 (Simulation time: 2 hr 24 min 8 sec) 
Heartbeat CPU 6 instructions: 260000000 cycles: 305553519 heartbeat IPC: 1.10401 cumulative IPC: 0.792952 (Simulation time: 2 hr 25 min 0 sec) 
Heartbeat CPU 1 instructions: 300000000 cycles: 306568928 heartbeat IPC: 0.914452 cumulative IPC: 0.9125 (Simulation time: 2 hr 25 min 30 sec) 
Heartbeat CPU 3 instructions: 300000000 cycles: 307348746 heartbeat IPC: 0.967204 cumulative IPC: 0.945033 (Simulation time: 2 hr 25 min 53 sec) 
Heartbeat CPU 5 instructions: 320000000 cycles: 308059109 heartbeat IPC: 1.03122 cumulative IPC: 0.982857 (Simulation time: 2 hr 26 min 12 sec) 
Heartbeat CPU 4 instructions: 320000000 cycles: 313701663 heartbeat IPC: 1.0037 cumulative IPC: 0.991078 (Simulation time: 2 hr 28 min 49 sec) 
Heartbeat CPU 2 instructions: 260000000 cycles: 313881527 heartbeat IPC: 0.798887 cumulative IPC: 0.76955 (Simulation time: 2 hr 28 min 54 sec) 
Heartbeat CPU 6 instructions: 270000000 cycles: 314886122 heartbeat IPC: 1.07151 cumulative IPC: 0.801543 (Simulation time: 2 hr 29 min 22 sec) 
Heartbeat CPU 1 instructions: 310000000 cycles: 317380944 heartbeat IPC: 0.924897 cumulative IPC: 0.912939 (Simulation time: 2 hr 30 min 33 sec) 
Heartbeat CPU 3 instructions: 310000002 cycles: 317659727 heartbeat IPC: 0.96984 cumulative IPC: 0.945871 (Simulation time: 2 hr 30 min 41 sec) 
Heartbeat CPU 5 instructions: 330000001 cycles: 317843911 heartbeat IPC: 1.02199 cumulative IPC: 0.98411 (Simulation time: 2 hr 30 min 46 sec) 
Heartbeat CPU 7 instructions: 160000000 cycles: 318965625 heartbeat IPC: 0.467757 cumulative IPC: 0.425015 (Simulation time: 2 hr 31 min 18 sec) 
Heartbeat CPU 6 instructions: 280000000 cycles: 323165426 heartbeat IPC: 1.20783 cumulative IPC: 0.812362 (Simulation time: 2 hr 33 min 15 sec) 
Heartbeat CPU 4 instructions: 330000002 cycles: 323637134 heartbeat IPC: 1.00649 cumulative IPC: 0.99157 (Simulation time: 2 hr 33 min 29 sec) 
Heartbeat CPU 2 instructions: 270000001 cycles: 326306234 heartbeat IPC: 0.804848 cumulative IPC: 0.770946 (Simulation time: 2 hr 34 min 45 sec) 
Heartbeat CPU 5 instructions: 340000000 cycles: 327555125 heartbeat IPC: 1.02974 cumulative IPC: 0.985515 (Simulation time: 2 hr 35 min 21 sec) 
Heartbeat CPU 3 instructions: 320000000 cycles: 327959982 heartbeat IPC: 0.97085 cumulative IPC: 0.946685 (Simulation time: 2 hr 35 min 31 sec) 
Heartbeat CPU 1 instructions: 320000000 cycles: 328680680 heartbeat IPC: 0.884976 cumulative IPC: 0.911941 (Simulation time: 2 hr 35 min 51 sec) 
Heartbeat CPU 6 instructions: 290000003 cycles: 332081971 heartbeat IPC: 1.12151 cumulative IPC: 0.820981 (Simulation time: 2 hr 37 min 28 sec) 
Heartbeat CPU 4 instructions: 340000000 cycles: 333645300 heartbeat IPC: 0.999184 cumulative IPC: 0.991807 (Simulation time: 2 hr 38 min 13 sec) 
Heartbeat CPU 5 instructions: 350000003 cycles: 337323252 heartbeat IPC: 1.02374 cumulative IPC: 0.986664 (Simulation time: 2 hr 40 min 1 sec) 
Heartbeat CPU 0 instructions: 60000000 cycles: 337851143 heartbeat IPC: 0.130177 cumulative IPC: 0.122854 (Simulation time: 2 hr 40 min 16 sec) 
Heartbeat CPU 7 instructions: 170000000 cycles: 338178725 heartbeat IPC: 0.520478 cumulative IPC: 0.430643 (Simulation time: 2 hr 40 min 26 sec) 
Heartbeat CPU 3 instructions: 330000001 cycles: 338232722 heartbeat IPC: 0.97345 cumulative IPC: 0.947529 (Simulation time: 2 hr 40 min 28 sec) 
Heartbeat CPU 2 instructions: 280000000 cycles: 338728218 heartbeat IPC: 0.805024 cumulative IPC: 0.772243 (Simulation time: 2 hr 40 min 41 sec) 
Heartbeat CPU 1 instructions: 330000001 cycles: 339330201 heartbeat IPC: 0.939009 cumulative IPC: 0.912822 (Simulation time: 2 hr 40 min 56 sec) 
Heartbeat CPU 6 instructions: 300000000 cycles: 342055213 heartbeat IPC: 1.00268 cumulative IPC: 0.826476 (Simulation time: 2 hr 42 min 6 sec) 
Heartbeat CPU 4 instructions: 350000003 cycles: 343636052 heartbeat IPC: 1.00093 cumulative IPC: 0.992082 (Simulation time: 2 hr 42 min 51 sec) 
Heartbeat CPU 5 instructions: 360000000 cycles: 347278908 heartbeat IPC: 1.00445 cumulative IPC: 0.987192 (Simulation time: 2 hr 44 min 32 sec) 
Heartbeat CPU 3 instructions: 340000000 cycles: 349042143 heartbeat IPC: 0.925119 cumulative IPC: 0.94681 (Simulation time: 2 hr 45 min 17 sec) 
Heartbeat CPU 1 instructions: 340000000 cycles: 350676708 heartbeat IPC: 0.881328 cumulative IPC: 0.911766 (Simulation time: 2 hr 46 min 1 sec) 
Heartbeat CPU 2 instructions: 290000001 cycles: 351820517 heartbeat IPC: 0.763808 cumulative IPC: 0.771918 (Simulation time: 2 hr 46 min 31 sec) 
Heartbeat CPU 6 instructions: 310000002 cycles: 353833843 heartbeat IPC: 0.848995 cumulative IPC: 0.827252 (Simulation time: 2 hr 47 min 23 sec) 
Heartbeat CPU 4 instructions: 360000000 cycles: 353855779 heartbeat IPC: 0.978499 cumulative IPC: 0.991675 (Simulation time: 2 hr 47 min 24 sec) 
Heartbeat CPU 5 instructions: 370000002 cycles: 357525965 heartbeat IPC: 0.97589 cumulative IPC: 0.986857 (Simulation time: 2 hr 49 min 1 sec) 
Heartbeat CPU 3 instructions: 350000002 cycles: 359571643 heartbeat IPC: 0.949713 cumulative IPC: 0.946898 (Simulation time: 2 hr 49 min 53 sec) 
Heartbeat CPU 1 instructions: 350000001 cycles: 361631994 heartbeat IPC: 0.912801 cumulative IPC: 0.911798 (Simulation time: 2 hr 50 min 46 sec) 
Heartbeat CPU 7 instructions: 180000000 cycles: 361988620 heartbeat IPC: 0.419993 cumulative IPC: 0.429918 (Simulation time: 2 hr 50 min 56 sec) 
Heartbeat CPU 4 instructions: 370000000 cycles: 363804729 heartbeat IPC: 1.00513 cumulative IPC: 0.992056 (Simulation time: 2 hr 51 min 42 sec) 
Heartbeat CPU 2 instructions: 300000000 cycles: 364370758 heartbeat IPC: 0.796797 cumulative IPC: 0.772804 (Simulation time: 2 hr 51 min 57 sec) 
Heartbeat CPU 5 instructions: 380000000 cycles: 366996629 heartbeat IPC: 1.05589 cumulative IPC: 0.9887 (Simulation time: 2 hr 53 min 9 sec) 
Heartbeat CPU 6 instructions: 320000000 cycles: 368480513 heartbeat IPC: 0.682749 cumulative IPC: 0.821311 (Simulation time: 2 hr 53 min 47 sec) 
Heartbeat CPU 3 instructions: 360000000 cycles: 369845498 heartbeat IPC: 0.973344 cumulative IPC: 0.947658 (Simulation time: 2 hr 54 min 22 sec) 
Heartbeat CPU 1 instructions: 360000000 cycles: 372362753 heartbeat IPC: 0.9319 cumulative IPC: 0.912397 (Simulation time: 2 hr 55 min 28 sec) 
Heartbeat CPU 4 instructions: 380000000 cycles: 373815070 heartbeat IPC: 0.998967 cumulative IPC: 0.992247 (Simulation time: 2 hr 56 min 4 sec) 
Heartbeat CPU 2 instructions: 310000000 cycles: 377061244 heartbeat IPC: 0.787992 cumulative IPC: 0.773333 (Simulation time: 2 hr 57 min 27 sec) 
Heartbeat CPU 5 instructions: 390000003 cycles: 377083670 heartbeat IPC: 0.991371 cumulative IPC: 0.988774 (Simulation time: 2 hr 57 min 28 sec) 
Heartbeat CPU 6 instructions: 330000002 cycles: 379226853 heartbeat IPC: 0.93055 cumulative IPC: 0.82451 (Simulation time: 2 hr 58 min 24 sec) 
Heartbeat CPU 3 instructions: 370000002 cycles: 380522399 heartbeat IPC: 0.936602 cumulative IPC: 0.947337 (Simulation time: 2 hr 58 min 56 sec) 
Heartbeat CPU 7 instructions: 190000001 cycles: 383433683 heartbeat IPC: 0.466308 cumulative IPC: 0.43202 (Simulation time: 3 hr 0 min 8 sec) 
Heartbeat CPU 4 instructions: 390000000 cycles: 383933898 heartbeat IPC: 0.988257 cumulative IPC: 0.992139 (Simulation time: 3 hr 0 min 20 sec) 
Heartbeat CPU 1 instructions: 370000000 cycles: 384255562 heartbeat IPC: 0.840844 cumulative IPC: 0.91011 (Simulation time: 3 hr 0 min 28 sec) 
Heartbeat CPU 5 instructions: 400000000 cycles: 387207691 heartbeat IPC: 0.98775 cumulative IPC: 0.988746 (Simulation time: 3 hr 1 min 45 sec) 
Heartbeat CPU 6 instructions: 340000000 cycles: 390004038 heartbeat IPC: 0.927886 cumulative IPC: 0.827459 (Simulation time: 3 hr 2 min 55 sec) 
Heartbeat CPU 2 instructions: 320000000 cycles: 390105400 heartbeat IPC: 0.766627 cumulative IPC: 0.773101 (Simulation time: 3 hr 2 min 57 sec) 
Heartbeat CPU 3 instructions: 380000000 cycles: 391093698 heartbeat IPC: 0.945957 cumulative IPC: 0.947299 (Simulation time: 3 hr 3 min 23 sec) 
Heartbeat CPU 4 instructions: 400000000 cycles: 393985225 heartbeat IPC: 0.994893 cumulative IPC: 0.992211 (Simulation time: 3 hr 4 min 34 sec) 
Heartbeat CPU 1 instructions: 380000000 cycles: 394770290 heartbeat IPC: 0.951047 cumulative IPC: 0.911235 (Simulation time: 3 hr 4 min 53 sec) 
Heartbeat CPU 5 instructions: 410000001 cycles: 397832227 heartbeat IPC: 0.941218 cumulative IPC: 0.987436 (Simulation time: 3 hr 6 min 3 sec) 
Heartbeat CPU 3 instructions: 390000002 cycles: 402385045 heartbeat IPC: 0.885634 cumulative IPC: 0.945514 (Simulation time: 3 hr 7 min 45 sec) 
Heartbeat CPU 2 instructions: 330000002 cycles: 404508050 heartbeat IPC: 0.694317 cumulative IPC: 0.770208 (Simulation time: 3 hr 8 min 31 sec) 
Heartbeat CPU 4 instructions: 410000000 cycles: 404539816 heartbeat IPC: 0.947455 cumulative IPC: 0.991007 (Simulation time: 3 hr 8 min 31 sec) 
Heartbeat CPU 6 instructions: 350000000 cycles: 408269333 heartbeat IPC: 0.547486 cumulative IPC: 0.814546 (Simulation time: 3 hr 9 min 54 sec) 
Heartbeat CPU 5 instructions: 420000000 cycles: 409533673 heartbeat IPC: 0.854595 cumulative IPC: 0.983524 (Simulation time: 3 hr 10 min 23 sec) 
Heartbeat CPU 7 instructions: 200000000 cycles: 411982481 heartbeat IPC: 0.350277 cumulative IPC: 0.426182 (Simulation time: 3 hr 11 min 16 sec) 
Heartbeat CPU 3 instructions: 400000000 cycles: 414004744 heartbeat IPC: 0.860607 cumulative IPC: 0.943058 (Simulation time: 3 hr 12 min 1 sec) 
Heartbeat CPU 4 instructions: 420000000 cycles: 414987746 heartbeat IPC: 0.957127 cumulative IPC: 0.990128 (Simulation time: 3 hr 12 min 22 sec) 
Heartbeat CPU 0 instructions: 70000001 cycles: 417908015 heartbeat IPC: 0.124911 cumulative IPC: 0.12326 (Simulation time: 3 hr 13 min 33 sec) 
Heartbeat CPU 2 instructions: 340000000 cycles: 418842313 heartbeat IPC: 0.697629 cumulative IPC: 0.767649 (Simulation time: 3 hr 13 min 54 sec) 
Heartbeat CPU 5 instructions: 430000003 cycles: 420570537 heartbeat IPC: 0.906055 cumulative IPC: 0.98143 (Simulation time: 3 hr 14 min 35 sec) 
Heartbeat CPU 1 instructions: 390000002 cycles: 422299174 heartbeat IPC: 0.363255 cumulative IPC: 0.874445 (Simulation time: 3 hr 15 min 20 sec) 
Heartbeat CPU 6 instructions: 360000000 cycles: 422405554 heartbeat IPC: 0.707403 cumulative IPC: 0.810853 (Simulation time: 3 hr 15 min 23 sec) 
Heartbeat CPU 3 instructions: 410000002 cycles: 424726577 heartbeat IPC: 0.932677 cumulative IPC: 0.942788 (Simulation time: 3 hr 16 min 24 sec) 
Heartbeat CPU 4 instructions: 430000000 cycles: 425066215 heartbeat IPC: 0.992214 cumulative IPC: 0.990179 (Simulation time: 3 hr 16 min 33 sec) 
Heartbeat CPU 5 instructions: 440000000 cycles: 430360035 heartbeat IPC: 1.0215 cumulative IPC: 0.982368 (Simulation time: 3 hr 18 min 58 sec) 
Heartbeat CPU 2 instructions: 350000001 cycles: 431450887 heartbeat IPC: 0.793111 cumulative IPC: 0.768415 (Simulation time: 3 hr 19 min 28 sec) 
Heartbeat CPU 7 instructions: 210000002 cycles: 433413277 heartbeat IPC: 0.466618 cumulative IPC: 0.42824 (Simulation time: 3 hr 20 min 21 sec) 
Heartbeat CPU 1 instructions: 400000000 cycles: 434398655 heartbeat IPC: 0.826482 cumulative IPC: 0.873071 (Simulation time: 3 hr 20 min 47 sec) 
Heartbeat CPU 4 instructions: 440000000 cycles: 435017852 heartbeat IPC: 1.00486 cumulative IPC: 0.990525 (Simulation time: 3 hr 21 min 4 sec) 
Heartbeat CPU 3 instructions: 420000000 cycles: 435167649 heartbeat IPC: 0.957756 cumulative IPC: 0.943158 (Simulation time: 3 hr 21 min 8 sec) 
Heartbeat CPU 6 instructions: 370000001 cycles: 435494832 heartbeat IPC: 0.763984 cumulative IPC: 0.809403 (Simulation time: 3 hr 21 min 16 sec) 
Heartbeat CPU 5 instructions: 450000002 cycles: 440149184 heartbeat IPC: 1.02154 cumulative IPC: 0.983264 (Simulation time: 3 hr 23 min 22 sec) 
Heartbeat CPU 2 instructions: 360000000 cycles: 443999878 heartbeat IPC: 0.796877 cumulative IPC: 0.769243 (Simulation time: 3 hr 25 min 3 sec) 
Heartbeat CPU 4 instructions: 450000003 cycles: 444964157 heartbeat IPC: 1.0054 cumulative IPC: 0.990867 (Simulation time: 3 hr 25 min 27 sec) 
Heartbeat CPU 3 instructions: 430000001 cycles: 445645041 heartbeat IPC: 0.954436 cumulative IPC: 0.94343 (Simulation time: 3 hr 25 min 46 sec) 
Heartbeat CPU 1 instructions: 410000001 cycles: 446566594 heartbeat IPC: 0.821832 cumulative IPC: 0.871635 (Simulation time: 3 hr 26 min 9 sec) 
Heartbeat CPU 5 instructions: 460000000 cycles: 450218655 heartbeat IPC: 0.993101 cumulative IPC: 0.98349 (Simulation time: 3 hr 27 min 39 sec) 
Heartbeat CPU 6 instructions: 380000000 cycles: 451401843 heartbeat IPC: 0.628654 cumulative IPC: 0.802856 (Simulation time: 3 hr 28 min 10 sec) 
Heartbeat CPU 4 instructions: 460000000 cycles: 455043807 heartbeat IPC: 0.992098 cumulative IPC: 0.990895 (Simulation time: 3 hr 29 min 44 sec) 
Heartbeat CPU 3 instructions: 440000000 cycles: 456257193 heartbeat IPC: 0.942316 cumulative IPC: 0.943404 (Simulation time: 3 hr 30 min 16 sec) 
Heartbeat CPU 7 instructions: 220000000 cycles: 456277912 heartbeat IPC: 0.437357 cumulative IPC: 0.428709 (Simulation time: 3 hr 30 min 16 sec) 
Heartbeat CPU 2 instructions: 370000000 cycles: 457023675 heartbeat IPC: 0.767825 cumulative IPC: 0.769201 (Simulation time: 3 hr 30 min 36 sec) 
Heartbeat CPU 1 instructions: 420000000 cycles: 458843323 heartbeat IPC: 0.814549 cumulative IPC: 0.870066 (Simulation time: 3 hr 31 min 24 sec) 
Heartbeat CPU 5 instructions: 470000002 cycles: 460066300 heartbeat IPC: 1.01547 cumulative IPC: 0.984194 (Simulation time: 3 hr 31 min 57 sec) 
Heartbeat CPU 6 instructions: 390000000 cycles: 463688949 heartbeat IPC: 0.813861 cumulative IPC: 0.803156 (Simulation time: 3 hr 33 min 32 sec) 
Heartbeat CPU 4 instructions: 470000003 cycles: 464977537 heartbeat IPC: 1.00667 cumulative IPC: 0.991241 (Simulation time: 3 hr 34 min 7 sec) 
Heartbeat CPU 3 instructions: 450000000 cycles: 466523612 heartbeat IPC: 0.974049 cumulative IPC: 0.944096 (Simulation time: 3 hr 34 min 47 sec) 
Heartbeat CPU 2 instructions: 380000000 cycles: 469502366 heartbeat IPC: 0.801366 cumulative IPC: 0.770079 (Simulation time: 3 hr 36 min 4 sec) 
Heartbeat CPU 5 instructions: 480000000 cycles: 469745949 heartbeat IPC: 1.0331 cumulative IPC: 0.985228 (Simulation time: 3 hr 36 min 10 sec) 
Heartbeat CPU 1 instructions: 430000000 cycles: 470982933 heartbeat IPC: 0.82375 cumulative IPC: 0.86884 (Simulation time: 3 hr 36 min 43 sec) 
Heartbeat CPU 4 instructions: 480000000 cycles: 474966239 heartbeat IPC: 1.00113 cumulative IPC: 0.991454 (Simulation time: 3 hr 38 min 26 sec) 
Heartbeat CPU 3 instructions: 460000000 cycles: 476817615 heartbeat IPC: 0.971439 cumulative IPC: 0.944702 (Simulation time: 3 hr 39 min 15 sec) 
Heartbeat CPU 6 instructions: 400000000 cycles: 476838472 heartbeat IPC: 0.760484 cumulative IPC: 0.801948 (Simulation time: 3 hr 39 min 15 sec) 
Heartbeat CPU 7 instructions: 230000003 cycles: 477954390 heartbeat IPC: 0.46133 cumulative IPC: 0.430228 (Simulation time: 3 hr 39 min 46 sec) 
Heartbeat CPU 5 instructions: 490000001 cycles: 479323077 heartbeat IPC: 1.04415 cumulative IPC: 0.986437 (Simulation time: 3 hr 40 min 21 sec) 
Heartbeat CPU 2 instructions: 390000003 cycles: 481995179 heartbeat IPC: 0.80046 cumulative IPC: 0.770887 (Simulation time: 3 hr 41 min 29 sec) 
Heartbeat CPU 1 instructions: 440000000 cycles: 483065542 heartbeat IPC: 0.827636 cumulative IPC: 0.867783 (Simulation time: 3 hr 41 min 55 sec) 
Heartbeat CPU 4 instructions: 490000000 cycles: 484963050 heartbeat IPC: 1.00032 cumulative IPC: 0.991642 (Simulation time: 3 hr 42 min 40 sec) 
Heartbeat CPU 3 instructions: 470000001 cycles: 487323357 heartbeat IPC: 0.95186 cumulative IPC: 0.944861 (Simulation time: 3 hr 43 min 39 sec) 
Heartbeat CPU 5 instructions: 500000000 cycles: 489410685 heartbeat IPC: 0.991315 cumulative IPC: 0.98654 (Simulation time: 3 hr 44 min 33 sec) 
Heartbeat CPU 6 instructions: 410000001 cycles: 492008667 heartbeat IPC: 0.659187 cumulative IPC: 0.797434 (Simulation time: 3 hr 45 min 38 sec) 
Heartbeat CPU 0 instructions: 80000000 cycles: 493811418 heartbeat IPC: 0.131746 cumulative IPC: 0.124597 (Simulation time: 3 hr 46 min 24 sec) 
Heartbeat CPU 2 instructions: 400000000 cycles: 494969093 heartbeat IPC: 0.770777 cumulative IPC: 0.770884 (Simulation time: 3 hr 46 min 53 sec) 
Heartbeat CPU 4 instructions: 500000000 cycles: 495017943 heartbeat IPC: 0.994541 cumulative IPC: 0.991702 (Simulation time: 3 hr 46 min 55 sec) 
Heartbeat CPU 1 instructions: 450000002 cycles: 495238967 heartbeat IPC: 0.821462 cumulative IPC: 0.866615 (Simulation time: 3 hr 47 min 0 sec) 
Heartbeat CPU 3 instructions: 480000000 cycles: 497711356 heartbeat IPC: 0.962649 cumulative IPC: 0.945241 (Simulation time: 3 hr 48 min 6 sec) 
Heartbeat CPU 5 instructions: 510000002 cycles: 499145450 heartbeat IPC: 1.02725 cumulative IPC: 0.987354 (Simulation time: 3 hr 48 min 45 sec) 
Heartbeat CPU 7 instructions: 240000000 cycles: 499255299 heartbeat IPC: 0.469463 cumulative IPC: 0.431944 (Simulation time: 3 hr 48 min 48 sec) 
Heartbeat CPU 6 instructions: 420000000 cycles: 504920572 heartbeat IPC: 0.774479 cumulative IPC: 0.796832 (Simulation time: 3 hr 51 min 12 sec) 
Heartbeat CPU 4 instructions: 510000000 cycles: 505149196 heartbeat IPC: 0.987045 cumulative IPC: 0.991606 (Simulation time: 3 hr 51 min 17 sec) 
Heartbeat CPU 1 instructions: 460000000 cycles: 507283167 heartbeat IPC: 0.830275 cumulative IPC: 0.865731 (Simulation time: 3 hr 52 min 12 sec) 
Heartbeat CPU 2 instructions: 410000000 cycles: 507560147 heartbeat IPC: 0.794215 cumulative IPC: 0.771477 (Simulation time: 3 hr 52 min 18 sec) 
Heartbeat CPU 3 instructions: 490000002 cycles: 508019575 heartbeat IPC: 0.9701 cumulative IPC: 0.945758 (Simulation time: 3 hr 52 min 30 sec) 
Heartbeat CPU 5 instructions: 520000000 cycles: 509118598 heartbeat IPC: 1.00269 cumulative IPC: 0.987661 (Simulation time: 3 hr 52 min 58 sec) 
Heartbeat CPU 4 instructions: 520000000 cycles: 515091082 heartbeat IPC: 1.00585 cumulative IPC: 0.991888 (Simulation time: 3 hr 55 min 31 sec) 
Heartbeat CPU 3 instructions: 500000000 cycles: 518326337 heartbeat IPC: 0.970237 cumulative IPC: 0.946257 (Simulation time: 3 hr 56 min 52 sec) 
Heartbeat CPU 5 instructions: 530000001 cycles: 518838337 heartbeat IPC: 1.02883 cumulative IPC: 0.988451 (Simulation time: 3 hr 57 min 4 sec) 
Heartbeat CPU 1 instructions: 470000003 cycles: 519498264 heartbeat IPC: 0.818659 cumulative IPC: 0.864597 (Simulation time: 3 hr 57 min 20 sec) 
Heartbeat CPU 6 instructions: 430000000 cycles: 519931752 heartbeat IPC: 0.66617 cumulative IPC: 0.792969 (Simulation time: 3 hr 57 min 30 sec) 
Heartbeat CPU 2 instructions: 420000000 cycles: 520185911 heartbeat IPC: 0.792031 cumulative IPC: 0.771988 (Simulation time: 3 hr 57 min 36 sec) 
Heartbeat CPU 7 instructions: 250000000 cycles: 522395970 heartbeat IPC: 0.43214 cumulative IPC: 0.431953 (Simulation time: 3 hr 58 min 29 sec) 
Heartbeat CPU 4 instructions: 530000002 cycles: 525112667 heartbeat IPC: 0.997846 cumulative IPC: 0.992004 (Simulation time: 3 hr 59 min 38 sec) 
Heartbeat CPU 3 instructions: 510000001 cycles: 528907249 heartbeat IPC: 0.945098 cumulative IPC: 0.946233 (Simulation time: 4 hr 1 min 12 sec) 
Heartbeat CPU 5 instructions: 540000000 cycles: 529027546 heartbeat IPC: 0.98143 cumulative IPC: 0.988313 (Simulation time: 4 hr 1 min 15 sec) 
Heartbeat CPU 1 instructions: 480000000 cycles: 531741442 heartbeat IPC: 0.816781 cumulative IPC: 0.86347 (Simulation time: 4 hr 2 min 25 sec) 
Heartbeat CPU 2 instructions: 430000003 cycles: 532978160 heartbeat IPC: 0.781724 cumulative IPC: 0.772227 (Simulation time: 4 hr 2 min 58 sec) 
Heartbeat CPU 6 instructions: 440000000 cycles: 533109126 heartbeat IPC: 0.758877 cumulative IPC: 0.792106 (Simulation time: 4 hr 3 min 1 sec) 
Heartbeat CPU 4 instructions: 540000000 cycles: 535084879 heartbeat IPC: 1.00279 cumulative IPC: 0.99221 (Simulation time: 4 hr 3 min 52 sec) 
Heartbeat CPU 5 instructions: 550000003 cycles: 538668961 heartbeat IPC: 1.03719 cumulative IPC: 0.989208 (Simulation time: 4 hr 5 min 26 sec) 
Heartbeat CPU 3 instructions: 520000000 cycles: 539233466 heartbeat IPC: 0.968409 cumulative IPC: 0.946667 (Simulation time: 4 hr 5 min 40 sec) 
Heartbeat CPU 7 instructions: 260000000 cycles: 543020165 heartbeat IPC: 0.484867 cumulative IPC: 0.434009 (Simulation time: 4 hr 7 min 15 sec) 
Heartbeat CPU 1 instructions: 490000003 cycles: 543881085 heartbeat IPC: 0.823748 cumulative IPC: 0.862563 (Simulation time: 4 hr 7 min 36 sec) 
Heartbeat CPU 4 instructions: 550000002 cycles: 545053408 heartbeat IPC: 1.00316 cumulative IPC: 0.992415 (Simulation time: 4 hr 8 min 7 sec) 
Heartbeat CPU 2 instructions: 440000000 cycles: 545468271 heartbeat IPC: 0.800633 cumulative IPC: 0.772893 (Simulation time: 4 hr 8 min 17 sec) 
Heartbeat CPU 6 instructions: 450000000 cycles: 546107513 heartbeat IPC: 0.769326 cumulative IPC: 0.791551 (Simulation time: 4 hr 8 min 33 sec) 
Heartbeat CPU 5 instructions: 560000000 cycles: 548490885 heartbeat IPC: 1.01813 cumulative IPC: 0.989738 (Simulation time: 4 hr 9 min 34 sec) 
Heartbeat CPU 3 instructions: 530000000 cycles: 549568072 heartbeat IPC: 0.967623 cumulative IPC: 0.94707 (Simulation time: 4 hr 10 min 2 sec) 
Heartbeat CPU 4 instructions: 560000000 cycles: 555038267 heartbeat IPC: 1.00152 cumulative IPC: 0.992582 (Simulation time: 4 hr 12 min 18 sec) 
Heartbeat CPU 1 instructions: 500000000 cycles: 555967844 heartbeat IPC: 0.827351 cumulative IPC: 0.861781 (Simulation time: 4 hr 12 min 41 sec) 
Heartbeat CPU 2 instructions: 450000000 cycles: 558049546 heartbeat IPC: 0.794832 cumulative IPC: 0.773398 (Simulation time: 4 hr 13 min 32 sec) 
Heartbeat CPU 5 instructions: 570000001 cycles: 558323253 heartbeat IPC: 1.01705 cumulative IPC: 0.99023 (Simulation time: 4 hr 13 min 39 sec) 
Heartbeat CPU 3 instructions: 540000000 cycles: 560051626 heartbeat IPC: 0.953875 cumulative IPC: 0.947201 (Simulation time: 4 hr 14 min 20 sec) 
Heartbeat CPU 6 instructions: 460000000 cycles: 562593623 heartbeat IPC: 0.606571 cumulative IPC: 0.78601 (Simulation time: 4 hr 15 min 21 sec) 
Heartbeat CPU 4 instructions: 570000003 cycles: 565149591 heartbeat IPC: 0.98899 cumulative IPC: 0.992517 (Simulation time: 4 hr 16 min 22 sec) 
Heartbeat CPU 7 instructions: 270000002 cycles: 567202383 heartbeat IPC: 0.413527 cumulative IPC: 0.433116 (Simulation time: 4 hr 17 min 3 sec) 
Heartbeat CPU 5 instructions: 580000000 cycles: 569146697 heartbeat IPC: 0.92392 cumulative IPC: 0.988941 (Simulation time: 4 hr 17 min 42 sec) 
Heartbeat CPU 3 instructions: 550000001 cycles: 571352289 heartbeat IPC: 0.884904 cumulative IPC: 0.945942 (Simulation time: 4 hr 18 min 27 sec) 
Heartbeat CPU 2 instructions: 460000000 cycles: 572048044 heartbeat IPC: 0.714362 cumulative IPC: 0.771922 (Simulation time: 4 hr 18 min 42 sec) 
Heartbeat CPU 4 instructions: 580000000 cycles: 575475925 heartbeat IPC: 0.968398 cumulative IPC: 0.992074 (Simulation time: 4 hr 19 min 53 sec) 
Heartbeat CPU 0 instructions: 90000002 cycles: 576707012 heartbeat IPC: 0.120634 cumulative IPC: 0.124015 (Simulation time: 4 hr 20 min 18 sec) 
Heartbeat CPU 5 instructions: 590000002 cycles: 580345138 heartbeat IPC: 0.892982 cumulative IPC: 0.987049 (Simulation time: 4 hr 21 min 32 sec) 
Heartbeat CPU 3 instructions: 560000000 cycles: 582883252 heartbeat IPC: 0.86723 cumulative IPC: 0.944351 (Simulation time: 4 hr 22 min 25 sec) 
Heartbeat CPU 6 instructions: 470000001 cycles: 583019518 heartbeat IPC: 0.489575 cumulative IPC: 0.775401 (Simulation time: 4 hr 22 min 28 sec) 
Heartbeat CPU 1 instructions: 510000001 cycles: 585010583 heartbeat IPC: 0.34432 cumulative IPC: 0.835541 (Simulation time: 4 hr 23 min 18 sec) 
Heartbeat CPU 4 instructions: 590000003 cycles: 585818693 heartbeat IPC: 0.966859 cumulative IPC: 0.99162 (Simulation time: 4 hr 23 min 38 sec) 
Heartbeat CPU 2 instructions: 470000000 cycles: 586176954 heartbeat IPC: 0.707769 cumulative IPC: 0.770343 (Simulation time: 4 hr 23 min 47 sec) 
Heartbeat CPU 5 instructions: 600000000 cycles: 590542238 heartbeat IPC: 0.980671 cumulative IPC: 0.986937 (Simulation time: 4 hr 25 min 39 sec) 
Heartbeat CPU 6 instructions: 480000000 cycles: 591846434 heartbeat IPC: 1.1329 cumulative IPC: 0.780846 (Simulation time: 4 hr 26 min 11 sec) 
Heartbeat CPU 3 instructions: 570000001 cycles: 593263004 heartbeat IPC: 0.963414 cumulative IPC: 0.944691 (Simulation time: 4 hr 26 min 49 sec) 
Heartbeat CPU 7 instructions: 280000000 cycles: 593488030 heartbeat IPC: 0.380436 cumulative IPC: 0.430734 (Simulation time: 4 hr 26 min 56 sec) 
Heartbeat CPU 4 instructions: 600000000 cycles: 595807382 heartbeat IPC: 1.00113 cumulative IPC: 0.991782 (Simulation time: 4 hr 27 min 56 sec) 
Heartbeat CPU 1 instructions: 520000000 cycles: 597318254 heartbeat IPC: 0.812501 cumulative IPC: 0.835057 (Simulation time: 4 hr 28 min 35 sec) 
Heartbeat CPU 2 instructions: 480000000 cycles: 598480090 heartbeat IPC: 0.812801 cumulative IPC: 0.771234 (Simulation time: 4 hr 29 min 6 sec) 
Heartbeat CPU 5 instructions: 610000003 cycles: 599983105 heartbeat IPC: 1.05923 cumulative IPC: 0.988098 (Simulation time: 4 hr 29 min 45 sec) 
Heartbeat CPU 6 instructions: 490000003 cycles: 601372606 heartbeat IPC: 1.04974 cumulative IPC: 0.785194 (Simulation time: 4 hr 30 min 23 sec) 
Heartbeat CPU 3 instructions: 580000000 cycles: 603384607 heartbeat IPC: 0.987986 cumulative IPC: 0.945433 (Simulation time: 4 hr 31 min 16 sec) 
Heartbeat CPU 4 instructions: 610000001 cycles: 605731897 heartbeat IPC: 1.00761 cumulative IPC: 0.992047 (Simulation time: 4 hr 32 min 15 sec) 
Heartbeat CPU 5 instructions: 620000000 cycles: 609688977 heartbeat IPC: 1.0303 cumulative IPC: 0.988784 (Simulation time: 4 hr 33 min 53 sec) 
Heartbeat CPU 2 instructions: 490000001 cycles: 611024086 heartbeat IPC: 0.797194 cumulative IPC: 0.771778 (Simulation time: 4 hr 34 min 23 sec) 
Heartbeat CPU 6 instructions: 500000000 cycles: 611201417 heartbeat IPC: 1.01742 cumulative IPC: 0.789005 (Simulation time: 4 hr 34 min 27 sec) 
Heartbeat CPU 1 instructions: 530000001 cycles: 612039845 heartbeat IPC: 0.679274 cumulative IPC: 0.831233 (Simulation time: 4 hr 34 min 46 sec) 
Heartbeat CPU 3 instructions: 590000001 cycles: 614111575 heartbeat IPC: 0.93223 cumulative IPC: 0.945197 (Simulation time: 4 hr 35 min 33 sec) 
Heartbeat CPU 7 instructions: 290000000 cycles: 614486167 heartbeat IPC: 0.476233 cumulative IPC: 0.43232 (Simulation time: 4 hr 35 min 41 sec) 
Heartbeat CPU 4 instructions: 620000000 cycles: 615869206 heartbeat IPC: 0.986455 cumulative IPC: 0.991953 (Simulation time: 4 hr 36 min 12 sec) 
Heartbeat CPU 5 instructions: 630000001 cycles: 620715715 heartbeat IPC: 0.906887 cumulative IPC: 0.9873 (Simulation time: 4 hr 38 min 3 sec) 
Heartbeat CPU 6 instructions: 510000001 cycles: 624455775 heartbeat IPC: 0.754469 cumulative IPC: 0.788257 (Simulation time: 4 hr 39 min 29 sec) 
Heartbeat CPU 2 instructions: 500000000 cycles: 625285749 heartbeat IPC: 0.70118 cumulative IPC: 0.770135 (Simulation time: 4 hr 39 min 49 sec) 
Heartbeat CPU 3 instructions: 600000000 cycles: 625300158 heartbeat IPC: 0.893768 cumulative IPC: 0.944259 (Simulation time: 4 hr 39 min 49 sec) 
Heartbeat CPU 4 instructions: 630000003 cycles: 626068430 heartbeat IPC: 0.980467 cumulative IPC: 0.991762 (Simulation time: 4 hr 40 min 7 sec) 
Heartbeat CPU 1 instructions: 540000000 cycles: 627324128 heartbeat IPC: 0.654267 cumulative IPC: 0.826835 (Simulation time: 4 hr 40 min 38 sec) 
Heartbeat CPU 5 instructions: 640000000 cycles: 631868716 heartbeat IPC: 0.89662 cumulative IPC: 0.985667 (Simulation time: 4 hr 42 min 30 sec) 
Heartbeat CPU 6 instructions: 520000000 cycles: 633427601 heartbeat IPC: 1.1146 cumulative IPC: 0.792971 (Simulation time: 4 hr 43 min 10 sec) 
Heartbeat CPU 3 instructions: 610000000 cycles: 636139382 heartbeat IPC: 0.922575 cumulative IPC: 0.943882 (Simulation time: 4 hr 44 min 18 sec) 
Heartbeat CPU 4 instructions: 640000000 cycles: 636210577 heartbeat IPC: 0.985984 cumulative IPC: 0.991668 (Simulation time: 4 hr 44 min 20 sec) 
Heartbeat CPU 2 instructions: 510000000 cycles: 638341420 heartbeat IPC: 0.765951 cumulative IPC: 0.770048 (Simulation time: 4 hr 45 min 15 sec) 
Heartbeat CPU 7 instructions: 300000000 cycles: 639055045 heartbeat IPC: 0.407019 cumulative IPC: 0.431329 (Simulation time: 4 hr 45 min 32 sec) 
Heartbeat CPU 1 instructions: 550000001 cycles: 639445474 heartbeat IPC: 0.824991 cumulative IPC: 0.8268 (Simulation time: 4 hr 45 min 42 sec) 
Heartbeat CPU 5 instructions: 650000000 cycles: 641556902 heartbeat IPC: 1.03218 cumulative IPC: 0.986383 (Simulation time: 4 hr 46 min 36 sec) 
Heartbeat CPU 6 instructions: 530000001 cycles: 642995583 heartbeat IPC: 1.04515 cumulative IPC: 0.796796 (Simulation time: 4 hr 47 min 14 sec) 
Heartbeat CPU 4 instructions: 650000002 cycles: 646130961 heartbeat IPC: 1.00803 cumulative IPC: 0.991924 (Simulation time: 4 hr 48 min 34 sec) 
Heartbeat CPU 3 instructions: 620000000 cycles: 646606716 heartbeat IPC: 0.955353 cumulative IPC: 0.944071 (Simulation time: 4 hr 48 min 46 sec) 
Heartbeat CPU 1 instructions: 560000000 cycles: 650238843 heartbeat IPC: 0.926495 cumulative IPC: 0.828486 (Simulation time: 4 hr 50 min 17 sec) 
Heartbeat CPU 2 instructions: 520000000 cycles: 650698121 heartbeat IPC: 0.809277 cumulative IPC: 0.770807 (Simulation time: 4 hr 50 min 28 sec) 
Heartbeat CPU 5 instructions: 660000000 cycles: 651142680 heartbeat IPC: 1.04321 cumulative IPC: 0.987236 (Simulation time: 4 hr 50 min 38 sec) 
Heartbeat CPU 6 instructions: 540000000 cycles: 653609918 heartbeat IPC: 0.942122 cumulative IPC: 0.799201 (Simulation time: 4 hr 51 min 37 sec) 
Heartbeat CPU 4 instructions: 660000000 cycles: 656202354 heartbeat IPC: 0.992911 cumulative IPC: 0.99194 (Simulation time: 4 hr 52 min 42 sec) 
Heartbeat CPU 3 instructions: 630000000 cycles: 656881724 heartbeat IPC: 0.973235 cumulative IPC: 0.944536 (Simulation time: 4 hr 52 min 57 sec) 
Heartbeat CPU 5 instructions: 670000001 cycles: 660926055 heartbeat IPC: 1.02214 cumulative IPC: 0.987763 (Simulation time: 4 hr 54 min 36 sec) 
Heartbeat CPU 1 instructions: 570000002 cycles: 661754514 heartbeat IPC: 0.868382 cumulative IPC: 0.829194 (Simulation time: 4 hr 54 min 54 sec) 
Heartbeat CPU 0 instructions: 100000000 cycles: 661974045 heartbeat IPC: 0.117279 cumulative IPC: 0.123131 (Simulation time: 4 hr 54 min 59 sec) 
Heartbeat CPU 7 instructions: 310000003 cycles: 662050729 heartbeat IPC: 0.434864 cumulative IPC: 0.431454 (Simulation time: 4 hr 55 min 1 sec) 
Heartbeat CPU 2 instructions: 530000002 cycles: 663336512 heartbeat IPC: 0.79124 cumulative IPC: 0.771204 (Simulation time: 4 hr 55 min 31 sec) 
Heartbeat CPU 6 instructions: 550000001 cycles: 666107898 heartbeat IPC: 0.800129 cumulative IPC: 0.799219 (Simulation time: 4 hr 56 min 41 sec) 
Heartbeat CPU 4 instructions: 670000000 cycles: 666232070 heartbeat IPC: 0.997037 cumulative IPC: 0.992018 (Simulation time: 4 hr 56 min 44 sec) 
Heartbeat CPU 3 instructions: 640000000 cycles: 667357639 heartbeat IPC: 0.954571 cumulative IPC: 0.944697 (Simulation time: 4 hr 57 min 12 sec) 
Heartbeat CPU 5 instructions: 680000000 cycles: 670887202 heartbeat IPC: 1.0039 cumulative IPC: 0.988007 (Simulation time: 4 hr 58 min 46 sec) 
Heartbeat CPU 1 instructions: 580000000 cycles: 672924194 heartbeat IPC: 0.895281 cumulative IPC: 0.830311 (Simulation time: 4 hr 59 min 39 sec) 
Heartbeat CPU 6 instructions: 560000000 cycles: 675016330 heartbeat IPC: 1.12253 cumulative IPC: 0.803565 (Simulation time: 5 hr 0 min 32 sec) 
Heartbeat CPU 2 instructions: 540000000 cycles: 675803796 heartbeat IPC: 0.802099 cumulative IPC: 0.771784 (Simulation time: 5 hr 0 min 54 sec) 
Heartbeat CPU 4 instructions: 680000000 cycles: 676185949 heartbeat IPC: 1.00463 cumulative IPC: 0.992207 (Simulation time: 5 hr 1 min 3 sec) 
Heartbeat CPU 3 instructions: 650000002 cycles: 677554373 heartbeat IPC: 0.980706 cumulative IPC: 0.945249 (Simulation time: 5 hr 1 min 38 sec) 
Heartbeat CPU 5 instructions: 690000002 cycles: 680468423 heartbeat IPC: 1.04371 cumulative IPC: 0.988805 (Simulation time: 5 hr 2 min 54 sec) 
Heartbeat CPU 1 instructions: 590000002 cycles: 684026210 heartbeat IPC: 0.900737 cumulative IPC: 0.831475 (Simulation time: 5 hr 4 min 26 sec) 
Heartbeat CPU 6 instructions: 570000001 cycles: 684617834 heartbeat IPC: 1.0415 cumulative IPC: 0.806963 (Simulation time: 5 hr 4 min 41 sec) 
Heartbeat CPU 7 instructions: 320000000 cycles: 684727030 heartbeat IPC: 0.440989 cumulative IPC: 0.431775 (Simulation time: 5 hr 4 min 44 sec) 
Heartbeat CPU 4 instructions: 690000001 cycles: 686075461 heartbeat IPC: 1.01117 cumulative IPC: 0.992485 (Simulation time: 5 hr 5 min 21 sec) 
Heartbeat CPU 3 instructions: 660000000 cycles: 687739697 heartbeat IPC: 0.981805 cumulative IPC: 0.9458 (Simulation time: 5 hr 6 min 3 sec) 
Heartbeat CPU 2 instructions: 550000003 cycles: 687997275 heartbeat IPC: 0.820111 cumulative IPC: 0.772656 (Simulation time: 5 hr 6 min 10 sec) 
Heartbeat CPU 5 instructions: 700000000 cycles: 690079893 heartbeat IPC: 1.04042 cumulative IPC: 0.989537 (Simulation time: 5 hr 7 min 3 sec) 
Heartbeat CPU 1 instructions: 600000000 cycles: 694865271 heartbeat IPC: 0.922589 cumulative IPC: 0.832922 (Simulation time: 5 hr 9 min 0 sec) 
Heartbeat CPU 6 instructions: 580000000 cycles: 695041593 heartbeat IPC: 0.959347 cumulative IPC: 0.809289 (Simulation time: 5 hr 9 min 4 sec) 
Heartbeat CPU 4 instructions: 700000000 cycles: 695996780 heartbeat IPC: 1.00793 cumulative IPC: 0.99271 (Simulation time: 5 hr 9 min 28 sec) 
Heartbeat CPU 3 instructions: 670000002 cycles: 697984043 heartbeat IPC: 0.976148 cumulative IPC: 0.946253 (Simulation time: 5 hr 10 min 14 sec) 
Heartbeat CPU 5 instructions: 710000002 cycles: 700193761 heartbeat IPC: 0.988742 cumulative IPC: 0.989526 (Simulation time: 5 hr 11 min 1 sec) 
Heartbeat CPU 2 instructions: 560000000 cycles: 700927793 heartbeat IPC: 0.773364 cumulative IPC: 0.77267 (Simulation time: 5 hr 11 min 16 sec) 
Heartbeat CPU 4 instructions: 710000003 cycles: 706407205 heartbeat IPC: 0.960576 cumulative IPC: 0.992228 (Simulation time: 5 hr 13 min 8 sec) 
Heartbeat CPU 7 instructions: 330000002 cycles: 706787492 heartbeat IPC: 0.4533 cumulative IPC: 0.432459 (Simulation time: 5 hr 13 min 17 sec) 
Heartbeat CPU 6 instructions: 590000000 cycles: 709495577 heartbeat IPC: 0.691851 cumulative IPC: 0.806855 (Simulation time: 5 hr 14 min 19 sec) 
Heartbeat CPU 3 instructions: 680000000 cycles: 709700182 heartbeat IPC: 0.853523 cumulative IPC: 0.944695 (Simulation time: 5 hr 14 min 24 sec) 
Heartbeat CPU 5 instructions: 720000000 cycles: 711901355 heartbeat IPC: 0.854146 cumulative IPC: 0.98726 (Simulation time: 5 hr 15 min 14 sec) 
Heartbeat CPU 2 instructions: 570000003 cycles: 715522845 heartbeat IPC: 0.685164 cumulative IPC: 0.770854 (Simulation time: 5 hr 16 min 42 sec) 
Heartbeat CPU 1 instructions: 610000000 cycles: 716226925 heartbeat IPC: 0.468129 cumulative IPC: 0.821852 (Simulation time: 5 hr 16 min 59 sec) 
Heartbeat CPU 4 instructions: 720000000 cycles: 716679085 heartbeat IPC: 0.973531 cumulative IPC: 0.991955 (Simulation time: 5 hr 17 min 11 sec) 
Heartbeat CPU 6 instructions: 600000000 cycles: 718499126 heartbeat IPC: 1.11067 cumulative IPC: 0.810728 (Simulation time: 5 hr 17 min 58 sec) 
Heartbeat CPU 3 instructions: 690000001 cycles: 720527594 heartbeat IPC: 0.923582 cumulative IPC: 0.944373 (Simulation time: 5 hr 18 min 49 sec) 
Heartbeat CPU 5 instructions: 730000003 cycles: 721951685 heartbeat IPC: 0.994992 cumulative IPC: 0.98737 (Simulation time: 5 hr 19 min 26 sec) 
Heartbeat CPU 4 instructions: 730000000 cycles: 726712671 heartbeat IPC: 0.996653 cumulative IPC: 0.992021 (Simulation time: 5 hr 21 min 29 sec) 
Heartbeat CPU 7 instructions: 340000000 cycles: 727802710 heartbeat IPC: 0.475846 cumulative IPC: 0.433733 (Simulation time: 5 hr 21 min 56 sec) 
Heartbeat CPU 2 instructions: 580000000 cycles: 727963468 heartbeat IPC: 0.803818 cumulative IPC: 0.771427 (Simulation time: 5 hr 22 min 0 sec) 
Heartbeat CPU 6 instructions: 610000000 cycles: 728103479 heartbeat IPC: 1.04119 cumulative IPC: 0.81382 (Simulation time: 5 hr 22 min 3 sec) 
Heartbeat CPU 1 instructions: 620000000 cycles: 729731357 heartbeat IPC: 0.740498 cumulative IPC: 0.820321 (Simulation time: 5 hr 22 min 42 sec) 
Heartbeat CPU 3 instructions: 700000000 cycles: 730927521 heartbeat IPC: 0.961545 cumulative IPC: 0.944621 (Simulation time: 5 hr 23 min 12 sec) 
Heartbeat CPU 5 instructions: 740000000 cycles: 731759599 heartbeat IPC: 1.01958 cumulative IPC: 0.987809 (Simulation time: 5 hr 23 min 33 sec) 
Heartbeat CPU 4 instructions: 740000000 cycles: 736751046 heartbeat IPC: 0.996177 cumulative IPC: 0.992079 (Simulation time: 5 hr 25 min 33 sec) 
Heartbeat CPU 6 instructions: 620000000 cycles: 738967540 heartbeat IPC: 0.920466 cumulative IPC: 0.815414 (Simulation time: 5 hr 26 min 24 sec) 
Heartbeat CPU 2 instructions: 590000001 cycles: 740655246 heartbeat IPC: 0.787912 cumulative IPC: 0.771714 (Simulation time: 5 hr 27 min 5 sec) 
Heartbeat CPU 3 instructions: 710000000 cycles: 741410942 heartbeat IPC: 0.953887 cumulative IPC: 0.944754 (Simulation time: 5 hr 27 min 23 sec) 
Heartbeat CPU 5 instructions: 750000000 cycles: 741583975 heartbeat IPC: 1.01788 cumulative IPC: 0.988214 (Simulation time: 5 hr 27 min 27 sec) 
Heartbeat CPU 1 instructions: 630000000 cycles: 743341758 heartbeat IPC: 0.734732 cumulative IPC: 0.818728 (Simulation time: 5 hr 28 min 9 sec) 
Heartbeat CPU 4 instructions: 750000001 cycles: 746808773 heartbeat IPC: 0.994261 cumulative IPC: 0.992108 (Simulation time: 5 hr 29 min 31 sec) 
Heartbeat CPU 7 instructions: 350000001 cycles: 748469528 heartbeat IPC: 0.483867 cumulative IPC: 0.435141 (Simulation time: 5 hr 30 min 6 sec) 
Heartbeat CPU 0 instructions: 110000000 cycles: 750619584 heartbeat IPC: 0.112809 cumulative IPC: 0.121892 (Simulation time: 5 hr 30 min 57 sec) 
Heartbeat CPU 5 instructions: 760000000 cycles: 752026723 heartbeat IPC: 0.957602 cumulative IPC: 0.987782 (Simulation time: 5 hr 31 min 31 sec) 
Heartbeat CPU 3 instructions: 720000000 cycles: 752212516 heartbeat IPC: 0.925791 cumulative IPC: 0.944478 (Simulation time: 5 hr 31 min 35 sec) 
Heartbeat CPU 6 instructions: 630000000 cycles: 752251643 heartbeat IPC: 0.752779 cumulative IPC: 0.81429 (Simulation time: 5 hr 31 min 36 sec) 
Heartbeat CPU 2 instructions: 600000000 cycles: 753821060 heartbeat IPC: 0.759543 cumulative IPC: 0.771498 (Simulation time: 5 hr 32 min 15 sec) 
Heartbeat CPU 1 instructions: 640000000 cycles: 756253379 heartbeat IPC: 0.774496 cumulative IPC: 0.81796 (Simulation time: 5 hr 33 min 18 sec) 
Heartbeat CPU 4 instructions: 760000000 cycles: 756919789 heartbeat IPC: 0.98902 cumulative IPC: 0.992067 (Simulation time: 5 hr 33 min 36 sec) 
Heartbeat CPU 6 instructions: 640000000 cycles: 761157737 heartbeat IPC: 1.12283 cumulative IPC: 0.817959 (Simulation time: 5 hr 35 min 22 sec) 
Heartbeat CPU 5 instructions: 770000002 cycles: 761834293 heartbeat IPC: 1.01962 cumulative IPC: 0.988198 (Simulation time: 5 hr 35 min 39 sec) 
Heartbeat CPU 3 instructions: 730000003 cycles: 762483361 heartbeat IPC: 0.97363 cumulative IPC: 0.944877 (Simulation time: 5 hr 35 min 54 sec) 
Heartbeat CPU 2 instructions: 610000003 cycles: 766345554 heartbeat IPC: 0.798436 cumulative IPC: 0.771945 (Simulation time: 5 hr 37 min 31 sec) 
Heartbeat CPU 4 instructions: 770000003 cycles: 766884820 heartbeat IPC: 1.00351 cumulative IPC: 0.992218 (Simulation time: 5 hr 37 min 45 sec) 
Heartbeat CPU 1 instructions: 650000001 cycles: 768597494 heartbeat IPC: 0.810103 cumulative IPC: 0.817832 (Simulation time: 5 hr 38 min 28 sec) 
Heartbeat CPU 6 instructions: 650000003 cycles: 770841325 heartbeat IPC: 1.03268 cumulative IPC: 0.8207 (Simulation time: 5 hr 39 min 22 sec) 
Heartbeat CPU 5 instructions: 780000000 cycles: 771731547 heartbeat IPC: 1.01038 cumulative IPC: 0.988487 (Simulation time: 5 hr 39 min 44 sec) 
Heartbeat CPU 7 instructions: 360000000 cycles: 771980214 heartbeat IPC: 0.425338 cumulative IPC: 0.434837 (Simulation time: 5 hr 39 min 51 sec) 
Heartbeat CPU 3 instructions: 740000000 cycles: 772838038 heartbeat IPC: 0.965747 cumulative IPC: 0.945161 (Simulation time: 5 hr 40 min 13 sec) 
Heartbeat CPU 4 instructions: 780000000 cycles: 776922822 heartbeat IPC: 0.996214 cumulative IPC: 0.99227 (Simulation time: 5 hr 41 min 53 sec) 
Heartbeat CPU 2 instructions: 620000000 cycles: 778790043 heartbeat IPC: 0.803568 cumulative IPC: 0.772459 (Simulation time: 5 hr 42 min 40 sec) 
Heartbeat CPU 5 instructions: 790000001 cycles: 781464333 heartbeat IPC: 1.02746 cumulative IPC: 0.98898 (Simulation time: 5 hr 43 min 43 sec) 
Heartbeat CPU 6 instructions: 660000000 cycles: 781769360 heartbeat IPC: 0.915077 cumulative IPC: 0.82204 (Simulation time: 5 hr 43 min 50 sec) 
Heartbeat CPU 1 instructions: 660000000 cycles: 781996601 heartbeat IPC: 0.746318 cumulative IPC: 0.816587 (Simulation time: 5 hr 43 min 55 sec) 
Heartbeat CPU 3 instructions: 750000001 cycles: 783232845 heartbeat IPC: 0.962019 cumulative IPC: 0.945388 (Simulation time: 5 hr 44 min 25 sec) 
Heartbeat CPU 4 instructions: 790000001 cycles: 786917275 heartbeat IPC: 1.00056 cumulative IPC: 0.992377 (Simulation time: 5 hr 45 min 49 sec) 
Heartbeat CPU 5 instructions: 800000000 cycles: 791540354 heartbeat IPC: 0.992455 cumulative IPC: 0.989025 (Simulation time: 5 hr 47 min 36 sec) 
Heartbeat CPU 2 instructions: 630000000 cycles: 791734375 heartbeat IPC: 0.772539 cumulative IPC: 0.77246 (Simulation time: 5 hr 47 min 40 sec) 
Heartbeat CPU 7 instructions: 370000001 cycles: 793500943 heartbeat IPC: 0.464668 cumulative IPC: 0.435659 (Simulation time: 5 hr 48 min 20 sec) 
Heartbeat CPU 3 instructions: 760000000 cycles: 793915833 heartbeat IPC: 0.936068 cumulative IPC: 0.945261 (Simulation time: 5 hr 48 min 31 sec) 
Heartbeat CPU 1 instructions: 670000001 cycles: 794819414 heartbeat IPC: 0.77986 cumulative IPC: 0.815985 (Simulation time: 5 hr 48 min 52 sec) 
Heartbeat CPU 4 instructions: 800000000 cycles: 796910758 heartbeat IPC: 1.00065 cumulative IPC: 0.992482 (Simulation time: 5 hr 49 min 42 sec) 
Heartbeat CPU 6 instructions: 670000000 cycles: 796939859 heartbeat IPC: 0.659174 cumulative IPC: 0.818892 (Simulation time: 5 hr 49 min 43 sec) 
Heartbeat CPU 5 instructions: 810000002 cycles: 801220818 heartbeat IPC: 1.03301 cumulative IPC: 0.989565 (Simulation time: 5 hr 51 min 28 sec) 
Heartbeat CPU 3 instructions: 770000002 cycles: 804162480 heartbeat IPC: 0.975929 cumulative IPC: 0.945658 (Simulation time: 5 hr 52 min 37 sec) 
Heartbeat CPU 2 instructions: 640000000 cycles: 804173684 heartbeat IPC: 0.803903 cumulative IPC: 0.772954 (Simulation time: 5 hr 52 min 37 sec) 
Heartbeat CPU 4 instructions: 810000001 cycles: 806962505 heartbeat IPC: 0.994852 cumulative IPC: 0.992512 (Simulation time: 5 hr 53 min 44 sec) 
Heartbeat CPU 1 instructions: 680000000 cycles: 807416492 heartbeat IPC: 0.793835 cumulative IPC: 0.815634 (Simulation time: 5 hr 53 min 55 sec) 
Heartbeat CPU 5 instructions: 820000000 cycles: 810837028 heartbeat IPC: 1.03991 cumulative IPC: 0.990171 (Simulation time: 5 hr 55 min 19 sec) 
Heartbeat CPU 6 instructions: 680000000 cycles: 811944319 heartbeat IPC: 0.666469 cumulative IPC: 0.816032 (Simulation time: 5 hr 55 min 47 sec) 
Heartbeat CPU 3 instructions: 780000000 cycles: 814355733 heartbeat IPC: 0.981041 cumulative IPC: 0.946107 (Simulation time: 5 hr 56 min 43 sec) 
Heartbeat CPU 2 instructions: 650000003 cycles: 816374732 heartbeat IPC: 0.819602 cumulative IPC: 0.773662 (Simulation time: 5 hr 57 min 32 sec) 
Heartbeat CPU 4 instructions: 820000000 cycles: 816876804 heartbeat IPC: 1.00864 cumulative IPC: 0.992711 (Simulation time: 5 hr 57 min 44 sec) 
Heartbeat CPU 7 instructions: 380000000 cycles: 817090226 heartbeat IPC: 0.423921 cumulative IPC: 0.435315 (Simulation time: 5 hr 57 min 49 sec) 
Heartbeat CPU 1 instructions: 690000003 cycles: 819949799 heartbeat IPC: 0.797874 cumulative IPC: 0.815359 (Simulation time: 5 hr 58 min 58 sec) 
Heartbeat CPU 5 instructions: 830000003 cycles: 820378357 heartbeat IPC: 1.04807 cumulative IPC: 0.990855 (Simulation time: 5 hr 59 min 9 sec) 
Heartbeat CPU 3 instructions: 790000000 cycles: 824552316 heartbeat IPC: 0.980721 cumulative IPC: 0.946542 (Simulation time: 6 hr 0 min 50 sec) 
Heartbeat CPU 4 instructions: 830000003 cycles: 826811989 heartbeat IPC: 1.00652 cumulative IPC: 0.99288 (Simulation time: 6 hr 1 min 45 sec) 
Heartbeat CPU 6 instructions: 690000000 cycles: 826952382 heartbeat IPC: 0.666309 cumulative IPC: 0.813273 (Simulation time: 6 hr 1 min 48 sec) 
Heartbeat CPU 2 instructions: 660000000 cycles: 828637119 heartbeat IPC: 0.815502 cumulative IPC: 0.77429 (Simulation time: 6 hr 2 min 29 sec) 
Heartbeat CPU 0 instructions: 120000000 cycles: 828822499 heartbeat IPC: 0.127872 cumulative IPC: 0.122465 (Simulation time: 6 hr 2 min 33 sec) 
Finished CPU 0 instructions: 100000001 cycles: 816562367 cumulative IPC: 0.122465 (Simulation time: 6 hr 2 min 33 sec) 

CPU 0 Branch Prediction Accuracy: 96.6507% MPKI: 9.87224

CPU 1 Branch Prediction Accuracy: 96.0351% MPKI: 3.10294

CPU 2 Branch Prediction Accuracy: 99.975% MPKI: 0.00432862

CPU 3 Branch Prediction Accuracy: 99.795% MPKI: 0.00292813

CPU 4 Branch Prediction Accuracy: 99.9819% MPKI: 0.00121056

CPU 5 Branch Prediction Accuracy: 99.1861% MPKI: 0.055557

CPU 6 Branch Prediction Accuracy: 98.3584% MPKI: 0.839699

CPU 7 Branch Prediction Accuracy: 99.9793% MPKI: 0.0523057

ChampSim completed all CPUs

Total Simulation Statistics (not including warmup)

CPU 0 cumulative IPC: 0.122465 instructions: 100000001 cycles: 816562367
L1D TOTAL     ACCESS:   23198945  HIT:    8029428  MISS:   15169517
L1D LOAD      ACCESS:   21180458  HIT:    6050460  MISS:   15129998
L1D RFO       ACCESS:    2018487  HIT:    1978968  MISS:      39519
L1D PREFETCH  ACCESS:          0  HIT:          0  MISS:          0
L1D WRITEBACK ACCESS:          0  HIT:          0  MISS:          0
L1I TOTAL     ACCESS:   21674868  HIT:   21674868  MISS:          0
L1I LOAD      ACCESS:   21674868  HIT:   21674868  MISS:          0
L1I RFO       ACCESS:          0  HIT:          0  MISS:          0
L1I PREFETCH  ACCESS:          0  HIT:          0  MISS:          0
L1I WRITEBACK ACCESS:          0  HIT:          0  MISS:          0
L2C TOTAL     ACCESS:   19906014  HIT:    5328854  MISS:   14577160
L2C LOAD      ACCESS:   15129970  HIT:    4957250  MISS:   10172720
L2C RFO       ACCESS:      39518  HIT:       1050  MISS:      38468
L2C PREFETCH  ACCESS:    4392056  HIT:      26135  MISS:    4365921
L2C WRITEBACK ACCESS:     344470  HIT:     344419  MISS:         51

L2C DA-AMPM prefetcher final stats
LLC TOTAL     ACCESS:   14908072  HIT:    7497346  MISS:    7410726
LLC LOAD      ACCESS:    9677035  HIT:    6933717  MISS:    2743318
LLC RFO       ACCESS:      38468  HIT:      34133  MISS:       4335
LLC PREFETCH  ACCESS:    4861604  HIT:     198539  MISS:    4663065
LLC WRITEBACK ACCESS:     330965  HIT:     330957  MISS:          8

CPU 1 cumulative IPC: 0.815217 instructions: 665675799 cycles: 816562368
L1D TOTAL     ACCESS:  116732193  HIT:  100791912  MISS:   15940281
L1D LOAD      ACCESS:   76883813  HIT:   66747188  MISS:   10136625
L1D RFO       ACCESS:   39848380  HIT:   34044724  MISS:    5803656
L1D PREFETCH  ACCESS:          0  HIT:          0  MISS:          0
L1D WRITEBACK ACCESS:          0  HIT:          0  MISS:          0
L1I TOTAL     ACCESS:  164557429  HIT:  164541507  MISS:      15922
L1I LOAD      ACCESS:  164557429  HIT:  164541507  MISS:      15922
L1I RFO       ACCESS:          0  HIT:          0  MISS:          0
L1I PREFETCH  ACCESS:          0  HIT:          0  MISS:          0
L1I WRITEBACK ACCESS:          0  HIT:          0  MISS:          0
L2C TOTAL     ACCESS:   27298119  HIT:   15830907  MISS:   11467212
L2C LOAD      ACCESS:   10152392  HIT:    6634386  MISS:    3518006
L2C RFO       ACCESS:    5801492  HIT:    1688371  MISS:    4113121
L2C PREFETCH  ACCESS:    4341518  HIT:     518187  MISS:    3823331
L2C WRITEBACK ACCESS:    7002717  HIT:    6989963  MISS:      12754

L2C DA-AMPM prefetcher final stats
LLC TOTAL     ACCESS:   16560488  HIT:   12080939  MISS:    4479549
LLC LOAD      ACCESS:    3064669  HIT:    2849073  MISS:     215596
LLC RFO       ACCESS:    4112781  HIT:    1883026  MISS:    2229755
LLC PREFETCH  ACCESS:    4276775  HIT:    2268794  MISS:    2007981
LLC WRITEBACK ACCESS:    5106263  HIT:    5080046  MISS:      26217

CPU 2 cumulative IPC: 0.774308 instructions: 632270597 cycles: 816562368
L1D TOTAL     ACCESS:  134274179  HIT:  125906855  MISS:    8367324
L1D LOAD      ACCESS:   89903973  HIT:   81544981  MISS:    8358992
L1D RFO       ACCESS:   44370206  HIT:   44361874  MISS:       8332
L1D PREFETCH  ACCESS:          0  HIT:          0  MISS:          0
L1D WRITEBACK ACCESS:          0  HIT:          0  MISS:          0
L1I TOTAL     ACCESS:  132398748  HIT:  132398748  MISS:          0
L1I LOAD      ACCESS:  132398748  HIT:  132398748  MISS:          0
L1I RFO       ACCESS:          0  HIT:          0  MISS:          0
L1I PREFETCH  ACCESS:          0  HIT:          0  MISS:          0
L1I WRITEBACK ACCESS:          0  HIT:          0  MISS:          0
L2C TOTAL     ACCESS:   18690712  HIT:   10542093  MISS:    8148619
L2C LOAD      ACCESS:    8358992  HIT:    4898456  MISS:    3460536
L2C RFO       ACCESS:       8332  HIT:       2238  MISS:       6094
L2C PREFETCH  ACCESS:    4767514  HIT:      85525  MISS:    4681989
L2C WRITEBACK ACCESS:    5555874  HIT:    5555874  MISS:          0

[...]

CPU 5 cumulative IPC: 0.991428 instructions: 809562791 cycles: 816562368
L1D TOTAL     ACCESS:  229198184  HIT:  215564997  MISS:   13633187
L1D LOAD      ACCESS:  189390233  HIT:  175757046  MISS:   13633187
L1D RFO       ACCESS:   39807951  HIT:   39807951  MISS:          0
L1D PREFETCH  ACCESS:          0  HIT:          0  MISS:          0
L1D WRITEBACK ACCESS:          0  HIT:          0  MISS:          0
L1I TOTAL     ACCESS:  172035926  HIT:  172035926  MISS:          0
L1I LOAD      ACCESS:  172035926  HIT:  172035926  MISS:          0
L1I RFO       ACCESS:          0  HIT:          0  MISS:          0
L1I PREFETCH  ACCESS:          0  HIT:          0  MISS:          0
L1I WRITEBACK ACCESS:          0  HIT:          0  MISS:          0
L2C TOTAL     ACCESS:   30847580  HIT:   16788735  MISS:   14058845
L2C LOAD      ACCESS:   13633187  HIT:   12562200  MISS:    1070987
L2C RFO       ACCESS:          0  HIT:          0  MISS:          0
L2C PREFETCH  ACCESS:   12987408  HIT:       2008  MISS:   12985400
L2C WRITEBACK ACCESS:    4226985  HIT:    4224527  MISS:       2458

L2C DA-AMPM prefetcher final stats
LLC TOTAL     ACCESS:   18262310  HIT:    4207557  MISS:   14054753
LLC LOAD      ACCESS:     812745  HIT:       2319  MISS:     810426
LLC RFO       ACCESS:          0  HIT:          0  MISS:          0
LLC PREFETCH  ACCESS:   13243642  HIT:          0  MISS:   13243642
LLC WRITEBACK ACCESS:    4205923  HIT:    4205238  MISS:        685

CPU 6 cumulative IPC: 0.81294 instructions: 663816504 cycles: 816562368
L1D TOTAL     ACCESS:  171438417  HIT:  158905735  MISS:   12532682
L1D LOAD      ACCESS:  146790699  HIT:  136383944  MISS:   10406755
L1D RFO       ACCESS:   24647718  HIT:   22521791  MISS:    2125927
L1D PREFETCH  ACCESS:          0  HIT:          0  MISS:          0
L1D WRITEBACK ACCESS:          0  HIT:          0  MISS:          0
L1I TOTAL     ACCESS:  179021788  HIT:  179001762  MISS:      20026
L1I LOAD      ACCESS:  179021788  HIT:  179001762  MISS:      20026
L1I RFO       ACCESS:          0  HIT:          0  MISS:          0
L1I PREFETCH  ACCESS:          0  HIT:          0  MISS:          0
L1I WRITEBACK ACCESS:          0  HIT:          0  MISS:          0
L2C TOTAL     ACCESS:   23338412  HIT:   13641519  MISS:    9696893
L2C LOAD      ACCESS:   10426419  HIT:    8649390  MISS:    1777029
L2C RFO       ACCESS:    2125911  HIT:     513660  MISS:    1612251
L2C PREFETCH  ACCESS:    6348818  HIT:      47579  MISS:    6301239
L2C WRITEBACK ACCESS:    4437264  HIT:    4430890  MISS:       6374

L2C DA-AMPM prefetcher final stats
LLC TOTAL     ACCESS:   13275665  HIT:    5261222  MISS:    8014443
LLC LOAD      ACCESS:    1069269  HIT:     393283  MISS:     675986
LLC RFO       ACCESS:    1602910  HIT:     247249  MISS:    1355661
LLC PREFETCH  ACCESS:    7018306  HIT:    1053698  MISS:    5964608
LLC WRITEBACK ACCESS:    3585180  HIT:    3566992  MISS:      18188

CPU 7 cumulative IPC: 0.435287 instructions: 355438995 cycles: 816562368
L1D TOTAL     ACCESS:   75562065  HIT:   66636344  MISS:    8925721
L1D LOAD      ACCESS:   69272340  HIT:   60346619  MISS:    8925721
L1D RFO       ACCESS:    6289725  HIT:    6289725  MISS:          0
L1D PREFETCH  ACCESS:          0  HIT:          0  MISS:          0
L1D WRITEBACK ACCESS:          0  HIT:          0  MISS:          0
L1I TOTAL     ACCESS:  126660834  HIT:  126660834  MISS:          0
L1I LOAD      ACCESS:  126660834  HIT:  126660834  MISS:          0
L1I RFO       ACCESS:          0  HIT:          0  MISS:          0
L1I PREFETCH  ACCESS:          0  HIT:          0  MISS:          0
L1I WRITEBACK ACCESS:          0  HIT:          0  MISS:          0
L2C TOTAL     ACCESS:   16056957  HIT:    6497487  MISS:    9559470
L2C LOAD      ACCESS:    8925720  HIT:    6461524  MISS:    2464196
L2C RFO       ACCESS:          0  HIT:          0  MISS:          0
L2C PREFETCH  ACCESS:    7130992  HIT:      35718  MISS:    7095274
L2C WRITEBACK ACCESS:        245  HIT:        245  MISS:          0

L2C DA-AMPM prefetcher final stats
LLC TOTAL     ACCESS:    9559697  HIT:    2384756  MISS:    7174941
LLC LOAD      ACCESS:    1395162  HIT:     524583  MISS:     870579
LLC RFO       ACCESS:          0  HIT:          0  MISS:          0
LLC PREFETCH  ACCESS:    8164306  HIT:    1859944  MISS:    6304362
LLC WRITEBACK ACCESS:        229  HIT:        229  MISS:          0

Region of Interest Statistics

CPU 0 cumulative IPC: 0.122465 instructions: 100000001 cycles: 816562367
L1D TOTAL     ACCESS:   23198945  HIT:    8029428  MISS:   15169517
L1D LOAD      ACCESS:   21180458  HIT:    6050460  MISS:   15129998
L1D RFO       ACCESS:    2018487  HIT:    1978968  MISS:      39519
L1D PREFETCH  ACCESS:          0  HIT:          0  MISS:          0
L1D WRITEBACK ACCESS:          0  HIT:          0  MISS:          0
L1D PREFETCH  REQUESTED:          0  ISSUED:          0  USEFUL:          0  USELESS:          0
L1I TOTAL     ACCESS:   21674868  HIT:   21674868  MISS:          0
L1I LOAD      ACCESS:   21674868  HIT:   21674868  MISS:          0
L1I RFO       ACCESS:          0  HIT:          0  MISS:          0
L1I PREFETCH  ACCESS:          0  HIT:          0  MISS:          0
L1I WRITEBACK ACCESS:          0  HIT:          0  MISS:          0
L1I PREFETCH  REQUESTED:          0  ISSUED:          0  USEFUL:          0  USELESS:          0
L2C TOTAL     ACCESS:   19906014  HIT:    5328854  MISS:   14577160
L2C LOAD      ACCESS:   15129970  HIT:    4957250  MISS:   10172720
L2C RFO       ACCESS:      39518  HIT:       1050  MISS:      38468
L2C PREFETCH  ACCESS:    4392056  HIT:      26135  MISS:    4365921
L2C WRITEBACK ACCESS:     344470  HIT:     344419  MISS:         51
L2C PREFETCH  REQUESTED:    6385059  ISSUED:    6385059  USEFUL:    5071330  USELESS:     287793
LLC TOTAL     ACCESS:   14908072  HIT:    7497346  MISS:    7410726
LLC LOAD      ACCESS:    9677035  HIT:    6933717  MISS:    2743318
LLC RFO       ACCESS:      38468  HIT:      34133  MISS:       4335
LLC PREFETCH  ACCESS:    4861604  HIT:     198539  MISS:    4663065
LLC WRITEBACK ACCESS:     330965  HIT:     330957  MISS:          8
LLC PREFETCH  REQUESTED:          0  ISSUED:          0  USEFUL:    5852441  USELESS:   40512888
Major fault: 0 Minor fault: 102095

CPU 1 cumulative IPC: 0.917973 instructions: 100000001 cycles: 108935631
L1D TOTAL     ACCESS:   14509330  HIT:   12687411  MISS:    1821919
L1D LOAD      ACCESS:   10191987  HIT:    8924471  MISS:    1267516
L1D RFO       ACCESS:    4317343  HIT:    3762940  MISS:     554403
L1D PREFETCH  ACCESS:          0  HIT:          0  MISS:          0
L1D WRITEBACK ACCESS:          0  HIT:          0  MISS:          0
L1D PREFETCH  REQUESTED:          0  ISSUED:          0  USEFUL:          0  USELESS:          0
L1I TOTAL     ACCESS:   21219555  HIT:   21217281  MISS:       2274
L1I LOAD      ACCESS:   21219555  HIT:   21217281  MISS:       2274
L1I RFO       ACCESS:          0  HIT:          0  MISS:          0
L1I PREFETCH  ACCESS:          0  HIT:          0  MISS:          0
L1I WRITEBACK ACCESS:          0  HIT:          0  MISS:          0
L1I PREFETCH  REQUESTED:          0  ISSUED:          0  USEFUL:          0  USELESS:          0
L2C TOTAL     ACCESS:    3200703  HIT:    1565526  MISS:    1635177
L2C LOAD      ACCESS:    1269790  HIT:     695221  MISS:     574569
L2C RFO       ACCESS:     554403  HIT:      14169  MISS:     540234
L2C PREFETCH  ACCESS:     596248  HIT:      78190  MISS:     518058
L2C WRITEBACK ACCESS:     780262  HIT:     777946  MISS:       2316
L2C PREFETCH  REQUESTED:    5178245  ISSUED:    5147427  USEFUL:    3888636  USELESS:     128245
LLC TOTAL     ACCESS:    2364829  HIT:    1766874  MISS:     597955
LLC LOAD      ACCESS:     509622  HIT:     483454  MISS:      26168
LLC RFO       ACCESS:     540149  HIT:     204412  MISS:     335737
LLC PREFETCH  ACCESS:     583083  HIT:     347100  MISS:     235983
LLC WRITEBACK ACCESS:     731975  HIT:     731908  MISS:         67
LLC PREFETCH  REQUESTED:          0  ISSUED:          0  USEFUL:    5852441  USELESS:   40512888
Major fault: 0 Minor fault: 16783

CPU 2 cumulative IPC: 0.751546 instructions: 100000001 cycles: 133059105
L1D TOTAL     ACCESS:   21231995  HIT:   19908620  MISS:    1323375
L1D LOAD      ACCESS:   14214411  HIT:   12892354  MISS:    1322057
L1D RFO       ACCESS:    7017584  HIT:    7016266  MISS:       1318
L1D PREFETCH  ACCESS:          0  HIT:          0  MISS:          0
L1D WRITEBACK ACCESS:          0  HIT:          0  MISS:          0
L1D PREFETCH  REQUESTED:          0  ISSUED:          0  USEFUL:          0  USELESS:          0
L1I TOTAL     ACCESS:   20933276  HIT:   20933276  MISS:          0
L1I LOAD      ACCESS:   20933276  HIT:   20933276  MISS:          0
L1I RFO       ACCESS:          0  HIT:          0  MISS:          0
L1I PREFETCH  ACCESS:          0  HIT:          0  MISS:          0
L1I WRITEBACK ACCESS:          0  HIT:          0  MISS:          0
L1I PREFETCH  REQUESTED:          0  ISSUED:          0  USEFUL:          0  USELESS:          0
L2C TOTAL     ACCESS:    2951235  HIT:    1661755  MISS:    1289480
L2C LOAD      ACCESS:    1322057  HIT:     769153  MISS:     552904
L2C RFO       ACCESS:       1318  HIT:        348  MISS:        970
L2C PREFETCH  ACCESS:     749133  HIT:      13527  MISS:     735606
L2C WRITEBACK ACCESS:     878727  HIT:     878727  MISS:          0
L2C PREFETCH  REQUESTED:    5515048  ISSUED:    5515048  USEFUL:    4900925  USELESS:       8254
LLC TOTAL     ACCESS:    2167478  HIT:    1289809  MISS:     877669
LLC LOAD      ACCESS:     480822  HIT:     410868  MISS:      69954
LLC RFO       ACCESS:        970  HIT:        970  MISS:          0
LLC PREFETCH  ACCESS:     807688  HIT:          0  MISS:     807688
LLC WRITEBACK ACCESS:     877998  HIT:     877971  MISS:         27
LLC PREFETCH  REQUESTED:          0  ISSUED:          0  USEFUL:    5852441  USELESS:   40512888
Major fault: 0 Minor fault: 90638

CPU 3 cumulative IPC: 0.938315 instructions: 100000003 cycles: 106573977
L1D TOTAL     ACCESS:   32434315  HIT:   21977483  MISS:   10456832
L1D LOAD      ACCESS:   22153846  HIT:   12462977  MISS:    9690869
L1D RFO       ACCESS:   10280469  HIT:    9514506  MISS:     765963
L1D PREFETCH  ACCESS:          0  HIT:          0  MISS:          0
L1D WRITEBACK ACCESS:          0  HIT:          0  MISS:          0
L1D PREFETCH  REQUESTED:          0  ISSUED:          0  USEFUL:          0  USELESS:          0
L1I TOTAL     ACCESS:   24848549  HIT:   24048375  MISS:     800174
L1I LOAD      ACCESS:   24848549  HIT:   24048375  MISS:     800174
L1I RFO       ACCESS:          0  HIT:          0  MISS:          0
L1I PREFETCH  ACCESS:          0  HIT:          0  MISS:          0
L1I WRITEBACK ACCESS:          0  HIT:          0  MISS:          0
L1I PREFETCH  REQUESTED:          0  ISSUED:          0  USEFUL:          0  USELESS:          0
L2C TOTAL     ACCESS:   12753915  HIT:    9896408  MISS:    2857507
L2C LOAD      ACCESS:   10456661  HIT:    8642578  MISS:    1814083
L2C RFO       ACCESS:     765380  HIT:     377418  MISS:     387962
L2C PREFETCH  ACCESS:     668806  HIT:      14932  MISS:     653874
L2C WRITEBACK ACCESS:     863068  HIT:     861480  MISS:       1588
L2C PREFETCH  REQUESTED:    9992476  ISSUED:    6677000  USEFUL:    2543112  USELESS:    3967007
LLC TOTAL     ACCESS:    3218355  HIT:    2601743  MISS:     616612
LLC LOAD      ACCESS:    1813886  HIT:    1743757  MISS:      70129
LLC RFO       ACCESS:     341453  HIT:     323345  MISS:      18108
LLC PREFETCH  ACCESS:     654003  HIT:     126021  MISS:     527982
LLC WRITEBACK ACCESS:     409013  HIT:     408620  MISS:        393
LLC PREFETCH  REQUESTED:          0  ISSUED:          0  USEFUL:    5852441  USELESS:   40512888
Major fault: 0 Minor fault: 33776

CPU 4 cumulative IPC: 0.98435 instructions: 100000000 cycles: 101589918
L1D TOTAL     ACCESS:   39824705  HIT:   31873259  MISS:    7951446
L1D LOAD      ACCESS:   31938011  HIT:   24645279  MISS:    7292732
L1D RFO       ACCESS:    7886694  HIT:    7227980  MISS:     658714
L1D PREFETCH  ACCESS:          0  HIT:          0  MISS:          0
L1D WRITEBACK ACCESS:          0  HIT:          0  MISS:          0
L1D PREFETCH  REQUESTED:          0  ISSUED:          0  USEFUL:          0  USELESS:          0
L1I TOTAL     ACCESS:   23389004  HIT:   20505374  MISS:    2883630
L1I LOAD      ACCESS:   23389004  HIT:   20505374  MISS:    2883630
L1I RFO       ACCESS:          0  HIT:          0  MISS:          0
L1I PREFETCH  ACCESS:          0  HIT:          0  MISS:          0
L1I WRITEBACK ACCESS:          0  HIT:          0  MISS:          0
L1I PREFETCH  REQUESTED:          0  ISSUED:          0  USEFUL:          0  USELESS:          0
L2C TOTAL     ACCESS:   11763826  HIT:   10682380  MISS:    1081446
L2C LOAD      ACCESS:   10175878  HIT:    9388528  MISS:     787350
L2C RFO       ACCESS:     658233  HIT:     560840  MISS:      97393
L2C PREFETCH  ACCESS:     196156  HIT:          9  MISS:     196147
L2C WRITEBACK ACCESS:     733559  HIT:     733003  MISS:        556
L2C PREFETCH  REQUESTED:    1667328  ISSUED:    1628328  USEFUL:     680671  USELESS:     946742
LLC TOTAL     ACCESS:    1171673  HIT:     901725  MISS:     269948
LLC LOAD      ACCESS:     787329  HIT:     772584  MISS:      14745
LLC RFO       ACCESS:      89567  HIT:      31004  MISS:      58563
LLC PREFETCH  ACCESS:     196161  HIT:         25  MISS:     196136
LLC WRITEBACK ACCESS:      98616  HIT:      98112  MISS:        504
LLC PREFETCH  REQUESTED:          0  ISSUED:          0  USEFUL:    5852441  USELESS:   40512888
Major fault: 0 Minor fault: 19506

CPU 5 cumulative IPC: 0.962693 instructions: 100000002 cycles: 103875296
L1D TOTAL     ACCESS:   28309253  HIT:   26623283  MISS:    1685970
L1D LOAD      ACCESS:   23392065  HIT:   21706095  MISS:    1685970
L1D RFO       ACCESS:    4917188  HIT:    4917188  MISS:          0
L1D PREFETCH  ACCESS:          0  HIT:          0  MISS:          0
L1D WRITEBACK ACCESS:          0  HIT:          0  MISS:          0
L1D PREFETCH  REQUESTED:          0  ISSUED:          0  USEFUL:          0  USELESS:          0
L1I TOTAL     ACCESS:   21260422  HIT:   21260422  MISS:          0
L1I LOAD      ACCESS:   21260422  HIT:   21260422  MISS:          0
L1I RFO       ACCESS:          0  HIT:          0  MISS:          0
L1I PREFETCH  ACCESS:          0  HIT:          0  MISS:          0
L1I WRITEBACK ACCESS:          0  HIT:          0  MISS:          0
L1I PREFETCH  REQUESTED:          0  ISSUED:          0  USEFUL:          0  USELESS:          0
L2C TOTAL     ACCESS:    3809537  HIT:    2072944  MISS:    1736593
L2C LOAD      ACCESS:    1685970  HIT:    1550646  MISS:     135324
L2C RFO       ACCESS:          0  HIT:          0  MISS:          0
L2C PREFETCH  ACCESS:    1601331  HIT:        364  MISS:    1600967
L2C WRITEBACK ACCESS:     522236  HIT:     521934  MISS:        302
L2C PREFETCH  REQUESTED:   13817384  ISSUED:   13728164  USEFUL:   12637195  USELESS:     827351
LLC TOTAL     ACCESS:    2255880  HIT:     519810  MISS:    1736070
LLC LOAD      ACCESS:     100866  HIT:        304  MISS:     100562
LLC RFO       ACCESS:          0  HIT:          0  MISS:          0
LLC PREFETCH  ACCESS:    1635425  HIT:          0  MISS:    1635425
LLC WRITEBACK ACCESS:     519589  HIT:     519506  MISS:         83
LLC PREFETCH  REQUESTED:          0  ISSUED:          0  USEFUL:    5852441  USELESS:   40512888
Major fault: 0 Minor fault: 180964

CPU 6 cumulative IPC: 0.738483 instructions: 100000003 cycles: 135412677
L1D TOTAL     ACCESS:   26124533  HIT:   23301645  MISS:    2822888
L1D LOAD      ACCESS:   21239011  HIT:   18892690  MISS:    2346321
L1D RFO       ACCESS:    4885522  HIT:    4408955  MISS:     476567
L1D PREFETCH  ACCESS:          0  HIT:          0  MISS:          0
L1D WRITEBACK ACCESS:          0  HIT:          0  MISS:          0
L1D PREFETCH  REQUESTED:          0  ISSUED:          0  USEFUL:          0  USELESS:          0
L1I TOTAL     ACCESS:   23631340  HIT:   23626897  MISS:       4443
L1I LOAD      ACCESS:   23631340  HIT:   23626897  MISS:       4443
L1I RFO       ACCESS:          0  HIT:          0  MISS:          0
L1I PREFETCH  ACCESS:          0  HIT:          0  MISS:          0
L1I WRITEBACK ACCESS:          0  HIT:          0  MISS:          0
L1I PREFETCH  REQUESTED:          0  ISSUED:          0  USEFUL:          0  USELESS:          0
L2C TOTAL     ACCESS:    5292431  HIT:    3117479  MISS:    2174952
L2C LOAD      ACCESS:    2350666  HIT:    1899760  MISS:     450906
L2C RFO       ACCESS:     476567  HIT:     148295  MISS:     328272
L2C PREFETCH  ACCESS:    1409481  HIT:      14978  MISS:    1394503
L2C WRITEBACK ACCESS:    1055717  HIT:    1054446  MISS:       1271
L2C PREFETCH  REQUESTED:    8110022  ISSUED:    7552914  USEFUL:    6240209  USELESS:     396582
LLC TOTAL     ACCESS:    2983579  HIT:    1116485  MISS:    1867094
LLC LOAD      ACCESS:     260886  HIT:      96930  MISS:     163956
LLC RFO       ACCESS:     326310  HIT:      27552  MISS:     298758
LLC PREFETCH  ACCESS:    1586473  HIT:     184475  MISS:    1401998
LLC WRITEBACK ACCESS:     809910  HIT:     807528  MISS:       2382
LLC PREFETCH  REQUESTED:          0  ISSUED:          0  USEFUL:    5852441  USELESS:   40512888
Major fault: 0 Minor fault: 11454

CPU 7 cumulative IPC: 0.427083 instructions: 100000001 cycles: 234146261
L1D TOTAL     ACCESS:   21174548  HIT:   18664253  MISS:    2510295
L1D LOAD      ACCESS:   19403379  HIT:   16893084  MISS:    2510295
L1D RFO       ACCESS:    1771169  HIT:    1771169  MISS:          0
L1D PREFETCH  ACCESS:          0  HIT:          0  MISS:          0
L1D WRITEBACK ACCESS:          0  HIT:          0  MISS:          0
L1D PREFETCH  REQUESTED:          0  ISSUED:          0  USEFUL:          0  USELESS:          0
L1I TOTAL     ACCESS:   35665038  HIT:   35665038  MISS:          0
L1I LOAD      ACCESS:   35665038  HIT:   35665038  MISS:          0
L1I RFO       ACCESS:          0  HIT:          0  MISS:          0
L1I PREFETCH  ACCESS:          0  HIT:          0  MISS:          0
L1I WRITEBACK ACCESS:          0  HIT:          0  MISS:          0
L1I PREFETCH  REQUESTED:          0  ISSUED:          0  USEFUL:          0  USELESS:          0
L2C TOTAL     ACCESS:    4503481  HIT:    1817588  MISS:    2685893
L2C LOAD      ACCESS:    2510294  HIT:    1807425  MISS:     702869
L2C RFO       ACCESS:          0  HIT:          0  MISS:          0
L2C PREFETCH  ACCESS:    1993117  HIT:      10093  MISS:    1983024
L2C WRITEBACK ACCESS:         70  HIT:         70  MISS:          0
L2C PREFETCH  REQUESTED:    9320556  ISSUED:    9320556  USEFUL:    7025899  USELESS:     719455
LLC TOTAL     ACCESS:    2685955  HIT:     612561  MISS:    2073394
LLC LOAD      ACCESS:     395155  HIT:     143967  MISS:     251188
LLC RFO       ACCESS:          0  HIT:          0  MISS:          0
LLC PREFETCH  ACCESS:    2290737  HIT:     468531  MISS:    1822206
LLC WRITEBACK ACCESS:         63  HIT:         63  MISS:          0
LLC PREFETCH  REQUESTED:          0  ISSUED:          0  USEFUL:    5852441  USELESS:   40512888
Major fault: 0 Minor fault: 1581

L2C DA-AMPM prefetcher final stats

L2C DA-AMPM prefetcher final stats

L2C DA-AMPM prefetcher final stats

L2C DA-AMPM prefetcher final stats

L2C DA-AMPM prefetcher final stats

L2C DA-AMPM prefetcher final stats

L2C DA-AMPM prefetcher final stats

L2C DA-AMPM prefetcher final stats

DRAM Statistics
 CHANNEL 0
 RQ ROW_BUFFER_HIT:   13182931  ROW_BUFFER_MISS:   14105725
 DBUS_CONGESTED:   59143966
 WQ ROW_BUFFER_HIT:     826930  ROW_BUFFER_MISS:    7540876  FULL:          0

 CHANNEL 1
 RQ ROW_BUFFER_HIT:   13192340  ROW_BUFFER_MISS:   14118172
 DBUS_CONGESTED:   59143966
 WQ ROW_BUFFER_HIT:     827849  ROW_BUFFER_MISS:    7542283  FULL:          0

 AVG_CONGESTED_CYCLE: 14
