
*** ChampSim Multicore Out-of-Order Simulator ***

Warmup Instructions: 20000000
Simulation Instructions: 100000000
Number of CPUs: 8
LLC sets: 16384
LLC ways: 16
Off-chip DRAM Size: 8192 MB Channels: 2 Width: 64-bit Data Rate: 1600 MT/s

CPU 0 runs /scratch/user/djimenez/champsim-traces/speccpu2017/xz/623.xalancbmk_s/623.xalancbmk_s-700B.champsimtrace.xz
CPU 1 runs /scratch/user/djimenez/champsim-traces/speccpu2017/xz/605.mcf_s/605.mcf_s-484B.champsimtrace.xz
CPU 2 runs /scratch/user/djimenez/champsim-traces/speccpu2017/xz/602.gcc_s/602.gcc_s-2226B.champsimtrace.xz
CPU 3 runs /scratch/user/djimenez/champsim-traces/speccpu2017/xz/627.cam4_s/627.cam4_s-490B.champsimtrace.xz
CPU 4 runs /scratch/user/djimenez/champsim-traces/speccpu2017/xz/621.wrf_s/621.wrf_s-8065B.champsimtrace.xz
CPU 5 runs /scratch/user/djimenez/champsim-traces/speccpu2017/xz/605.mcf_s/605.mcf_s-994B.champsimtrace.xz
CPU 6 runs /scratch/user/djimenez/champsim-traces/speccpu2017/xz/603.bwaves_s/603.bwaves_s-1740B.champsimtrace.xz
CPU 7 runs /scratch/user/djimenez/champsim-traces/speccpu2017/xz/605.mcf_s/605.mcf_s-1536B.champsimtrace.xz
L2C DA-AMPM prefetcher
L2C DA-AMPM prefetcher
L2C DA-AMPM prefetcher
L2C DA-AMPM prefetcher
L2C DA-AMPM prefetcher
L2C DA-AMPM prefetcher
L2C DA-AMPM prefetcher
L2C DA-AMPM prefetcher
Heartbeat CPU 7 instructions: 10000002 cycles: 3673692 heartbeat IPC: 2.72206 cumulative IPC: 2.72206 (Simulation time: 0 hr 3 min 26 sec) 
Heartbeat CPU 3 instructions: 10000002 cycles: 3989719 heartbeat IPC: 2.50644 cumulative IPC: 2.50644 (Simulation time: 0 hr 3 min 44 sec) 
Heartbeat CPU 4 instructions: 10000003 cycles: 4756954 heartbeat IPC: 2.10219 cumulative IPC: 2.10219 (Simulation time: 0 hr 4 min 27 sec) 
Heartbeat CPU 2 instructions: 10000000 cycles: 4878561 heartbeat IPC: 2.04978 cumulative IPC: 2.04978 (Simulation time: 0 hr 4 min 34 sec) 
Heartbeat CPU 6 instructions: 10000001 cycles: 5274048 heartbeat IPC: 1.89608 cumulative IPC: 1.89608 (Simulation time: 0 hr 4 min 56 sec) 
Heartbeat CPU 5 instructions: 10000000 cycles: 5609734 heartbeat IPC: 1.78262 cumulative IPC: 1.78262 (Simulation time: 0 hr 5 min 15 sec) 
Heartbeat CPU 0 instructions: 10000001 cycles: 5968515 heartbeat IPC: 1.67546 cumulative IPC: 1.67546 (Simulation time: 0 hr 5 min 35 sec) 
Heartbeat CPU 1 instructions: 10000000 cycles: 6861823 heartbeat IPC: 1.45734 cumulative IPC: 1.45734 (Simulation time: 0 hr 6 min 25 sec) 
Heartbeat CPU 7 instructions: 20000000 cycles: 7337143 heartbeat IPC: 2.72967 cumulative IPC: 2.72586 (Simulation time: 0 hr 6 min 53 sec) 
Heartbeat CPU 3 instructions: 20000000 cycles: 7759763 heartbeat IPC: 2.65249 cumulative IPC: 2.5774 (Simulation time: 0 hr 7 min 16 sec) 
Heartbeat CPU 4 instructions: 20000000 cycles: 9267817 heartbeat IPC: 2.21687 cumulative IPC: 2.15801 (Simulation time: 0 hr 8 min 42 sec) 
Heartbeat CPU 2 instructions: 20000000 cycles: 9749252 heartbeat IPC: 2.0531 cumulative IPC: 2.05144 (Simulation time: 0 hr 9 min 8 sec) 
Heartbeat CPU 6 instructions: 20000000 cycles: 10550356 heartbeat IPC: 1.89526 cumulative IPC: 1.89567 (Simulation time: 0 hr 9 min 55 sec) 
Heartbeat CPU 0 instructions: 20000000 cycles: 10846849 heartbeat IPC: 2.04988 cumulative IPC: 1.84385 (Simulation time: 0 hr 10 min 12 sec) 
Heartbeat CPU 7 instructions: 30000002 cycles: 11017319 heartbeat IPC: 2.71726 cumulative IPC: 0.907662 (Simulation time: 0 hr 10 min 22 sec) 
Heartbeat CPU 5 instructions: 20000000 cycles: 11273278 heartbeat IPC: 1.76568 cumulative IPC: 1.77411 (Simulation time: 0 hr 10 min 37 sec) 
Heartbeat CPU 3 instructions: 30000000 cycles: 11724190 heartbeat IPC: 2.52243 cumulative IPC: 0.852937 (Simulation time: 0 hr 11 min 3 sec) 
Heartbeat CPU 1 instructions: 20000000 cycles: 13632380 heartbeat IPC: 1.47698 cumulative IPC: 1.4671 (Simulation time: 0 hr 12 min 54 sec) 

Warmup complete CPU 0 instructions: 24937418 cycles: 13632381 (Simulation time: 0 hr 12 min 54 sec) 
Warmup complete CPU 1 instructions: 20000001 cycles: 13632381 (Simulation time: 0 hr 12 min 54 sec) 
Warmup complete CPU 2 instructions: 27973024 cycles: 13632380 (Simulation time: 0 hr 12 min 54 sec) 
Warmup complete CPU 3 instructions: 35103051 cycles: 13632380 (Simulation time: 0 hr 12 min 54 sec) 
Warmup complete CPU 4 instructions: 29906092 cycles: 13632380 (Simulation time: 0 hr 12 min 54 sec) 
Warmup complete CPU 5 instructions: 24215575 cycles: 13632380 (Simulation time: 0 hr 12 min 54 sec) 
Warmup complete CPU 6 instructions: 25844539 cycles: 13632380 (Simulation time: 0 hr 12 min 54 sec) 
Warmup complete CPU 7 instructions: 37092926 cycles: 13632380 (Simulation time: 0 hr 12 min 54 sec) 

Heartbeat CPU 4 instructions: 30000000 cycles: 13757339 heartbeat IPC: 2.22741 cumulative IPC: 0.751511 (Simulation time: 0 hr 12 min 57 sec) 
Heartbeat CPU 6 instructions: 30000003 cycles: 17515912 heartbeat IPC: 1.43564 cumulative IPC: 1.07002 (Simulation time: 0 hr 14 min 10 sec) 
Heartbeat CPU 3 instructions: 40000000 cycles: 18851166 heartbeat IPC: 1.40312 cumulative IPC: 0.938331 (Simulation time: 0 hr 14 min 36 sec) 
Heartbeat CPU 4 instructions: 40000000 cycles: 22678577 heartbeat IPC: 1.12092 cumulative IPC: 1.11582 (Simulation time: 0 hr 15 min 47 sec) 
Heartbeat CPU 2 instructions: 30000000 cycles: 26295538 heartbeat IPC: 0.604365 cumulative IPC: 0.160069 (Simulation time: 0 hr 16 min 55 sec) 
Heartbeat CPU 6 instructions: 40000000 cycles: 26906068 heartbeat IPC: 1.06494 cumulative IPC: 1.06643 (Simulation time: 0 hr 17 min 7 sec) 
Heartbeat CPU 3 instructions: 50000000 cycles: 28881440 heartbeat IPC: 0.996982 cumulative IPC: 0.976909 (Simulation time: 0 hr 17 min 49 sec) 
Heartbeat CPU 0 instructions: 30000001 cycles: 30086304 heartbeat IPC: 0.519765 cumulative IPC: 0.307682 (Simulation time: 0 hr 18 min 15 sec) 
Heartbeat CPU 4 instructions: 50000003 cycles: 31396796 heartbeat IPC: 1.14702 cumulative IPC: 1.13113 (Simulation time: 0 hr 18 min 41 sec) 
Heartbeat CPU 7 instructions: 40000000 cycles: 32224803 heartbeat IPC: 0.471532 cumulative IPC: 0.156358 (Simulation time: 0 hr 18 min 58 sec) 
Heartbeat CPU 6 instructions: 50000003 cycles: 35484964 heartbeat IPC: 1.16565 cumulative IPC: 1.10538 (Simulation time: 0 hr 20 min 8 sec) 
Heartbeat CPU 3 instructions: 60000000 cycles: 39337691 heartbeat IPC: 0.956366 cumulative IPC: 0.968553 (Simulation time: 0 hr 21 min 31 sec) 
Heartbeat CPU 4 instructions: 60000000 cycles: 39996741 heartbeat IPC: 1.1628 cumulative IPC: 1.14146 (Simulation time: 0 hr 21 min 46 sec) 
Heartbeat CPU 1 instructions: 30000000 cycles: 41422167 heartbeat IPC: 0.359844 cumulative IPC: 0.359844 (Simulation time: 0 hr 22 min 18 sec) 
Heartbeat CPU 6 instructions: 60000000 cycles: 44296321 heartbeat IPC: 1.1349 cumulative IPC: 1.11386 (Simulation time: 0 hr 23 min 21 sec) 
Heartbeat CPU 5 instructions: 30000000 cycles: 44987156 heartbeat IPC: 0.296614 cumulative IPC: 0.184483 (Simulation time: 0 hr 23 min 36 sec) 
Heartbeat CPU 4 instructions: 70000001 cycles: 47953770 heartbeat IPC: 1.25675 cumulative IPC: 1.16819 (Simulation time: 0 hr 24 min 46 sec) 
Heartbeat CPU 3 instructions: 70000000 cycles: 48503028 heartbeat IPC: 1.09107 cumulative IPC: 1.00075 (Simulation time: 0 hr 24 min 57 sec) 
Heartbeat CPU 6 instructions: 70000001 cycles: 52870960 heartbeat IPC: 1.16623 cumulative IPC: 1.12531 (Simulation time: 0 hr 26 min 31 sec) 
Heartbeat CPU 4 instructions: 80000000 cycles: 56961992 heartbeat IPC: 1.1101 cumulative IPC: 1.15611 (Simulation time: 0 hr 27 min 57 sec) 
Heartbeat CPU 3 instructions: 80000000 cycles: 58701879 heartbeat IPC: 0.980503 cumulative IPC: 0.996171 (Simulation time: 0 hr 28 min 33 sec) 
Heartbeat CPU 0 instructions: 40000000 cycles: 59805258 heartbeat IPC: 0.336486 cumulative IPC: 0.326221 (Simulation time: 0 hr 28 min 56 sec) 
Heartbeat CPU 6 instructions: 80000000 cycles: 61794452 heartbeat IPC: 1.12064 cumulative IPC: 1.12444 (Simulation time: 0 hr 29 min 35 sec) 
Heartbeat CPU 4 instructions: 90000003 cycles: 65062870 heartbeat IPC: 1.23443 cumulative IPC: 1.16845 (Simulation time: 0 hr 30 min 50 sec) 
Heartbeat CPU 3 instructions: 90000002 cycles: 68228770 heartbeat IPC: 1.04966 cumulative IPC: 1.00551 (Simulation time: 0 hr 31 min 57 sec) 
Heartbeat CPU 1 instructions: 40000000 cycles: 68666644 heartbeat IPC: 0.367047 cumulative IPC: 0.36341 (Simulation time: 0 hr 32 min 7 sec) 
Heartbeat CPU 6 instructions: 90000000 cycles: 70323275 heartbeat IPC: 1.17249 cumulative IPC: 1.13167 (Simulation time: 0 hr 32 min 45 sec) 
Heartbeat CPU 4 instructions: 100000000 cycles: 73858965 heartbeat IPC: 1.13687 cumulative IPC: 1.16384 (Simulation time: 0 hr 34 min 2 sec) 
Heartbeat CPU 3 instructions: 100000000 cycles: 78287228 heartbeat IPC: 0.994188 cumulative IPC: 1.00374 (Simulation time: 0 hr 35 min 39 sec) 
Heartbeat CPU 6 instructions: 100000000 cycles: 79247337 heartbeat IPC: 1.12057 cumulative IPC: 1.13016 (Simulation time: 0 hr 36 min 0 sec) 
Heartbeat CPU 5 instructions: 40000000 cycles: 80834021 heartbeat IPC: 0.278964 cumulative IPC: 0.234882 (Simulation time: 0 hr 36 min 33 sec) 
Heartbeat CPU 4 instructions: 110000003 cycles: 81953348 heartbeat IPC: 1.23542 cumulative IPC: 1.17232 (Simulation time: 0 hr 36 min 59 sec) 
Heartbeat CPU 2 instructions: 40000000 cycles: 82576260 heartbeat IPC: 0.177681 cumulative IPC: 0.174446 (Simulation time: 0 hr 37 min 12 sec) 
Heartbeat CPU 0 instructions: 50000001 cycles: 87372727 heartbeat IPC: 0.362746 cumulative IPC: 0.339876 (Simulation time: 0 hr 38 min 49 sec) 
Heartbeat CPU 6 instructions: 110000000 cycles: 88314094 heartbeat IPC: 1.10293 cumulative IPC: 1.12686 (Simulation time: 0 hr 39 min 8 sec) 
Heartbeat CPU 3 instructions: 110000001 cycles: 88565944 heartbeat IPC: 0.972884 cumulative IPC: 0.999511 (Simulation time: 0 hr 39 min 14 sec) 
Heartbeat CPU 7 instructions: 50000003 cycles: 94354616 heartbeat IPC: 0.160953 cumulative IPC: 0.159895 (Simulation time: 0 hr 41 min 6 sec) 
Heartbeat CPU 4 instructions: 120000000 cycles: 95677571 heartbeat IPC: 0.728638 cumulative IPC: 1.0981 (Simulation time: 0 hr 41 min 34 sec) 
Heartbeat CPU 6 instructions: 120000000 cycles: 96722143 heartbeat IPC: 1.18934 cumulative IPC: 1.13318 (Simulation time: 0 hr 41 min 56 sec) 
Heartbeat CPU 1 instructions: 50000003 cycles: 98041841 heartbeat IPC: 0.340423 cumulative IPC: 0.35541 (Simulation time: 0 hr 42 min 24 sec) 
Heartbeat CPU 3 instructions: 120000000 cycles: 98431568 heartbeat IPC: 1.01362 cumulative IPC: 1.00115 (Simulation time: 0 hr 42 min 34 sec) 
Finished CPU 6 instructions: 100000003 cycles: 87999016 cumulative IPC: 1.13638 (Simulation time: 0 hr 43 min 45 sec) 
Heartbeat CPU 6 instructions: 130000003 cycles: 105211238 heartbeat IPC: 1.17798 cumulative IPC: 1.13733 (Simulation time: 0 hr 44 min 57 sec) 
Heartbeat CPU 0 instructions: 60000000 cycles: 107572405 heartbeat IPC: 0.495057 cumulative IPC: 0.373244 (Simulation time: 0 hr 45 min 44 sec) 
Heartbeat CPU 3 instructions: 130000001 cycles: 108338014 heartbeat IPC: 1.00944 cumulative IPC: 1.00202 (Simulation time: 0 hr 46 min 1 sec) 
Finished CPU 4 instructions: 100000000 cycles: 96889617 cumulative IPC: 1.0321 (Simulation time: 0 hr 46 min 47 sec) 
Heartbeat CPU 4 instructions: 130000000 cycles: 110657468 heartbeat IPC: 0.667561 cumulative IPC: 1.03163 (Simulation time: 0 hr 46 min 50 sec) 
Finished CPU 3 instructions: 100000003 cycles: 99765246 cumulative IPC: 1.00235 (Simulation time: 0 hr 47 min 46 sec) 
Heartbeat CPU 6 instructions: 140000000 cycles: 113650310 heartbeat IPC: 1.18496 cumulative IPC: 1.14135 (Simulation time: 0 hr 47 min 52 sec) 
Heartbeat CPU 3 instructions: 140000000 cycles: 118152357 heartbeat IPC: 1.01892 cumulative IPC: 1.00361 (Simulation time: 0 hr 49 min 23 sec) 
Heartbeat CPU 6 instructions: 150000001 cycles: 122090470 heartbeat IPC: 1.18481 cumulative IPC: 1.14473 (Simulation time: 0 hr 50 min 37 sec) 
Heartbeat CPU 1 instructions: 60000000 cycles: 124595386 heartbeat IPC: 0.376597 cumulative IPC: 0.36048 (Simulation time: 0 hr 51 min 23 sec) 
Heartbeat CPU 4 instructions: 140000000 cycles: 125590613 heartbeat IPC: 0.669651 cumulative IPC: 0.983348 (Simulation time: 0 hr 51 min 41 sec) 
Heartbeat CPU 3 instructions: 150000001 cycles: 128101137 heartbeat IPC: 1.00515 cumulative IPC: 1.00374 (Simulation time: 0 hr 52 min 28 sec) 
Heartbeat CPU 6 instructions: 160000000 cycles: 130812561 heartbeat IPC: 1.14651 cumulative IPC: 1.14486 (Simulation time: 0 hr 53 min 17 sec) 
Heartbeat CPU 0 instructions: 70000001 cycles: 131350689 heartbeat IPC: 0.420552 cumulative IPC: 0.3828 (Simulation time: 0 hr 53 min 27 sec) 
Heartbeat CPU 2 instructions: 50000003 cycles: 136510726 heartbeat IPC: 0.18541 cumulative IPC: 0.179258 (Simulation time: 0 hr 55 min 3 sec) 
Heartbeat CPU 3 instructions: 160000000 cycles: 138316694 heartbeat IPC: 0.978899 cumulative IPC: 1.00171 (Simulation time: 0 hr 55 min 38 sec) 
Heartbeat CPU 6 instructions: 170000000 cycles: 139248165 heartbeat IPC: 1.18545 cumulative IPC: 1.14759 (Simulation time: 0 hr 55 min 56 sec) 
Heartbeat CPU 4 instructions: 150000001 cycles: 141850395 heartbeat IPC: 0.615014 cumulative IPC: 0.936638 (Simulation time: 0 hr 56 min 44 sec) 
Heartbeat CPU 6 instructions: 180000000 cycles: 148492231 heartbeat IPC: 1.08178 cumulative IPC: 1.14308 (Simulation time: 0 hr 58 min 55 sec) 
Heartbeat CPU 3 instructions: 170000001 cycles: 148883485 heartbeat IPC: 0.946361 cumulative IPC: 0.997382 (Simulation time: 0 hr 59 min 2 sec) 
Heartbeat CPU 4 instructions: 160000000 cycles: 151507562 heartbeat IPC: 1.0355 cumulative IPC: 0.943563 (Simulation time: 0 hr 59 min 53 sec) 
Heartbeat CPU 7 instructions: 60000000 cycles: 155344981 heartbeat IPC: 0.16396 cumulative IPC: 0.161645 (Simulation time: 1 hr 0 min 52 sec) 
Heartbeat CPU 6 instructions: 190000002 cycles: 158552622 heartbeat IPC: 0.993997 cumulative IPC: 1.13273 (Simulation time: 1 hr 1 min 37 sec) 
Heartbeat CPU 3 instructions: 180000000 cycles: 159689028 heartbeat IPC: 0.925451 cumulative IPC: 0.99206 (Simulation time: 1 hr 1 min 52 sec) 
Heartbeat CPU 1 instructions: 70000002 cycles: 161807807 heartbeat IPC: 0.268728 cumulative IPC: 0.337438 (Simulation time: 1 hr 2 min 24 sec) 
Heartbeat CPU 4 instructions: 170000002 cycles: 165977268 heartbeat IPC: 0.691099 cumulative IPC: 0.919584 (Simulation time: 1 hr 3 min 38 sec) 
Heartbeat CPU 0 instructions: 80000000 cycles: 167658010 heartbeat IPC: 0.275427 cumulative IPC: 0.35749 (Simulation time: 1 hr 4 min 9 sec) 
Heartbeat CPU 6 instructions: 200000000 cycles: 168300004 heartbeat IPC: 1.02592 cumulative IPC: 1.126 (Simulation time: 1 hr 4 min 21 sec) 
Heartbeat CPU 3 instructions: 190000000 cycles: 170420825 heartbeat IPC: 0.93181 cumulative IPC: 0.987936 (Simulation time: 1 hr 5 min 1 sec) 
Heartbeat CPU 4 instructions: 180000000 cycles: 174397897 heartbeat IPC: 1.18756 cumulative IPC: 0.93362 (Simulation time: 1 hr 6 min 15 sec) 
Heartbeat CPU 6 instructions: 210000002 cycles: 176759880 heartbeat IPC: 1.18205 cumulative IPC: 1.12891 (Simulation time: 1 hr 6 min 59 sec) 
Heartbeat CPU 5 instructions: 50000000 cycles: 177656631 heartbeat IPC: 0.103282 cumulative IPC: 0.157199 (Simulation time: 1 hr 7 min 15 sec) 
Heartbeat CPU 3 instructions: 200000000 cycles: 180249743 heartbeat IPC: 1.01741 cumulative IPC: 0.989674 (Simulation time: 1 hr 8 min 4 sec) 
Heartbeat CPU 4 instructions: 190000001 cycles: 182668617 heartbeat IPC: 1.20908 cumulative IPC: 0.947098 (Simulation time: 1 hr 8 min 51 sec) 
Heartbeat CPU 6 instructions: 220000000 cycles: 185246559 heartbeat IPC: 1.17832 cumulative IPC: 1.13135 (Simulation time: 1 hr 9 min 40 sec) 
Heartbeat CPU 3 instructions: 210000003 cycles: 190789421 heartbeat IPC: 0.948796 cumulative IPC: 0.987242 (Simulation time: 1 hr 11 min 24 sec) 
Heartbeat CPU 4 instructions: 200000000 cycles: 191462509 heartbeat IPC: 1.13715 cumulative IPC: 0.956497 (Simulation time: 1 hr 11 min 36 sec) 
Heartbeat CPU 6 instructions: 230000002 cycles: 194299564 heartbeat IPC: 1.10461 cumulative IPC: 1.13001 (Simulation time: 1 hr 12 min 32 sec) 
Heartbeat CPU 2 instructions: 60000000 cycles: 196913339 heartbeat IPC: 0.165556 cumulative IPC: 0.174743 (Simulation time: 1 hr 13 min 27 sec) 
Heartbeat CPU 1 instructions: 80000000 cycles: 197742292 heartbeat IPC: 0.278284 cumulative IPC: 0.325892 (Simulation time: 1 hr 13 min 43 sec) 
Heartbeat CPU 0 instructions: 90000001 cycles: 197901558 heartbeat IPC: 0.330649 cumulative IPC: 0.353084 (Simulation time: 1 hr 13 min 47 sec) 
Heartbeat CPU 4 instructions: 210000003 cycles: 199359921 heartbeat IPC: 1.26624 cumulative IPC: 0.969667 (Simulation time: 1 hr 14 min 17 sec) 
Heartbeat CPU 3 instructions: 220000000 cycles: 200875003 heartbeat IPC: 0.991514 cumulative IPC: 0.987473 (Simulation time: 1 hr 14 min 45 sec) 
Heartbeat CPU 6 instructions: 240000000 cycles: 202783189 heartbeat IPC: 1.17874 cumulative IPC: 1.13219 (Simulation time: 1 hr 15 min 23 sec) 
Heartbeat CPU 4 instructions: 220000000 cycles: 207612902 heartbeat IPC: 1.21168 cumulative IPC: 0.979964 (Simulation time: 1 hr 17 min 0 sec) 
Heartbeat CPU 3 instructions: 230000000 cycles: 211690228 heartbeat IPC: 0.924622 cumulative IPC: 0.98404 (Simulation time: 1 hr 18 min 21 sec) 
Heartbeat CPU 6 instructions: 250000003 cycles: 211784680 heartbeat IPC: 1.11093 cumulative IPC: 1.13123 (Simulation time: 1 hr 18 min 23 sec) 
Heartbeat CPU 4 instructions: 230000000 cycles: 217319317 heartbeat IPC: 1.03025 cumulative IPC: 0.98236 (Simulation time: 1 hr 20 min 6 sec) 
Heartbeat CPU 7 instructions: 70000000 cycles: 218067064 heartbeat IPC: 0.159433 cumulative IPC: 0.160966 (Simulation time: 1 hr 20 min 22 sec) 
Heartbeat CPU 6 instructions: 260000000 cycles: 220726472 heartbeat IPC: 1.11834 cumulative IPC: 1.13067 (Simulation time: 1 hr 21 min 45 sec) 
Heartbeat CPU 3 instructions: 240000000 cycles: 222240956 heartbeat IPC: 0.947802 cumulative IPC: 0.982208 (Simulation time: 1 hr 22 min 41 sec) 
Heartbeat CPU 4 instructions: 240000000 cycles: 226824048 heartbeat IPC: 1.05211 cumulative IPC: 0.98547 (Simulation time: 1 hr 24 min 13 sec) 
Heartbeat CPU 5 instructions: 60000000 cycles: 227155214 heartbeat IPC: 0.202026 cumulative IPC: 0.167591 (Simulation time: 1 hr 24 min 20 sec) 
Heartbeat CPU 1 instructions: 90000000 cycles: 229119884 heartbeat IPC: 0.318699 cumulative IPC: 0.324845 (Simulation time: 1 hr 25 min 1 sec) 
Heartbeat CPU 6 instructions: 270000001 cycles: 229494603 heartbeat IPC: 1.14049 cumulative IPC: 1.13107 (Simulation time: 1 hr 25 min 8 sec) 
Heartbeat CPU 3 instructions: 250000001 cycles: 232474752 heartbeat IPC: 0.977155 cumulative IPC: 0.981971 (Simulation time: 1 hr 26 min 5 sec) 
Heartbeat CPU 0 instructions: 100000000 cycles: 233681959 heartbeat IPC: 0.279483 cumulative IPC: 0.341117 (Simulation time: 1 hr 26 min 28 sec) 
Heartbeat CPU 6 instructions: 280000000 cycles: 238276117 heartbeat IPC: 1.13876 cumulative IPC: 1.13137 (Simulation time: 1 hr 27 min 51 sec) 
Heartbeat CPU 4 instructions: 250000003 cycles: 240773239 heartbeat IPC: 0.716888 cumulative IPC: 0.968975 (Simulation time: 1 hr 28 min 36 sec) 
Heartbeat CPU 3 instructions: 260000000 cycles: 243278384 heartbeat IPC: 0.925615 cumulative IPC: 0.97932 (Simulation time: 1 hr 29 min 22 sec) 
Heartbeat CPU 6 instructions: 290000002 cycles: 247313143 heartbeat IPC: 1.10656 cumulative IPC: 1.13041 (Simulation time: 1 hr 30 min 40 sec) 
Heartbeat CPU 4 instructions: 260000000 cycles: 250047292 heartbeat IPC: 1.07828 cumulative IPC: 0.973263 (Simulation time: 1 hr 31 min 34 sec) 
Heartbeat CPU 3 instructions: 270000000 cycles: 253471188 heartbeat IPC: 0.981084 cumulative IPC: 0.979395 (Simulation time: 1 hr 32 min 48 sec) 
Heartbeat CPU 2 instructions: 70000000 cycles: 254221015 heartbeat IPC: 0.174497 cumulative IPC: 0.174684 (Simulation time: 1 hr 33 min 19 sec) 
Heartbeat CPU 1 instructions: 100000000 cycles: 256026602 heartbeat IPC: 0.371654 cumulative IPC: 0.330041 (Simulation time: 1 hr 34 min 35 sec) 
Heartbeat CPU 6 instructions: 300000000 cycles: 256146529 heartbeat IPC: 1.13207 cumulative IPC: 1.13047 (Simulation time: 1 hr 34 min 40 sec) 
Heartbeat CPU 4 instructions: 270000000 cycles: 259658438 heartbeat IPC: 1.04046 cumulative IPC: 0.975888 (Simulation time: 1 hr 36 min 52 sec) 
Heartbeat CPU 0 instructions: 110000002 cycles: 264351064 heartbeat IPC: 0.326061 cumulative IPC: 0.339275 (Simulation time: 1 hr 39 min 41 sec) 
Heartbeat CPU 3 instructions: 280000000 cycles: 264764811 heartbeat IPC: 0.885455 cumulative IPC: 0.975171 (Simulation time: 1 hr 39 min 55 sec) 
Heartbeat CPU 6 instructions: 310000001 cycles: 266246215 heartbeat IPC: 0.99013 cumulative IPC: 1.12486 (Simulation time: 1 hr 40 min 36 sec) 
Heartbeat CPU 4 instructions: 280000000 cycles: 274231987 heartbeat IPC: 0.686175 cumulative IPC: 0.959686 (Simulation time: 1 hr 43 min 5 sec) 
Heartbeat CPU 3 instructions: 290000001 cycles: 275676251 heartbeat IPC: 0.916469 cumulative IPC: 0.972726 (Simulation time: 1 hr 43 min 33 sec) 
Heartbeat CPU 6 instructions: 320000000 cycles: 276218900 heartbeat IPC: 1.00274 cumulative IPC: 1.12022 (Simulation time: 1 hr 43 min 43 sec) 
Heartbeat CPU 7 instructions: 80000000 cycles: 282595617 heartbeat IPC: 0.15497 cumulative IPC: 0.159528 (Simulation time: 1 hr 45 min 41 sec) 
Heartbeat CPU 6 instructions: 330000003 cycles: 285765997 heartbeat IPC: 1.04744 cumulative IPC: 1.11767 (Simulation time: 1 hr 46 min 44 sec) 
Heartbeat CPU 4 instructions: 290000001 cycles: 286390898 heartbeat IPC: 0.822442 cumulative IPC: 0.953568 (Simulation time: 1 hr 46 min 57 sec) 
Heartbeat CPU 3 instructions: 300000000 cycles: 286512468 heartbeat IPC: 0.922831 cumulative IPC: 0.970745 (Simulation time: 1 hr 46 min 59 sec) 
Heartbeat CPU 1 instructions: 110000002 cycles: 286633143 heartbeat IPC: 0.326728 cumulative IPC: 0.329669 (Simulation time: 1 hr 47 min 1 sec) 
Heartbeat CPU 5 instructions: 70000002 cycles: 287491714 heartbeat IPC: 0.165737 cumulative IPC: 0.167182 (Simulation time: 1 hr 47 min 18 sec) 
Heartbeat CPU 0 instructions: 120000000 cycles: 292735797 heartbeat IPC: 0.352302 cumulative IPC: 0.3406 (Simulation time: 1 hr 49 min 3 sec) 
Heartbeat CPU 6 instructions: 340000000 cycles: 294484046 heartbeat IPC: 1.14705 cumulative IPC: 1.11858 (Simulation time: 1 hr 49 min 39 sec) 
Heartbeat CPU 3 instructions: 310000000 cycles: 296906977 heartbeat IPC: 0.962046 cumulative IPC: 0.970426 (Simulation time: 1 hr 50 min 27 sec) 
Heartbeat CPU 4 instructions: 300000000 cycles: 298053328 heartbeat IPC: 0.857454 cumulative IPC: 0.949627 (Simulation time: 1 hr 50 min 51 sec) 
Heartbeat CPU 6 instructions: 350000002 cycles: 303591714 heartbeat IPC: 1.09798 cumulative IPC: 1.11793 (Simulation time: 1 hr 52 min 39 sec) 
Finished CPU 0 instructions: 100000000 cycles: 291149150 cumulative IPC: 0.343467 (Simulation time: 1 hr 53 min 4 sec) 
Heartbeat CPU 3 instructions: 320000000 cycles: 307976369 heartbeat IPC: 0.903392 cumulative IPC: 0.967905 (Simulation time: 1 hr 54 min 4 sec) 
Heartbeat CPU 1 instructions: 120000000 cycles: 310326135 heartbeat IPC: 0.422066 cumulative IPC: 0.337048 (Simulation time: 1 hr 54 min 48 sec) 
Finished CPU 1 instructions: 100000000 cycles: 296693769 cumulative IPC: 0.337048 (Simulation time: 1 hr 54 min 48 sec) 
Heartbeat CPU 4 instructions: 310000002 cycles: 311938511 heartbeat IPC: 0.720192 cumulative IPC: 0.938948 (Simulation time: 1 hr 55 min 20 sec) 
Heartbeat CPU 6 instructions: 360000000 cycles: 312896212 heartbeat IPC: 1.07475 cumulative IPC: 1.11659 (Simulation time: 1 hr 55 min 38 sec) 
Heartbeat CPU 0 instructions: 130000001 cycles: 314664437 heartbeat IPC: 0.456025 cumulative IPC: 0.349008 (Simulation time: 1 hr 56 min 14 sec) 
Heartbeat CPU 2 instructions: 80000000 cycles: 317157965 heartbeat IPC: 0.158889 cumulative IPC: 0.171409 (Simulation time: 1 hr 57 min 5 sec) 
Heartbeat CPU 3 instructions: 330000001 cycles: 318426226 heartbeat IPC: 0.956951 cumulative IPC: 0.967529 (Simulation time: 1 hr 57 min 31 sec) 
Heartbeat CPU 6 instructions: 370000000 cycles: 322015948 heartbeat IPC: 1.09652 cumulative IPC: 1.116 (Simulation time: 1 hr 58 min 40 sec) 
Heartbeat CPU 4 instructions: 320000000 cycles: 323136160 heartbeat IPC: 0.893044 cumulative IPC: 0.937287 (Simulation time: 1 hr 59 min 3 sec) 
Heartbeat CPU 5 instructions: 80000000 cycles: 326273001 heartbeat IPC: 0.257856 cumulative IPC: 0.17843 (Simulation time: 2 hr 0 min 7 sec) 
Heartbeat CPU 3 instructions: 340000000 cycles: 328930211 heartbeat IPC: 0.95202 cumulative IPC: 0.967013 (Simulation time: 2 hr 1 min 2 sec) 
Heartbeat CPU 6 instructions: 380000000 cycles: 330681446 heartbeat IPC: 1.154 cumulative IPC: 1.11704 (Simulation time: 2 hr 1 min 40 sec) 
Heartbeat CPU 1 instructions: 130000000 cycles: 334722218 heartbeat IPC: 0.409902 cumulative IPC: 0.342583 (Simulation time: 2 hr 3 min 3 sec) 
Heartbeat CPU 4 instructions: 330000000 cycles: 334854019 heartbeat IPC: 0.853398 cumulative IPC: 0.934227 (Simulation time: 2 hr 3 min 5 sec) 
Heartbeat CPU 0 instructions: 140000000 cycles: 338983520 heartbeat IPC: 0.4112 cumulative IPC: 0.353657 (Simulation time: 2 hr 4 min 14 sec) 
Heartbeat CPU 3 instructions: 350000001 cycles: 339548505 heartbeat IPC: 0.941771 cumulative IPC: 0.96619 (Simulation time: 2 hr 4 min 22 sec) 
Heartbeat CPU 6 instructions: 390000001 cycles: 340115633 heartbeat IPC: 1.05997 cumulative IPC: 1.11539 (Simulation time: 2 hr 4 min 32 sec) 
Heartbeat CPU 7 instructions: 90000003 cycles: 346645054 heartbeat IPC: 0.156129 cumulative IPC: 0.158874 (Simulation time: 2 hr 6 min 14 sec) 
Heartbeat CPU 6 instructions: 400000000 cycles: 350500233 heartbeat IPC: 0.962964 cumulative IPC: 1.11069 (Simulation time: 2 hr 7 min 27 sec) 
Heartbeat CPU 3 instructions: 360000000 cycles: 350516982 heartbeat IPC: 0.911704 cumulative IPC: 0.964416 (Simulation time: 2 hr 7 min 28 sec) 
Heartbeat CPU 4 instructions: 340000000 cycles: 352873046 heartbeat IPC: 0.554969 cumulative IPC: 0.914082 (Simulation time: 2 hr 8 min 11 sec) 
Heartbeat CPU 6 instructions: 410000000 cycles: 359402657 heartbeat IPC: 1.12329 cumulative IPC: 1.11101 (Simulation time: 2 hr 10 min 30 sec) 
Heartbeat CPU 4 instructions: 350000002 cycles: 360631379 heartbeat IPC: 1.28894 cumulative IPC: 0.922463 (Simulation time: 2 hr 10 min 55 sec) 
Heartbeat CPU 3 instructions: 370000000 cycles: 361659135 heartbeat IPC: 0.897493 cumulative IPC: 0.962274 (Simulation time: 2 hr 11 min 16 sec) 
Heartbeat CPU 1 instructions: 140000000 cycles: 364153701 heartbeat IPC: 0.339772 cumulative IPC: 0.342347 (Simulation time: 2 hr 12 min 8 sec) 
Heartbeat CPU 5 instructions: 90000000 cycles: 364993301 heartbeat IPC: 0.258262 cumulative IPC: 0.187227 (Simulation time: 2 hr 12 min 26 sec) 
Heartbeat CPU 6 instructions: 420000000 cycles: 368225962 heartbeat IPC: 1.13336 cumulative IPC: 1.11157 (Simulation time: 2 hr 13 min 33 sec) 
Heartbeat CPU 4 instructions: 360000000 cycles: 370042487 heartbeat IPC: 1.06257 cumulative IPC: 0.926163 (Simulation time: 2 hr 14 min 9 sec) 
Heartbeat CPU 3 instructions: 380000000 cycles: 371531418 heartbeat IPC: 1.01294 cumulative IPC: 0.963671 (Simulation time: 2 hr 14 min 39 sec) 
Heartbeat CPU 0 instructions: 150000001 cycles: 372858220 heartbeat IPC: 0.295206 cumulative IPC: 0.348145 (Simulation time: 2 hr 15 min 9 sec) 
Heartbeat CPU 6 instructions: 430000000 cycles: 376823903 heartbeat IPC: 1.16307 cumulative IPC: 1.11279 (Simulation time: 2 hr 16 min 32 sec) 
Heartbeat CPU 2 instructions: 90000000 cycles: 377631736 heartbeat IPC: 0.165361 cumulative IPC: 0.170404 (Simulation time: 2 hr 16 min 48 sec) 
Heartbeat CPU 4 instructions: 370000003 cycles: 377859308 heartbeat IPC: 1.27929 cumulative IPC: 0.933742 (Simulation time: 2 hr 16 min 53 sec) 
Heartbeat CPU 6 instructions: 440000000 cycles: 386024041 heartbeat IPC: 1.08694 cumulative IPC: 1.11215 (Simulation time: 2 hr 19 min 23 sec) 
Heartbeat CPU 4 instructions: 380000000 cycles: 387487596 heartbeat IPC: 1.03861 cumulative IPC: 0.936442 (Simulation time: 2 hr 19 min 52 sec) 
Heartbeat CPU 1 instructions: 150000000 cycles: 388242923 heartbeat IPC: 0.415123 cumulative IPC: 0.347027 (Simulation time: 2 hr 20 min 8 sec) 
Heartbeat CPU 6 instructions: 450000000 cycles: 394630605 heartbeat IPC: 1.1619 cumulative IPC: 1.11327 (Simulation time: 2 hr 22 min 6 sec) 
Heartbeat CPU 3 instructions: 390000002 cycles: 396039277 heartbeat IPC: 0.408032 cumulative IPC: 0.928061 (Simulation time: 2 hr 22 min 33 sec) 
Heartbeat CPU 4 instructions: 390000001 cycles: 396682754 heartbeat IPC: 1.08753 cumulative IPC: 0.940069 (Simulation time: 2 hr 22 min 45 sec) 
Heartbeat CPU 5 instructions: 100000000 cycles: 399211967 heartbeat IPC: 0.292238 cumulative IPC: 0.196547 (Simulation time: 2 hr 23 min 33 sec) 
Heartbeat CPU 0 instructions: 160000000 cycles: 402916183 heartbeat IPC: 0.332691 cumulative IPC: 0.346951 (Simulation time: 2 hr 24 min 44 sec) 
Heartbeat CPU 6 instructions: 460000000 cycles: 403442779 heartbeat IPC: 1.13479 cumulative IPC: 1.11376 (Simulation time: 2 hr 24 min 55 sec) 
Heartbeat CPU 4 instructions: 400000000 cycles: 404364456 heartbeat IPC: 1.30179 cumulative IPC: 0.947181 (Simulation time: 2 hr 25 min 13 sec) 
Heartbeat CPU 3 instructions: 400000000 cycles: 407843934 heartbeat IPC: 0.847123 cumulative IPC: 0.925637 (Simulation time: 2 hr 26 min 21 sec) 
Heartbeat CPU 7 instructions: 100000000 cycles: 409154318 heartbeat IPC: 0.159976 cumulative IPC: 0.159048 (Simulation time: 2 hr 26 min 45 sec) 
Heartbeat CPU 6 instructions: 470000000 cycles: 411882131 heartbeat IPC: 1.18493 cumulative IPC: 1.11527 (Simulation time: 2 hr 27 min 37 sec) 
Heartbeat CPU 4 instructions: 410000000 cycles: 413157929 heartbeat IPC: 1.13721 cumulative IPC: 0.951363 (Simulation time: 2 hr 28 min 2 sec) 
Heartbeat CPU 1 instructions: 160000000 cycles: 414687151 heartbeat IPC: 0.378154 cumulative IPC: 0.349079 (Simulation time: 2 hr 28 min 32 sec) 
Heartbeat CPU 3 instructions: 410000001 cycles: 419729127 heartbeat IPC: 0.841383 cumulative IPC: 0.923172 (Simulation time: 2 hr 30 min 8 sec) 
Heartbeat CPU 6 instructions: 480000000 cycles: 420513994 heartbeat IPC: 1.1585 cumulative IPC: 1.11619 (Simulation time: 2 hr 30 min 23 sec) 
Heartbeat CPU 4 instructions: 420000000 cycles: 420938182 heartbeat IPC: 1.28531 cumulative IPC: 0.957742 (Simulation time: 2 hr 30 min 31 sec) 
Heartbeat CPU 6 instructions: 490000003 cycles: 429329588 heartbeat IPC: 1.13435 cumulative IPC: 1.11657 (Simulation time: 2 hr 33 min 2 sec) 
Heartbeat CPU 3 instructions: 420000000 cycles: 431654063 heartbeat IPC: 0.838579 cumulative IPC: 0.920758 (Simulation time: 2 hr 33 min 45 sec) 
Heartbeat CPU 2 instructions: 100000000 cycles: 432990205 heartbeat IPC: 0.180641 cumulative IPC: 0.171755 (Simulation time: 2 hr 34 min 10 sec) 
Heartbeat CPU 4 instructions: 430000001 cycles: 434888735 heartbeat IPC: 0.716818 cumulative IPC: 0.949763 (Simulation time: 2 hr 34 min 48 sec) 
Heartbeat CPU 0 instructions: 170000000 cycles: 436140442 heartbeat IPC: 0.300985 cumulative IPC: 0.343337 (Simulation time: 2 hr 35 min 12 sec) 
Heartbeat CPU 6 instructions: 500000000 cycles: 437590214 heartbeat IPC: 1.21056 cumulative IPC: 1.1184 (Simulation time: 2 hr 35 min 42 sec) 
Heartbeat CPU 1 instructions: 170000000 cycles: 442595300 heartbeat IPC: 0.358318 cumulative IPC: 0.349681 (Simulation time: 2 hr 37 min 16 sec) 
Heartbeat CPU 3 instructions: 430000000 cycles: 443425209 heartbeat IPC: 0.849535 cumulative IPC: 0.918808 (Simulation time: 2 hr 37 min 32 sec) 
Heartbeat CPU 6 instructions: 510000002 cycles: 446032222 heartbeat IPC: 1.18455 cumulative IPC: 1.11969 (Simulation time: 2 hr 38 min 22 sec) 
Heartbeat CPU 4 instructions: 440000000 cycles: 449863729 heartbeat IPC: 0.66778 cumulative IPC: 0.940084 (Simulation time: 2 hr 39 min 37 sec) 
Heartbeat CPU 6 instructions: 520000000 cycles: 454293217 heartbeat IPC: 1.21051 cumulative IPC: 1.1214 (Simulation time: 2 hr 41 min 2 sec) 
Heartbeat CPU 3 instructions: 440000000 cycles: 455128094 heartbeat IPC: 0.85449 cumulative IPC: 0.917103 (Simulation time: 2 hr 41 min 17 sec) 
Heartbeat CPU 5 instructions: 110000000 cycles: 458849595 heartbeat IPC: 0.167679 cumulative IPC: 0.19268 (Simulation time: 2 hr 42 min 25 sec) 
Heartbeat CPU 6 instructions: 530000003 cycles: 462816474 heartbeat IPC: 1.17326 cumulative IPC: 1.12238 (Simulation time: 2 hr 43 min 41 sec) 
Heartbeat CPU 4 instructions: 450000000 cycles: 464801954 heartbeat IPC: 0.669424 cumulative IPC: 0.931122 (Simulation time: 2 hr 44 min 18 sec) 
Heartbeat CPU 3 instructions: 450000002 cycles: 466920570 heartbeat IPC: 0.847998 cumulative IPC: 0.915305 (Simulation time: 2 hr 44 min 59 sec) 
Heartbeat CPU 0 instructions: 180000000 cycles: 467054092 heartbeat IPC: 0.323482 cumulative IPC: 0.341983 (Simulation time: 2 hr 45 min 2 sec) 
Heartbeat CPU 7 instructions: 110000001 cycles: 467086028 heartbeat IPC: 0.172617 cumulative IPC: 0.160782 (Simulation time: 2 hr 45 min 2 sec) 
Heartbeat CPU 1 instructions: 180000000 cycles: 467581770 heartbeat IPC: 0.400217 cumulative IPC: 0.352462 (Simulation time: 2 hr 45 min 12 sec) 
Heartbeat CPU 6 instructions: 540000000 cycles: 471060429 heartbeat IPC: 1.21301 cumulative IPC: 1.12401 (Simulation time: 2 hr 46 min 23 sec) 
Heartbeat CPU 3 instructions: 460000000 cycles: 478644923 heartbeat IPC: 0.852925 cumulative IPC: 0.913732 (Simulation time: 2 hr 48 min 44 sec) 
Heartbeat CPU 6 instructions: 550000001 cycles: 479717370 heartbeat IPC: 1.15514 cumulative IPC: 1.12459 (Simulation time: 2 hr 49 min 3 sec) 
Heartbeat CPU 4 instructions: 460000000 cycles: 481265412 heartbeat IPC: 0.607406 cumulative IPC: 0.919725 (Simulation time: 2 hr 49 min 28 sec) 
Heartbeat CPU 2 instructions: 110000001 cycles: 484239521 heartbeat IPC: 0.195125 cumulative IPC: 0.1743 (Simulation time: 2 hr 50 min 25 sec) 
Heartbeat CPU 6 instructions: 560000000 cycles: 488819439 heartbeat IPC: 1.09865 cumulative IPC: 1.1241 (Simulation time: 2 hr 51 min 49 sec) 
Heartbeat CPU 4 instructions: 470000000 cycles: 490338314 heartbeat IPC: 1.10218 cumulative IPC: 0.923198 (Simulation time: 2 hr 52 min 19 sec) 
Heartbeat CPU 3 instructions: 470000003 cycles: 490646203 heartbeat IPC: 0.833245 cumulative IPC: 0.911707 (Simulation time: 2 hr 52 min 25 sec) 
Heartbeat CPU 1 instructions: 190000000 cycles: 494283786 heartbeat IPC: 0.374504 cumulative IPC: 0.353687 (Simulation time: 2 hr 53 min 31 sec) 
Heartbeat CPU 0 instructions: 190000001 cycles: 495441875 heartbeat IPC: 0.352264 cumulative IPC: 0.342589 (Simulation time: 2 hr 53 min 50 sec) 
Heartbeat CPU 6 instructions: 570000003 cycles: 498503544 heartbeat IPC: 1.03262 cumulative IPC: 1.12227 (Simulation time: 2 hr 54 min 36 sec) 
Heartbeat CPU 3 instructions: 480000000 cycles: 502792993 heartbeat IPC: 0.823263 cumulative IPC: 0.909511 (Simulation time: 2 hr 55 min 52 sec) 
Heartbeat CPU 4 instructions: 480000000 cycles: 503817404 heartbeat IPC: 0.74189 cumulative IPC: 0.918212 (Simulation time: 2 hr 56 min 11 sec) 
Heartbeat CPU 5 instructions: 120000000 cycles: 506024021 heartbeat IPC: 0.211979 cumulative IPC: 0.194529 (Simulation time: 2 hr 56 min 55 sec) 
Heartbeat CPU 6 instructions: 580000000 cycles: 507918204 heartbeat IPC: 1.06217 cumulative IPC: 1.12112 (Simulation time: 2 hr 57 min 33 sec) 
Heartbeat CPU 4 instructions: 490000003 cycles: 512498272 heartbeat IPC: 1.15196 cumulative IPC: 0.92228 (Simulation time: 2 hr 59 min 0 sec) 
Heartbeat CPU 3 instructions: 490000003 cycles: 514668301 heartbeat IPC: 0.842084 cumulative IPC: 0.907913 (Simulation time: 2 hr 59 min 44 sec) 
Heartbeat CPU 6 instructions: 590000001 cycles: 516426062 heartbeat IPC: 1.17538 cumulative IPC: 1.12204 (Simulation time: 3 hr 0 min 21 sec) 
Heartbeat CPU 0 instructions: 200000000 cycles: 519498434 heartbeat IPC: 0.415687 cumulative IPC: 0.346065 (Simulation time: 3 hr 1 min 29 sec) 
Heartbeat CPU 4 instructions: 500000000 cycles: 520526080 heartbeat IPC: 1.24567 cumulative IPC: 0.927401 (Simulation time: 3 hr 1 min 51 sec) 
Finished CPU 5 instructions: 100000001 cycles: 506978352 cumulative IPC: 0.197247 (Simulation time: 3 hr 1 min 53 sec) 
Heartbeat CPU 6 instructions: 600000000 cycles: 524754161 heartbeat IPC: 1.20075 cumulative IPC: 1.12332 (Simulation time: 3 hr 3 min 19 sec) 
Heartbeat CPU 3 instructions: 500000000 cycles: 526399929 heartbeat IPC: 0.852396 cumulative IPC: 0.906643 (Simulation time: 3 hr 3 min 52 sec) 
Heartbeat CPU 1 instructions: 200000000 cycles: 528307919 heartbeat IPC: 0.293909 cumulative IPC: 0.349735 (Simulation time: 3 hr 4 min 31 sec) 
Heartbeat CPU 7 instructions: 120000000 cycles: 528688832 heartbeat IPC: 0.16233 cumulative IPC: 0.160967 (Simulation time: 3 hr 4 min 40 sec) 
Heartbeat CPU 4 instructions: 510000000 cycles: 528982842 heartbeat IPC: 1.18249 cumulative IPC: 0.931587 (Simulation time: 3 hr 4 min 46 sec) 
Heartbeat CPU 6 instructions: 610000000 cycles: 533298557 heartbeat IPC: 1.17036 cumulative IPC: 1.1241 (Simulation time: 3 hr 6 min 14 sec) 
Heartbeat CPU 4 instructions: 520000000 cycles: 536830790 heartbeat IPC: 1.27422 cumulative IPC: 0.936727 (Simulation time: 3 hr 7 min 23 sec) 
Heartbeat CPU 2 instructions: 120000000 cycles: 539817197 heartbeat IPC: 0.179928 cumulative IPC: 0.174895 (Simulation time: 3 hr 8 min 15 sec) 
Heartbeat CPU 0 instructions: 210000000 cycles: 540054716 heartbeat IPC: 0.486469 cumulative IPC: 0.351548 (Simulation time: 3 hr 8 min 20 sec) 
Heartbeat CPU 6 instructions: 620000000 cycles: 541786348 heartbeat IPC: 1.17816 cumulative IPC: 1.12497 (Simulation time: 3 hr 8 min 49 sec) 
Heartbeat CPU 4 instructions: 530000003 cycles: 545070117 heartbeat IPC: 1.21369 cumulative IPC: 0.941021 (Simulation time: 3 hr 9 min 46 sec) 
Heartbeat CPU 5 instructions: 130000001 cycles: 548112941 heartbeat IPC: 0.237592 cumulative IPC: 0.19792 (Simulation time: 3 hr 10 min 40 sec) 
Heartbeat CPU 6 instructions: 630000002 cycles: 550500154 heartbeat IPC: 1.1476 cumulative IPC: 1.12533 (Simulation time: 3 hr 11 min 20 sec) 
Heartbeat CPU 3 instructions: 510000001 cycles: 552489226 heartbeat IPC: 0.383299 cumulative IPC: 0.881305 (Simulation time: 3 hr 11 min 53 sec) 
Heartbeat CPU 4 instructions: 540000000 cycles: 554426488 heartbeat IPC: 1.06879 cumulative IPC: 0.943231 (Simulation time: 3 hr 12 min 29 sec) 
Heartbeat CPU 6 instructions: 640000000 cycles: 559668071 heartbeat IPC: 1.09076 cumulative IPC: 1.12475 (Simulation time: 3 hr 14 min 4 sec) 
Heartbeat CPU 1 instructions: 210000001 cycles: 564422165 heartbeat IPC: 0.276899 cumulative IPC: 0.344959 (Simulation time: 3 hr 15 min 32 sec) 
Heartbeat CPU 4 instructions: 550000000 cycles: 564567837 heartbeat IPC: 0.986062 cumulative IPC: 0.94402 (Simulation time: 3 hr 15 min 35 sec) 
Heartbeat CPU 3 instructions: 520000000 cycles: 564653545 heartbeat IPC: 0.822076 cumulative IPC: 0.879997 (Simulation time: 3 hr 15 min 37 sec) 
Heartbeat CPU 6 instructions: 650000000 cycles: 568402941 heartbeat IPC: 1.14484 cumulative IPC: 1.12507 (Simulation time: 3 hr 16 min 48 sec) 
Heartbeat CPU 0 instructions: 220000000 cycles: 572006154 heartbeat IPC: 0.312975 cumulative IPC: 0.349341 (Simulation time: 3 hr 17 min 57 sec) 
Heartbeat CPU 6 instructions: 660000000 cycles: 577047691 heartbeat IPC: 1.15677 cumulative IPC: 1.12556 (Simulation time: 3 hr 19 min 28 sec) 
Heartbeat CPU 3 instructions: 530000001 cycles: 578489533 heartbeat IPC: 0.722753 cumulative IPC: 0.876145 (Simulation time: 3 hr 19 min 49 sec) 
Heartbeat CPU 4 instructions: 560000000 cycles: 578673230 heartbeat IPC: 0.708949 cumulative IPC: 0.938151 (Simulation time: 3 hr 19 min 52 sec) 
Heartbeat CPU 6 instructions: 670000001 cycles: 588093729 heartbeat IPC: 0.905302 cumulative IPC: 1.12132 (Simulation time: 3 hr 22 min 24 sec) 
Finished CPU 2 instructions: 100000000 cycles: 574586832 cumulative IPC: 0.174038 (Simulation time: 3 hr 22 min 26 sec) 
Heartbeat CPU 4 instructions: 570000002 cycles: 589398251 heartbeat IPC: 0.932399 cumulative IPC: 0.938044 (Simulation time: 3 hr 22 min 48 sec) 
Heartbeat CPU 7 instructions: 130000002 cycles: 591574409 heartbeat IPC: 0.159019 cumulative IPC: 0.160755 (Simulation time: 3 hr 23 min 27 sec) 
Heartbeat CPU 1 instructions: 220000000 cycles: 591808767 heartbeat IPC: 0.365142 cumulative IPC: 0.345915 (Simulation time: 3 hr 23 min 31 sec) 
Heartbeat CPU 3 instructions: 540000000 cycles: 592685447 heartbeat IPC: 0.704428 cumulative IPC: 0.871936 (Simulation time: 3 hr 23 min 46 sec) 
Heartbeat CPU 6 instructions: 680000000 cycles: 597526845 heartbeat IPC: 1.06009 cumulative IPC: 1.12033 (Simulation time: 3 hr 25 min 11 sec) 
Heartbeat CPU 4 instructions: 580000000 cycles: 599414179 heartbeat IPC: 0.99841 cumulative IPC: 0.939076 (Simulation time: 3 hr 25 min 45 sec) 
Heartbeat CPU 2 instructions: 130000000 cycles: 601364547 heartbeat IPC: 0.162477 cumulative IPC: 0.173594 (Simulation time: 3 hr 26 min 22 sec) 
Heartbeat CPU 5 instructions: 140000000 cycles: 601810600 heartbeat IPC: 0.186228 cumulative IPC: 0.196853 (Simulation time: 3 hr 26 min 29 sec) 
Heartbeat CPU 0 instructions: 230000000 cycles: 602974605 heartbeat IPC: 0.322909 cumulative IPC: 0.347952 (Simulation time: 3 hr 26 min 48 sec) 
Heartbeat CPU 3 instructions: 550000001 cycles: 604292475 heartbeat IPC: 0.861547 cumulative IPC: 0.871731 (Simulation time: 3 hr 27 min 7 sec) 
Heartbeat CPU 6 instructions: 690000003 cycles: 607537166 heartbeat IPC: 0.998969 cumulative IPC: 1.11829 (Simulation time: 3 hr 27 min 59 sec) 
Heartbeat CPU 4 instructions: 590000001 cycles: 614016206 heartbeat IPC: 0.684837 cumulative IPC: 0.932893 (Simulation time: 3 hr 29 min 50 sec) 
Heartbeat CPU 3 instructions: 560000000 cycles: 615277563 heartbeat IPC: 0.910325 cumulative IPC: 0.872436 (Simulation time: 3 hr 30 min 12 sec) 
Heartbeat CPU 6 instructions: 700000000 cycles: 617415028 heartbeat IPC: 1.01236 cumulative IPC: 1.11655 (Simulation time: 3 hr 30 min 48 sec) 
Heartbeat CPU 1 instructions: 230000001 cycles: 621495975 heartbeat IPC: 0.336845 cumulative IPC: 0.345472 (Simulation time: 3 hr 32 min 0 sec) 
Heartbeat CPU 3 instructions: 570000002 cycles: 626182864 heartbeat IPC: 0.916985 cumulative IPC: 0.873229 (Simulation time: 3 hr 33 min 23 sec) 
Heartbeat CPU 4 instructions: 600000000 cycles: 626201753 heartbeat IPC: 0.820644 cumulative IPC: 0.93066 (Simulation time: 3 hr 33 min 23 sec) 
Heartbeat CPU 6 instructions: 710000002 cycles: 626778602 heartbeat IPC: 1.06797 cumulative IPC: 1.11581 (Simulation time: 3 hr 33 min 33 sec) 
Heartbeat CPU 0 instructions: 240000000 cycles: 631449699 heartbeat IPC: 0.351184 cumulative IPC: 0.348101 (Simulation time: 3 hr 35 min 2 sec) 
Heartbeat CPU 6 instructions: 720000000 cycles: 635429520 heartbeat IPC: 1.15595 cumulative IPC: 1.11637 (Simulation time: 3 hr 36 min 14 sec) 
Heartbeat CPU 3 instructions: 580000000 cycles: 636400446 heartbeat IPC: 0.978705 cumulative IPC: 0.87496 (Simulation time: 3 hr 36 min 32 sec) 
Heartbeat CPU 4 instructions: 610000003 cycles: 637897905 heartbeat IPC: 0.854982 cumulative IPC: 0.929242 (Simulation time: 3 hr 36 min 58 sec) 
Finished CPU 7 instructions: 100000001 cycles: 624913245 cumulative IPC: 0.160022 (Simulation time: 3 hr 37 min 10 sec) 

CPU 0 Branch Prediction Accuracy: 99.2332% MPKI: 1.80148

CPU 1 Branch Prediction Accuracy: 98.583% MPKI: 1.40005

CPU 2 Branch Prediction Accuracy: 99.5566% MPKI: 1.45756

CPU 3 Branch Prediction Accuracy: 95.6671% MPKI: 3.54814

CPU 4 Branch Prediction Accuracy: 99.2903% MPKI: 0.359462

CPU 5 Branch Prediction Accuracy: 92.398% MPKI: 13.6813

CPU 6 Branch Prediction Accuracy: 99.9708% MPKI: 0.00723465

CPU 7 Branch Prediction Accuracy: 99.9788% MPKI: 0.0201293

ChampSim completed all CPUs

Total Simulation Statistics (not including warmup)

CPU 0 cumulative IPC: 0.348333 instructions: 217678172 cycles: 624913244
L1D TOTAL     ACCESS:   57651312  HIT:   46267992  MISS:   11383320
L1D LOAD      ACCESS:   40717710  HIT:   29705038  MISS:   11012672
L1D RFO       ACCESS:   16933602  HIT:   16562954  MISS:     370648
L1D PREFETCH  ACCESS:          0  HIT:          0  MISS:          0
L1D WRITEBACK ACCESS:          0  HIT:          0  MISS:          0
L1I TOTAL     ACCESS:   93458451  HIT:   92845319  MISS:     613132
L1I LOAD      ACCESS:   93458451  HIT:   92845319  MISS:     613132
L1I RFO       ACCESS:          0  HIT:          0  MISS:          0
L1I PREFETCH  ACCESS:          0  HIT:          0  MISS:          0
L1I WRITEBACK ACCESS:          0  HIT:          0  MISS:          0
L2C TOTAL     ACCESS:   14522624  HIT:    8192221  MISS:    6330403
L2C LOAD      ACCESS:   11625767  HIT:    6486429  MISS:    5139338
L2C RFO       ACCESS:     370639  HIT:      67795  MISS:     302844
L2C PREFETCH  ACCESS:    1930742  HIT:    1042673  MISS:     888069
L2C WRITEBACK ACCESS:     595476  HIT:     595324  MISS:        152

L2C DA-AMPM prefetcher final stats
LLC TOTAL     ACCESS:    6757654  HIT:    6242122  MISS:     515532
LLC LOAD      ACCESS:    5101168  HIT:    4953514  MISS:     147654
LLC RFO       ACCESS:     302205  HIT:      25829  MISS:     276376
LLC PREFETCH  ACCESS:     926870  HIT:     861239  MISS:      65631
LLC WRITEBACK ACCESS:     427411  HIT:     401540  MISS:      25871

CPU 1 cumulative IPC: 0.345152 instructions: 215689831 cycles: 624913244
L1D TOTAL     ACCESS:  107067828  HIT:  101279362  MISS:    5788466
L1D LOAD      ACCESS:   47020144  HIT:   41754042  MISS:    5266102
L1D RFO       ACCESS:   60047684  HIT:   59525320  MISS:     522364
L1D PREFETCH  ACCESS:          0  HIT:          0  MISS:          0
L1D WRITEBACK ACCESS:          0  HIT:          0  MISS:          0
L1I TOTAL     ACCESS:   69634334  HIT:   69634334  MISS:          0
L1I LOAD      ACCESS:   69634334  HIT:   69634334  MISS:          0
L1I RFO       ACCESS:          0  HIT:          0  MISS:          0
L1I PREFETCH  ACCESS:          0  HIT:          0  MISS:          0
L1I WRITEBACK ACCESS:          0  HIT:          0  MISS:          0
L2C TOTAL     ACCESS:   12052474  HIT:    4501969  MISS:    7550505
L2C LOAD      ACCESS:    5266065  HIT:    3057550  MISS:    2208515
L2C RFO       ACCESS:     522346  HIT:      49252  MISS:     473094
L2C PREFETCH  ACCESS:    4874696  HIT:      13447  MISS:    4861249
L2C WRITEBACK ACCESS:    1389367  HIT:    1381720  MISS:       7647

L2C DA-AMPM prefetcher final stats
LLC TOTAL     ACCESS:    8804430  HIT:    1352731  MISS:    7451699
LLC LOAD      ACCESS:    1560293  HIT:      55277  MISS:    1505016
LLC RFO       ACCESS:     470140  HIT:       2061  MISS:     468079
LLC PREFETCH  ACCESS:    5512425  HIT:      35557  MISS:    5476868
LLC WRITEBACK ACCESS:    1261572  HIT:    1259836  MISS:       1736

CPU 2 cumulative IPC: 0.172753 instructions: 107955566 cycles: 624913245
L1D TOTAL     ACCESS:   19335245  HIT:   11521265  MISS:    7813980
L1D LOAD      ACCESS:   17738854  HIT:    9927873  MISS:    7810981
L1D RFO       ACCESS:    1596391  HIT:    1593392  MISS:       2999
L1D PREFETCH  ACCESS:          0  HIT:          0  MISS:          0
L1D WRITEBACK ACCESS:          0  HIT:          0  MISS:          0
L1I TOTAL     ACCESS:   39339906  HIT:   39339881  MISS:         25
L1I LOAD      ACCESS:   39339906  HIT:   39339881  MISS:         25
L1I RFO       ACCESS:          0  HIT:          0  MISS:          0
L1I PREFETCH  ACCESS:          0  HIT:          0  MISS:          0
L1I WRITEBACK ACCESS:          0  HIT:          0  MISS:          0
L2C TOTAL     ACCESS:   14001269  HIT:    6273706  MISS:    7727563
L2C LOAD      ACCESS:    7811006  HIT:    6182403  MISS:    1628603
L2C RFO       ACCESS:       2999  HIT:        458  MISS:       2541
L2C PREFETCH  ACCESS:    6159774  HIT:      63355  MISS:    6096419
L2C WRITEBACK ACCESS:      27490  HIT:      27490  MISS:          0

L2C DA-AMPM prefetcher final stats
LLC TOTAL     ACCESS:    7739721  HIT:      20539  MISS:    7719182
LLC LOAD      ACCESS:     643309  HIT:       8133  MISS:     635176
LLC RFO       ACCESS:       2488  HIT:         85  MISS:       2403
LLC PREFETCH  ACCESS:    7081766  HIT:        172  MISS:    7081594
LLC WRITEBACK ACCESS:      12158  HIT:      12149  MISS:          9

CPU 3 cumulative IPC: 0.875348 instructions: 547016296 cycles: 624913245
L1D TOTAL     ACCESS:   94494719  HIT:   83124892  MISS:   11369827
L1D LOAD      ACCESS:   61668212  HIT:   54256986  MISS:    7411226
L1D RFO       ACCESS:   32826507  HIT:   28867906  MISS:    3958601
L1D PREFETCH  ACCESS:          0  HIT:          0  MISS:          0
L1D WRITEBACK ACCESS:          0  HIT:          0  MISS:          0
L1I TOTAL     ACCESS:  136534203  HIT:  136525310  MISS:       8893
L1I LOAD      ACCESS:  136534203  HIT:  136525310  MISS:       8893
L1I RFO       ACCESS:          0  HIT:          0  MISS:          0
L1I PREFETCH  ACCESS:          0  HIT:          0  MISS:          0
L1I WRITEBACK ACCESS:          0  HIT:          0  MISS:          0
L2C TOTAL     ACCESS:   19545643  HIT:   11184249  MISS:    8361394
L2C LOAD      ACCESS:    7420031  HIT:    4742338  MISS:    2677693
L2C RFO       ACCESS:    3957292  HIT:    1059241  MISS:    2898051
L2C PREFETCH  ACCESS:    3199373  HIT:     424092  MISS:    2775281
L2C WRITEBACK ACCESS:    4968947  HIT:    4958578  MISS:      10369

L2C DA-AMPM prefetcher final stats
LLC TOTAL     ACCESS:   12036073  HIT:    8815326  MISS:    3220747
LLC LOAD      ACCESS:    2432553  HIT:    2275604  MISS:     156949
LLC RFO       ACCESS:    2897786  HIT:    1395065  MISS:    1502721
LLC PREFETCH  ACCESS:    3020567  HIT:    1476427  MISS:    1544140
LLC WRITEBACK ACCESS:    3685167  HIT:    3668230  MISS:      16937

CPU 4 cumulative IPC: 0.929166 instructions: 580647908 cycles: 624913245
L1D TOTAL     ACCESS:  142867023  HIT:  132705463  MISS:   10161560
L1D LOAD      ACCESS:  120627237  HIT:  112153708  MISS:    8473529
L1D RFO       ACCESS:   22239786  HIT:   20551755  MISS:    1688031
L1D PREFETCH  ACCESS:          0  HIT:          0  MISS:          0
L1D WRITEBACK ACCESS:          0  HIT:          0  MISS:          0
L1I TOTAL     ACCESS:  155234184  HIT:  155217482  MISS:      16702
L1I LOAD      ACCESS:  155234184  HIT:  155217482  MISS:      16702
L1I RFO       ACCESS:          0  HIT:          0  MISS:          0
L1I PREFETCH  ACCESS:          0  HIT:          0  MISS:          0
L1I WRITEBACK ACCESS:          0  HIT:          0  MISS:          0
L2C TOTAL     ACCESS:   18737925  HIT:   11160342  MISS:    7577583
L2C LOAD      ACCESS:    8489873  HIT:    7283970  MISS:    1205903
L2C RFO       ACCESS:    1687987  HIT:     375365  MISS:    1312622
L2C PREFETCH  ACCESS:    5090745  HIT:      40492  MISS:    5050253
L2C WRITEBACK ACCESS:    3469320  HIT:    3460515  MISS:       8805

L2C DA-AMPM prefetcher final stats
LLC TOTAL     ACCESS:   10454595  HIT:    4570156  MISS:    5884439
LLC LOAD      ACCESS:     787729  HIT:     291712  MISS:     496017
LLC RFO       ACCESS:    1305058  HIT:     192210  MISS:    1112848
LLC PREFETCH  ACCESS:    5475969  HIT:    1217453  MISS:    4258516
LLC WRITEBACK ACCESS:    2885839  HIT:    2868781  MISS:      17058

CPU 5 cumulative IPC: 0.189201 instructions: 118234089 cycles: 624913245
L1D TOTAL     ACCESS:   48706103  HIT:   44218096  MISS:    4488007
L1D LOAD      ACCESS:   36799507  HIT:   32353527  MISS:    4445980
L1D RFO       ACCESS:   11906596  HIT:   11864569  MISS:      42027
L1D PREFETCH  ACCESS:          0  HIT:          0  MISS:          0
L1D WRITEBACK ACCESS:          0  HIT:          0  MISS:          0
L1I TOTAL     ACCESS:   25620694  HIT:   25620694  MISS:          0
L1I LOAD      ACCESS:   25620694  HIT:   25620694  MISS:          0
L1I RFO       ACCESS:          0  HIT:          0  MISS:          0
L1I PREFETCH  ACCESS:          0  HIT:          0  MISS:          0
L1I WRITEBACK ACCESS:          0  HIT:          0  MISS:          0
L2C TOTAL     ACCESS:    5278291  HIT:    1963744  MISS:    3314547
L2C LOAD      ACCESS:    4445972  HIT:    1553883  MISS:    2892089
L2C RFO       ACCESS:      42022  HIT:      34047  MISS:       7975
L2C PREFETCH  ACCESS:     468334  HIT:      54560  MISS:     413774
L2C WRITEBACK ACCESS:     321963  HIT:     321254  MISS:        709

L2C DA-AMPM prefetcher final stats
LLC TOTAL     ACCESS:    3524978  HIT:    1109771  MISS:    2415207
LLC LOAD      ACCESS:    2887558  HIT:     799444  MISS:    2088114
LLC RFO       ACCESS:       7964  HIT:       5265  MISS:       2699
LLC PREFETCH  ACCESS:     418313  HIT:      96144  MISS:     322169
LLC WRITEBACK ACCESS:     211143  HIT:     208918  MISS:       2225

CPU 6 cumulative IPC: 1.1165 instructions: 697713918 cycles: 624913245
L1D TOTAL     ACCESS:  266158389  HIT:  251676995  MISS:   14481394
L1D LOAD      ACCESS:  227703935  HIT:  213656710  MISS:   14047225
L1D RFO       ACCESS:   38454454  HIT:   38020285  MISS:     434169
L1D PREFETCH  ACCESS:          0  HIT:          0  MISS:          0
L1D WRITEBACK ACCESS:          0  HIT:          0  MISS:          0
L1I TOTAL     ACCESS:  171690482  HIT:  171690482  MISS:          0
L1I LOAD      ACCESS:  171690482  HIT:  171690482  MISS:          0
L1I RFO       ACCESS:          0  HIT:          0  MISS:          0
L1I PREFETCH  ACCESS:          0  HIT:          0  MISS:          0
L1I WRITEBACK ACCESS:          0  HIT:          0  MISS:          0
L2C TOTAL     ACCESS:   26617929  HIT:   13309140  MISS:   13308789
L2C LOAD      ACCESS:   14042868  HIT:   12751654  MISS:    1291214
L2C RFO       ACCESS:     425715  HIT:      85758  MISS:     339957
L2C PREFETCH  ACCESS:   11675095  HIT:       1045  MISS:   11674050
L2C WRITEBACK ACCESS:     474251  HIT:     470683  MISS:       3568

L2C DA-AMPM prefetcher final stats
LLC TOTAL     ACCESS:   13649169  HIT:     390070  MISS:   13259099
LLC LOAD      ACCESS:     853165  HIT:      46778  MISS:     806387
LLC RFO       ACCESS:     339957  HIT:          0  MISS:     339957
LLC PREFETCH  ACCESS:   12112098  HIT:          0  MISS:   12112098
LLC WRITEBACK ACCESS:     343949  HIT:     343292  MISS:        657

CPU 7 cumulative IPC: 0.160022 instructions: 100000001 cycles: 624913245
L1D TOTAL     ACCESS:   19652023  HIT:   14184467  MISS:    5467556
L1D LOAD      ACCESS:   15217650  HIT:   10027352  MISS:    5190298
L1D RFO       ACCESS:    4434373  HIT:    4157115  MISS:     277258
L1D PREFETCH  ACCESS:          0  HIT:          0  MISS:          0
L1D WRITEBACK ACCESS:          0  HIT:          0  MISS:          0
L1I TOTAL     ACCESS:   25371488  HIT:   25371488  MISS:          0
L1I LOAD      ACCESS:   25371488  HIT:   25371488  MISS:          0
L1I RFO       ACCESS:          0  HIT:          0  MISS:          0
L1I PREFETCH  ACCESS:          0  HIT:          0  MISS:          0
L1I WRITEBACK ACCESS:          0  HIT:          0  MISS:          0
L2C TOTAL     ACCESS:    8678550  HIT:    4933008  MISS:    3745542
L2C LOAD      ACCESS:    5190298  HIT:    1894567  MISS:    3295731
L2C RFO       ACCESS:     277258  HIT:      43941  MISS:     233317
L2C PREFETCH  ACCESS:     993701  HIT:     777207  MISS:     216494
L2C WRITEBACK ACCESS:    2217293  HIT:    2217293  MISS:          0

L2C DA-AMPM prefetcher final stats
LLC TOTAL     ACCESS:    5963606  HIT:    3371914  MISS:    2591692
LLC LOAD      ACCESS:    3293238  HIT:     744114  MISS:    2549124
LLC RFO       ACCESS:     233317  HIT:     233312  MISS:          5
LLC PREFETCH  ACCESS:     218986  HIT:     177445  MISS:      41541
LLC WRITEBACK ACCESS:    2218065  HIT:    2217043  MISS:       1022

Region of Interest Statistics

CPU 0 cumulative IPC: 0.343467 instructions: 100000000 cycles: 291149150
L1D TOTAL     ACCESS:   27168815  HIT:   21976026  MISS:    5192789
L1D LOAD      ACCESS:   18971941  HIT:   13947364  MISS:    5024577
L1D RFO       ACCESS:    8196874  HIT:    8028662  MISS:     168212
L1D PREFETCH  ACCESS:          0  HIT:          0  MISS:          0
L1D WRITEBACK ACCESS:          0  HIT:          0  MISS:          0
L1D PREFETCH  REQUESTED:          0  ISSUED:          0  USEFUL:          0  USELESS:          0
L1I TOTAL     ACCESS:   42897985  HIT:   42596825  MISS:     301160
L1I LOAD      ACCESS:   42897985  HIT:   42596825  MISS:     301160
L1I RFO       ACCESS:          0  HIT:          0  MISS:          0
L1I PREFETCH  ACCESS:          0  HIT:          0  MISS:          0
L1I WRITEBACK ACCESS:          0  HIT:          0  MISS:          0
L1I PREFETCH  REQUESTED:          0  ISSUED:          0  USEFUL:          0  USELESS:          0
L2C TOTAL     ACCESS:    6643508  HIT:    3753099  MISS:    2890409
L2C LOAD      ACCESS:    5325714  HIT:    2974848  MISS:    2350866
L2C RFO       ACCESS:     168206  HIT:      32460  MISS:     135746
L2C PREFETCH  ACCESS:     877952  HIT:     474220  MISS:     403732
L2C WRITEBACK ACCESS:     271636  HIT:     271571  MISS:         65
L2C PREFETCH  REQUESTED:    2306349  ISSUED:    2306349  USEFUL:     321627  USELESS:     676054
LLC TOTAL     ACCESS:    3082767  HIT:    2846317  MISS:     236450
LLC LOAD      ACCESS:    2334024  HIT:    2262197  MISS:      71827
LLC RFO       ACCESS:     135462  HIT:      12768  MISS:     122694
LLC PREFETCH  ACCESS:     420854  HIT:     391507  MISS:      29347
LLC WRITEBACK ACCESS:     192427  HIT:     179845  MISS:      12582
LLC PREFETCH  REQUESTED:          0  ISSUED:          0  USEFUL:     893653  USELESS:   33032961
Major fault: 0 Minor fault: 3987

CPU 1 cumulative IPC: 0.337048 instructions: 100000000 cycles: 296693769
L1D TOTAL     ACCESS:   49606465  HIT:   46882874  MISS:    2723591
L1D LOAD      ACCESS:   21791007  HIT:   19311580  MISS:    2479427
L1D RFO       ACCESS:   27815458  HIT:   27571294  MISS:     244164
L1D PREFETCH  ACCESS:          0  HIT:          0  MISS:          0
L1D WRITEBACK ACCESS:          0  HIT:          0  MISS:          0
L1D PREFETCH  REQUESTED:          0  ISSUED:          0  USEFUL:          0  USELESS:          0
L1I TOTAL     ACCESS:   32288535  HIT:   32288535  MISS:          0
L1I LOAD      ACCESS:   32288535  HIT:   32288535  MISS:          0
L1I RFO       ACCESS:          0  HIT:          0  MISS:          0
L1I PREFETCH  ACCESS:          0  HIT:          0  MISS:          0
L1I WRITEBACK ACCESS:          0  HIT:          0  MISS:          0
L1I PREFETCH  REQUESTED:          0  ISSUED:          0  USEFUL:          0  USELESS:          0
L2C TOTAL     ACCESS:    5674475  HIT:    2117729  MISS:    3556746
L2C LOAD      ACCESS:    2479417  HIT:    1427645  MISS:    1051772
L2C RFO       ACCESS:     244155  HIT:      22815  MISS:     221340
L2C PREFETCH  ACCESS:    2286270  HIT:       6162  MISS:    2280108
L2C WRITEBACK ACCESS:     664633  HIT:     661107  MISS:       3526
L2C PREFETCH  REQUESTED:    6049676  ISSUED:    6049675  USEFUL:    3198233  USELESS:    2077828
LLC TOTAL     ACCESS:    4158919  HIT:     638452  MISS:    3520467
LLC LOAD      ACCESS:     747355  HIT:      22785  MISS:     724570
LLC RFO       ACCESS:     220001  HIT:        962  MISS:     219039
LLC PREFETCH  ACCESS:    2585864  HIT:       9799  MISS:    2576065
LLC WRITEBACK ACCESS:     605699  HIT:     604906  MISS:        793
LLC PREFETCH  REQUESTED:          0  ISSUED:          0  USEFUL:     893653  USELESS:   33032961
Major fault: 0 Minor fault: 57279

CPU 2 cumulative IPC: 0.174038 instructions: 100000000 cycles: 574586832
L1D TOTAL     ACCESS:   17917974  HIT:   10681989  MISS:    7235985
L1D LOAD      ACCESS:   16434904  HIT:    9201715  MISS:    7233189
L1D RFO       ACCESS:    1483070  HIT:    1480274  MISS:       2796
L1D PREFETCH  ACCESS:          0  HIT:          0  MISS:          0
L1D WRITEBACK ACCESS:          0  HIT:          0  MISS:          0
L1D PREFETCH  REQUESTED:          0  ISSUED:          0  USEFUL:          0  USELESS:          0
L1I TOTAL     ACCESS:   36441509  HIT:   36441484  MISS:         25
L1I LOAD      ACCESS:   36441509  HIT:   36441484  MISS:         25
L1I RFO       ACCESS:          0  HIT:          0  MISS:          0
L1I PREFETCH  ACCESS:          0  HIT:          0  MISS:          0
L1I WRITEBACK ACCESS:          0  HIT:          0  MISS:          0
L1I PREFETCH  REQUESTED:          0  ISSUED:          0  USEFUL:          0  USELESS:          0
L2C TOTAL     ACCESS:   12974487  HIT:    5818704  MISS:    7155783
L2C LOAD      ACCESS:    7233214  HIT:    5734097  MISS:    1499117
L2C RFO       ACCESS:       2796  HIT:        423  MISS:       2373
L2C PREFETCH  ACCESS:    5713011  HIT:      58718  MISS:    5654293
L2C WRITEBACK ACCESS:      25466  HIT:      25466  MISS:          0
L2C PREFETCH  REQUESTED:    9151427  ISSUED:    9151427  USEFUL:    7704565  USELESS:     223215
LLC TOTAL     ACCESS:    7167075  HIT:      19072  MISS:    7148003
LLC LOAD      ACCESS:     596272  HIT:       7547  MISS:     588725
LLC RFO       ACCESS:       2324  HIT:         79  MISS:       2245
LLC PREFETCH  ACCESS:    6557187  HIT:        162  MISS:    6557025
LLC WRITEBACK ACCESS:      11292  HIT:      11284  MISS:          8
LLC PREFETCH  REQUESTED:          0  ISSUED:          0  USEFUL:     893653  USELESS:   33032961
Major fault: 0 Minor fault: 48146

CPU 3 cumulative IPC: 1.00235 instructions: 100000003 cycles: 99765246
L1D TOTAL     ACCESS:   14737631  HIT:   12894780  MISS:    1842851
L1D LOAD      ACCESS:   10269862  HIT:    8991345  MISS:    1278517
L1D RFO       ACCESS:    4467769  HIT:    3903435  MISS:     564334
L1D PREFETCH  ACCESS:          0  HIT:          0  MISS:          0
L1D WRITEBACK ACCESS:          0  HIT:          0  MISS:          0
L1D PREFETCH  REQUESTED:          0  ISSUED:          0  USEFUL:          0  USELESS:          0
L1I TOTAL     ACCESS:   21207103  HIT:   21204674  MISS:       2429
L1I LOAD      ACCESS:   21207103  HIT:   21204674  MISS:       2429
L1I RFO       ACCESS:          0  HIT:          0  MISS:          0
L1I PREFETCH  ACCESS:          0  HIT:          0  MISS:          0
L1I WRITEBACK ACCESS:          0  HIT:          0  MISS:          0
L1I PREFETCH  REQUESTED:          0  ISSUED:          0  USEFUL:          0  USELESS:          0
L2C TOTAL     ACCESS:    3265643  HIT:    1615659  MISS:    1649984
L2C LOAD      ACCESS:    1280946  HIT:     725920  MISS:     555026
L2C RFO       ACCESS:     564334  HIT:      12473  MISS:     551861
L2C PREFETCH  ACCESS:     631634  HIT:      90866  MISS:     540768
L2C WRITEBACK ACCESS:     788729  HIT:     786400  MISS:       2329
L2C PREFETCH  REQUESTED:    3791232  ISSUED:    3778033  USEFUL:    2871603  USELESS:     113541
LLC TOTAL     ACCESS:    2375787  HIT:    1869561  MISS:     506226
LLC LOAD      ACCESS:     516442  HIT:     493721  MISS:      22721
LLC RFO       ACCESS:     551806  HIT:     273691  MISS:     278115
LLC PREFETCH  ACCESS:     579401  HIT:     374092  MISS:     205309
LLC WRITEBACK ACCESS:     728138  HIT:     728057  MISS:         81
LLC PREFETCH  REQUESTED:          0  ISSUED:          0  USEFUL:     893653  USELESS:   33032961
Major fault: 0 Minor fault: 14759

CPU 4 cumulative IPC: 1.0321 instructions: 100000000 cycles: 96889617
L1D TOTAL     ACCESS:   23406349  HIT:   22141012  MISS:    1265337
L1D LOAD      ACCESS:   20122093  HIT:   19112258  MISS:    1009835
L1D RFO       ACCESS:    3284256  HIT:    3028754  MISS:     255502
L1D PREFETCH  ACCESS:          0  HIT:          0  MISS:          0
L1D WRITEBACK ACCESS:          0  HIT:          0  MISS:          0
L1D PREFETCH  REQUESTED:          0  ISSUED:          0  USEFUL:          0  USELESS:          0
L1I TOTAL     ACCESS:   27654963  HIT:   27652836  MISS:       2127
L1I LOAD      ACCESS:   27654963  HIT:   27652836  MISS:       2127
L1I RFO       ACCESS:          0  HIT:          0  MISS:          0
L1I PREFETCH  ACCESS:          0  HIT:          0  MISS:          0
L1I WRITEBACK ACCESS:          0  HIT:          0  MISS:          0
L1I PREFETCH  REQUESTED:          0  ISSUED:          0  USEFUL:          0  USELESS:          0
L2C TOTAL     ACCESS:    2332387  HIT:    1416305  MISS:     916082
L2C LOAD      ACCESS:    1011931  HIT:     914642  MISS:      97289
L2C RFO       ACCESS:     255502  HIT:      25613  MISS:     229889
L2C PREFETCH  ACCESS:     590205  HIT:       2937  MISS:     587268
L2C WRITEBACK ACCESS:     474749  HIT:     473113  MISS:       1636
L2C PREFETCH  REQUESTED:    6343288  ISSUED:    6106857  USEFUL:    5168307  USELESS:     329726
LLC TOTAL     ACCESS:    1357086  HIT:     718039  MISS:     639047
LLC LOAD      ACCESS:      64660  HIT:      23259  MISS:      41401
LLC RFO       ACCESS:     229889  HIT:      68667  MISS:     161222
LLC PREFETCH  ACCESS:     619897  HIT:     186489  MISS:     433408
LLC WRITEBACK ACCESS:     442640  HIT:     439624  MISS:       3016
LLC PREFETCH  REQUESTED:          0  ISSUED:          0  USEFUL:     893653  USELESS:   33032961
Major fault: 0 Minor fault: 10908

CPU 5 cumulative IPC: 0.197247 instructions: 100000001 cycles: 506978352
L1D TOTAL     ACCESS:   41135617  HIT:   37402501  MISS:    3733116
L1D LOAD      ACCESS:   31022838  HIT:   27325557  MISS:    3697281
L1D RFO       ACCESS:   10112779  HIT:   10076944  MISS:      35835
L1D PREFETCH  ACCESS:          0  HIT:          0  MISS:          0
L1D WRITEBACK ACCESS:          0  HIT:          0  MISS:          0
L1D PREFETCH  REQUESTED:          0  ISSUED:          0  USEFUL:          0  USELESS:          0
L1I TOTAL     ACCESS:   21614259  HIT:   21614259  MISS:          0
L1I LOAD      ACCESS:   21614259  HIT:   21614259  MISS:          0
L1I RFO       ACCESS:          0  HIT:          0  MISS:          0
L1I PREFETCH  ACCESS:          0  HIT:          0  MISS:          0
L1I WRITEBACK ACCESS:          0  HIT:          0  MISS:          0
L1I PREFETCH  REQUESTED:          0  ISSUED:          0  USEFUL:          0  USELESS:          0
L2C TOTAL     ACCESS:    4383217  HIT:    1662466  MISS:    2720751
L2C LOAD      ACCESS:    3697278  HIT:    1316301  MISS:    2380977
L2C RFO       ACCESS:      35832  HIT:      29095  MISS:       6737
L2C PREFETCH  ACCESS:     381061  HIT:      48639  MISS:     332422
L2C WRITEBACK ACCESS:     269046  HIT:     268431  MISS:        615
L2C PREFETCH  REQUESTED:     561957  ISSUED:     561957  USEFUL:     259129  USELESS:     216955
LLC TOTAL     ACCESS:    2894105  HIT:     950612  MISS:    1943493
LLC LOAD      ACCESS:    2377577  HIT:     685799  MISS:    1691778
LLC RFO       ACCESS:       6727  HIT:       4335  MISS:       2392
LLC PREFETCH  ACCESS:     335829  HIT:      88307  MISS:     247522
LLC WRITEBACK ACCESS:     173972  HIT:     172171  MISS:       1801
LLC PREFETCH  REQUESTED:          0  ISSUED:          0  USEFUL:     893653  USELESS:   33032961
Major fault: 0 Minor fault: 163202

CPU 6 cumulative IPC: 1.13638 instructions: 100000003 cycles: 87999016
L1D TOTAL     ACCESS:   38146568  HIT:   36070978  MISS:    2075590
L1D LOAD      ACCESS:   32636512  HIT:   30623145  MISS:    2013367
L1D RFO       ACCESS:    5510056  HIT:    5447833  MISS:      62223
L1D PREFETCH  ACCESS:          0  HIT:          0  MISS:          0
L1D WRITEBACK ACCESS:          0  HIT:          0  MISS:          0
L1D PREFETCH  REQUESTED:          0  ISSUED:          0  USEFUL:          0  USELESS:          0
L1I TOTAL     ACCESS:   24599973  HIT:   24599973  MISS:          0
L1I LOAD      ACCESS:   24599973  HIT:   24599973  MISS:          0
L1I RFO       ACCESS:          0  HIT:          0  MISS:          0
L1I PREFETCH  ACCESS:          0  HIT:          0  MISS:          0
L1I WRITEBACK ACCESS:          0  HIT:          0  MISS:          0
L1I PREFETCH  REQUESTED:          0  ISSUED:          0  USEFUL:          0  USELESS:          0
L2C TOTAL     ACCESS:    3822995  HIT:    1914135  MISS:    1908860
L2C LOAD      ACCESS:    2012753  HIT:    1834224  MISS:     178529
L2C RFO       ACCESS:      61038  HIT:      12314  MISS:      48724
L2C PREFETCH  ACCESS:    1681241  HIT:        111  MISS:    1681130
L2C WRITEBACK ACCESS:      67963  HIT:      67486  MISS:        477
L2C PREFETCH  REQUESTED:   14169940  ISSUED:   12645949  USEFUL:   12127650  USELESS:        247
LLC TOTAL     ACCESS:    1957654  HIT:      57369  MISS:    1900285
LLC LOAD      ACCESS:     119236  HIT:       8185  MISS:     111051
LLC RFO       ACCESS:      48724  HIT:          0  MISS:      48724
LLC PREFETCH  ACCESS:    1740423  HIT:          0  MISS:    1740423
LLC WRITEBACK ACCESS:      49271  HIT:      49184  MISS:         87
LLC PREFETCH  REQUESTED:          0  ISSUED:          0  USEFUL:     893653  USELESS:   33032961
Major fault: 0 Minor fault: 204106

CPU 7 cumulative IPC: 0.160022 instructions: 100000001 cycles: 624913245
L1D TOTAL     ACCESS:   19652023  HIT:   14184467  MISS:    5467556
L1D LOAD      ACCESS:   15217650  HIT:   10027352  MISS:    5190298
L1D RFO       ACCESS:    4434373  HIT:    4157115  MISS:     277258
L1D PREFETCH  ACCESS:          0  HIT:          0  MISS:          0
L1D WRITEBACK ACCESS:          0  HIT:          0  MISS:          0
L1D PREFETCH  REQUESTED:          0  ISSUED:          0  USEFUL:          0  USELESS:          0
L1I TOTAL     ACCESS:   25371488  HIT:   25371488  MISS:          0
L1I LOAD      ACCESS:   25371488  HIT:   25371488  MISS:          0
L1I RFO       ACCESS:          0  HIT:          0  MISS:          0
L1I PREFETCH  ACCESS:          0  HIT:          0  MISS:          0
L1I WRITEBACK ACCESS:          0  HIT:          0  MISS:          0
L1I PREFETCH  REQUESTED:          0  ISSUED:          0  USEFUL:          0  USELESS:          0
L2C TOTAL     ACCESS:    8678550  HIT:    4933008  MISS:    3745542
L2C LOAD      ACCESS:    5190298  HIT:    1894567  MISS:    3295731
L2C RFO       ACCESS:     277258  HIT:      43941  MISS:     233317
L2C PREFETCH  ACCESS:     993701  HIT:     777207  MISS:     216494
L2C WRITEBACK ACCESS:    2217293  HIT:    2217293  MISS:          0
L2C PREFETCH  REQUESTED:    1072212  ISSUED:    1072212  USEFUL:      63468  USELESS:     184033
LLC TOTAL     ACCESS:    5963606  HIT:    3371914  MISS:    2591692
LLC LOAD      ACCESS:    3293238  HIT:     744114  MISS:    2549124
LLC RFO       ACCESS:     233317  HIT:     233312  MISS:          5
LLC PREFETCH  ACCESS:     218986  HIT:     177445  MISS:      41541
LLC WRITEBACK ACCESS:    2218065  HIT:    2217043  MISS:       1022
LLC PREFETCH  REQUESTED:          0  ISSUED:          0  USEFUL:     893653  USELESS:   33032961
Major fault: 0 Minor fault: 56702

L2C DA-AMPM prefetcher final stats

L2C DA-AMPM prefetcher final stats

L2C DA-AMPM prefetcher final stats

L2C DA-AMPM prefetcher final stats

L2C DA-AMPM prefetcher final stats

L2C DA-AMPM prefetcher final stats

L2C DA-AMPM prefetcher final stats

L2C DA-AMPM prefetcher final stats

DRAM Statistics
 CHANNEL 0
 RQ ROW_BUFFER_HIT:   10315131  ROW_BUFFER_MISS:   11184967
 DBUS_CONGESTED:   39567754
 WQ ROW_BUFFER_HIT:     304117  ROW_BUFFER_MISS:    4053781  FULL:          0

 CHANNEL 1
 RQ ROW_BUFFER_HIT:   10269303  ROW_BUFFER_MISS:   11220581
 DBUS_CONGESTED:   39567754
 WQ ROW_BUFFER_HIT:     303277  ROW_BUFFER_MISS:    4052462  FULL:          0

 AVG_CONGESTED_CYCLE: 13
