
*** ChampSim Multicore Out-of-Order Simulator ***

Warmup Instructions: 20000000
Simulation Instructions: 100000000
Number of CPUs: 8
LLC sets: 16384
LLC ways: 16
Off-chip DRAM Size: 8192 MB Channels: 2 Width: 64-bit Data Rate: 1600 MT/s

CPU 0 runs /scratch/user/djimenez/champsim-traces/speccpu2017/xz/657.xz_s/657.xz_s-2302B.champsimtrace.xz
CPU 1 runs /scratch/user/djimenez/champsim-traces/speccpu2017/xz/605.mcf_s/605.mcf_s-472B.champsimtrace.xz
CPU 2 runs /scratch/user/djimenez/champsim-traces/speccpu2017/xz/628.pop2_s/628.pop2_s-17B.champsimtrace.xz
CPU 3 runs /scratch/user/djimenez/champsim-traces/speccpu2017/xz/605.mcf_s/605.mcf_s-665B.champsimtrace.xz
CPU 4 runs /scratch/user/djimenez/champsim-traces/speccpu2017/xz/649.fotonik3d_s/649.fotonik3d_s-10881B.champsimtrace.xz
CPU 5 runs /scratch/user/djimenez/champsim-traces/speccpu2017/xz/602.gcc_s/602.gcc_s-1850B.champsimtrace.xz
CPU 6 runs /scratch/user/djimenez/champsim-traces/speccpu2017/xz/649.fotonik3d_s/649.fotonik3d_s-1176B.champsimtrace.xz
CPU 7 runs /scratch/user/djimenez/champsim-traces/speccpu2017/xz/621.wrf_s/621.wrf_s-8065B.champsimtrace.xz
L2C DA-AMPM prefetcher
L2C DA-AMPM prefetcher
L2C DA-AMPM prefetcher
L2C DA-AMPM prefetcher
L2C DA-AMPM prefetcher
L2C DA-AMPM prefetcher
L2C DA-AMPM prefetcher
L2C DA-AMPM prefetcher
Heartbeat CPU 2 instructions: 10000002 cycles: 4121361 heartbeat IPC: 2.42638 cumulative IPC: 2.42638 (Simulation time: 0 hr 3 min 18 sec) 
Heartbeat CPU 6 instructions: 10000000 cycles: 4391018 heartbeat IPC: 2.27738 cumulative IPC: 2.27738 (Simulation time: 0 hr 3 min 30 sec) 
Heartbeat CPU 0 instructions: 10000002 cycles: 4457604 heartbeat IPC: 2.24336 cumulative IPC: 2.24336 (Simulation time: 0 hr 3 min 33 sec) 
Heartbeat CPU 7 instructions: 10000003 cycles: 4756427 heartbeat IPC: 2.10242 cumulative IPC: 2.10242 (Simulation time: 0 hr 3 min 48 sec) 
Heartbeat CPU 5 instructions: 10000001 cycles: 5586919 heartbeat IPC: 1.7899 cumulative IPC: 1.7899 (Simulation time: 0 hr 4 min 27 sec) 
Heartbeat CPU 3 instructions: 10000001 cycles: 6507770 heartbeat IPC: 1.53662 cumulative IPC: 1.53662 (Simulation time: 0 hr 5 min 11 sec) 
Heartbeat CPU 1 instructions: 10000000 cycles: 6691949 heartbeat IPC: 1.49433 cumulative IPC: 1.49433 (Simulation time: 0 hr 5 min 20 sec) 
Heartbeat CPU 2 instructions: 20000000 cycles: 8233554 heartbeat IPC: 2.43179 cumulative IPC: 2.42908 (Simulation time: 0 hr 6 min 33 sec) 
Heartbeat CPU 4 instructions: 10000001 cycles: 8413997 heartbeat IPC: 1.1885 cumulative IPC: 1.1885 (Simulation time: 0 hr 6 min 42 sec) 
Heartbeat CPU 6 instructions: 20000000 cycles: 8781354 heartbeat IPC: 2.27773 cumulative IPC: 2.27755 (Simulation time: 0 hr 6 min 59 sec) 
Heartbeat CPU 0 instructions: 20000000 cycles: 8881970 heartbeat IPC: 2.26021 cumulative IPC: 2.25175 (Simulation time: 0 hr 7 min 4 sec) 
Heartbeat CPU 7 instructions: 20000000 cycles: 9267320 heartbeat IPC: 2.21686 cumulative IPC: 2.15812 (Simulation time: 0 hr 7 min 22 sec) 
Heartbeat CPU 5 instructions: 20000000 cycles: 11174584 heartbeat IPC: 1.78966 cumulative IPC: 1.78978 (Simulation time: 0 hr 8 min 54 sec) 
Heartbeat CPU 2 instructions: 30000002 cycles: 12344756 heartbeat IPC: 2.43238 cumulative IPC: 0.810061 (Simulation time: 0 hr 9 min 53 sec) 
Heartbeat CPU 3 instructions: 20000000 cycles: 13003142 heartbeat IPC: 1.53956 cumulative IPC: 1.53809 (Simulation time: 0 hr 10 min 24 sec) 
Heartbeat CPU 1 instructions: 20000000 cycles: 13024259 heartbeat IPC: 1.5792 cumulative IPC: 1.5356 (Simulation time: 0 hr 10 min 25 sec) 
Heartbeat CPU 6 instructions: 30000002 cycles: 13173057 heartbeat IPC: 2.27702 cumulative IPC: 0.759125 (Simulation time: 0 hr 10 min 32 sec) 
Heartbeat CPU 0 instructions: 30000003 cycles: 13399694 heartbeat IPC: 2.2135 cumulative IPC: 0.746286 (Simulation time: 0 hr 10 min 43 sec) 
Heartbeat CPU 7 instructions: 30000000 cycles: 13671513 heartbeat IPC: 2.27056 cumulative IPC: 0.731448 (Simulation time: 0 hr 10 min 56 sec) 
Heartbeat CPU 2 instructions: 40000000 cycles: 16454828 heartbeat IPC: 2.43305 cumulative IPC: 1.21545 (Simulation time: 0 hr 13 min 19 sec) 
Heartbeat CPU 5 instructions: 30000003 cycles: 16761516 heartbeat IPC: 1.78989 cumulative IPC: 0.596605 (Simulation time: 0 hr 13 min 34 sec) 
Heartbeat CPU 4 instructions: 20000000 cycles: 16798701 heartbeat IPC: 1.19265 cumulative IPC: 1.19057 (Simulation time: 0 hr 13 min 35 sec) 

Warmup complete CPU 0 instructions: 37567277 cycles: 16798720 (Simulation time: 0 hr 13 min 35 sec) 
Warmup complete CPU 1 instructions: 26413359 cycles: 16798720 (Simulation time: 0 hr 13 min 35 sec) 
Warmup complete CPU 2 instructions: 40846240 cycles: 16798720 (Simulation time: 0 hr 13 min 35 sec) 
Warmup complete CPU 3 instructions: 25847005 cycles: 16798720 (Simulation time: 0 hr 13 min 35 sec) 
Warmup complete CPU 4 instructions: 20000001 cycles: 16798720 (Simulation time: 0 hr 13 min 35 sec) 
Warmup complete CPU 5 instructions: 30066461 cycles: 16798719 (Simulation time: 0 hr 13 min 35 sec) 
Warmup complete CPU 6 instructions: 38255794 cycles: 16798719 (Simulation time: 0 hr 13 min 35 sec) 
Warmup complete CPU 7 instructions: 36555043 cycles: 16798719 (Simulation time: 0 hr 13 min 35 sec) 

Heartbeat CPU 6 instructions: 40000000 cycles: 18779516 heartbeat IPC: 1.78366 cumulative IPC: 0.880558 (Simulation time: 0 hr 14 min 19 sec) 
Heartbeat CPU 7 instructions: 40000000 cycles: 19488909 heartbeat IPC: 1.71898 cumulative IPC: 1.28056 (Simulation time: 0 hr 14 min 35 sec) 
Heartbeat CPU 0 instructions: 40000000 cycles: 21248872 heartbeat IPC: 1.27402 cumulative IPC: 0.546661 (Simulation time: 0 hr 15 min 16 sec) 
Heartbeat CPU 2 instructions: 50000001 cycles: 24943772 heartbeat IPC: 1.178 cumulative IPC: 1.12384 (Simulation time: 0 hr 16 min 40 sec) 
Heartbeat CPU 1 instructions: 30000002 cycles: 25751465 heartbeat IPC: 0.785719 cumulative IPC: 0.400619 (Simulation time: 0 hr 16 min 57 sec) 
Heartbeat CPU 7 instructions: 50000003 cycles: 27728039 heartbeat IPC: 1.21372 cumulative IPC: 1.23017 (Simulation time: 0 hr 17 min 39 sec) 
Heartbeat CPU 6 instructions: 50000001 cycles: 30090828 heartbeat IPC: 0.884071 cumulative IPC: 0.883547 (Simulation time: 0 hr 18 min 30 sec) 
Heartbeat CPU 3 instructions: 30000001 cycles: 31155764 heartbeat IPC: 0.550885 cumulative IPC: 0.289265 (Simulation time: 0 hr 18 min 54 sec) 
Heartbeat CPU 2 instructions: 60000000 cycles: 34018673 heartbeat IPC: 1.10194 cumulative IPC: 1.1123 (Simulation time: 0 hr 19 min 54 sec) 
Heartbeat CPU 7 instructions: 60000000 cycles: 36133850 heartbeat IPC: 1.18965 cumulative IPC: 1.21256 (Simulation time: 0 hr 20 min 38 sec) 
Heartbeat CPU 0 instructions: 50000003 cycles: 40979185 heartbeat IPC: 0.506835 cumulative IPC: 0.514164 (Simulation time: 0 hr 22 min 28 sec) 
Heartbeat CPU 6 instructions: 60000000 cycles: 41582633 heartbeat IPC: 0.870185 cumulative IPC: 0.877352 (Simulation time: 0 hr 22 min 42 sec) 
Heartbeat CPU 2 instructions: 70000002 cycles: 42684624 heartbeat IPC: 1.15394 cumulative IPC: 1.12624 (Simulation time: 0 hr 23 min 7 sec) 
Heartbeat CPU 7 instructions: 70000001 cycles: 43741221 heartbeat IPC: 1.31451 cumulative IPC: 1.24135 (Simulation time: 0 hr 23 min 29 sec) 
Heartbeat CPU 5 instructions: 40000000 cycles: 46101629 heartbeat IPC: 0.34083 cumulative IPC: 0.338995 (Simulation time: 0 hr 24 min 16 sec) 
Heartbeat CPU 4 instructions: 30000000 cycles: 46237325 heartbeat IPC: 0.33969 cumulative IPC: 0.33969 (Simulation time: 0 hr 24 min 19 sec) 
Heartbeat CPU 2 instructions: 80000000 cycles: 50522478 heartbeat IPC: 1.27586 cumulative IPC: 1.16101 (Simulation time: 0 hr 25 min 52 sec) 
Heartbeat CPU 7 instructions: 80000000 cycles: 53072840 heartbeat IPC: 1.07163 cumulative IPC: 1.19768 (Simulation time: 0 hr 26 min 41 sec) 
Heartbeat CPU 6 instructions: 70000000 cycles: 53765518 heartbeat IPC: 0.820824 cumulative IPC: 0.858722 (Simulation time: 0 hr 26 min 56 sec) 
Heartbeat CPU 1 instructions: 40000000 cycles: 58173052 heartbeat IPC: 0.308436 cumulative IPC: 0.328383 (Simulation time: 0 hr 28 min 31 sec) 
Heartbeat CPU 2 instructions: 90000002 cycles: 60419001 heartbeat IPC: 1.01046 cumulative IPC: 1.12686 (Simulation time: 0 hr 29 min 21 sec) 
Heartbeat CPU 7 instructions: 90000003 cycles: 60767231 heartbeat IPC: 1.29965 cumulative IPC: 1.21553 (Simulation time: 0 hr 29 min 29 sec) 
Heartbeat CPU 0 instructions: 60000000 cycles: 61281883 heartbeat IPC: 0.492545 cumulative IPC: 0.504297 (Simulation time: 0 hr 29 min 40 sec) 
Heartbeat CPU 6 instructions: 80000000 cycles: 65265565 heartbeat IPC: 0.869562 cumulative IPC: 0.861294 (Simulation time: 0 hr 30 min 57 sec) 
Heartbeat CPU 3 instructions: 40000000 cycles: 67330416 heartbeat IPC: 0.276437 cumulative IPC: 0.280082 (Simulation time: 0 hr 31 min 46 sec) 
Heartbeat CPU 2 instructions: 100000000 cycles: 69796925 heartbeat IPC: 1.06633 cumulative IPC: 1.11615 (Simulation time: 0 hr 32 min 39 sec) 
Heartbeat CPU 7 instructions: 100000000 cycles: 69814778 heartbeat IPC: 1.10527 cumulative IPC: 1.19671 (Simulation time: 0 hr 32 min 40 sec) 
Heartbeat CPU 5 instructions: 50000003 cycles: 75737153 heartbeat IPC: 0.337433 cumulative IPC: 0.33821 (Simulation time: 0 hr 34 min 48 sec) 
Heartbeat CPU 6 instructions: 90000001 cycles: 77024793 heartbeat IPC: 0.850396 cumulative IPC: 0.859166 (Simulation time: 0 hr 35 min 14 sec) 
Heartbeat CPU 4 instructions: 40000000 cycles: 77428324 heartbeat IPC: 0.320605 cumulative IPC: 0.329872 (Simulation time: 0 hr 35 min 23 sec) 
Heartbeat CPU 7 instructions: 110000003 cycles: 77795088 heartbeat IPC: 1.25308 cumulative IPC: 1.20409 (Simulation time: 0 hr 35 min 30 sec) 
Heartbeat CPU 2 instructions: 110000001 cycles: 78397849 heartbeat IPC: 1.16267 cumulative IPC: 1.12264 (Simulation time: 0 hr 35 min 42 sec) 
Heartbeat CPU 0 instructions: 70000002 cycles: 80703397 heartbeat IPC: 0.514893 cumulative IPC: 0.507517 (Simulation time: 0 hr 36 min 30 sec) 
Heartbeat CPU 2 instructions: 120000000 cycles: 87451104 heartbeat IPC: 1.10458 cumulative IPC: 1.12033 (Simulation time: 0 hr 38 min 41 sec) 
Heartbeat CPU 6 instructions: 100000000 cycles: 89038792 heartbeat IPC: 0.832362 cumulative IPC: 0.854708 (Simulation time: 0 hr 39 min 13 sec) 
Heartbeat CPU 1 instructions: 50000000 cycles: 90042129 heartbeat IPC: 0.313784 cumulative IPC: 0.322031 (Simulation time: 0 hr 39 min 33 sec) 
Heartbeat CPU 7 instructions: 120000000 cycles: 91399275 heartbeat IPC: 0.735068 cumulative IPC: 1.11856 (Simulation time: 0 hr 40 min 3 sec) 
Heartbeat CPU 2 instructions: 130000001 cycles: 97092043 heartbeat IPC: 1.03724 cumulative IPC: 1.11035 (Simulation time: 0 hr 41 min 58 sec) 
Heartbeat CPU 0 instructions: 80000000 cycles: 100001532 heartbeat IPC: 0.518185 cumulative IPC: 0.509991 (Simulation time: 0 hr 42 min 57 sec) 
Heartbeat CPU 6 instructions: 110000001 cycles: 100292886 heartbeat IPC: 0.888566 cumulative IPC: 0.859272 (Simulation time: 0 hr 43 min 3 sec) 
Heartbeat CPU 3 instructions: 50000003 cycles: 102966682 heartbeat IPC: 0.280613 cumulative IPC: 0.280301 (Simulation time: 0 hr 43 min 56 sec) 
Heartbeat CPU 2 instructions: 140000000 cycles: 105353817 heartbeat IPC: 1.21039 cumulative IPC: 1.11968 (Simulation time: 0 hr 44 min 43 sec) 
Heartbeat CPU 5 instructions: 60000000 cycles: 105404159 heartbeat IPC: 0.337075 cumulative IPC: 0.33783 (Simulation time: 0 hr 44 min 44 sec) 
Finished CPU 2 instructions: 100000001 cycles: 89123272 cumulative IPC: 1.12204 (Simulation time: 0 hr 44 min 55 sec) 
Heartbeat CPU 7 instructions: 130000000 cycles: 106347435 heartbeat IPC: 0.668979 cumulative IPC: 1.04351 (Simulation time: 0 hr 45 min 4 sec) 
Heartbeat CPU 4 instructions: 50000001 cycles: 107606143 heartbeat IPC: 0.331369 cumulative IPC: 0.330369 (Simulation time: 0 hr 45 min 31 sec) 
Heartbeat CPU 6 instructions: 120000000 cycles: 111666127 heartbeat IPC: 0.879257 cumulative IPC: 0.861668 (Simulation time: 0 hr 46 min 52 sec) 
Heartbeat CPU 2 instructions: 150000001 cycles: 113387828 heartbeat IPC: 1.24471 cumulative IPC: 1.13008 (Simulation time: 0 hr 47 min 39 sec) 
Heartbeat CPU 1 instructions: 60000000 cycles: 115773881 heartbeat IPC: 0.388625 cumulative IPC: 0.339344 (Simulation time: 0 hr 48 min 41 sec) 
Finished CPU 7 instructions: 100000003 cycles: 99337818 cumulative IPC: 1.00667 (Simulation time: 0 hr 48 min 48 sec) 
Heartbeat CPU 0 instructions: 90000001 cycles: 119672296 heartbeat IPC: 0.508369 cumulative IPC: 0.509681 (Simulation time: 0 hr 49 min 57 sec) 
Heartbeat CPU 7 instructions: 140000000 cycles: 121293250 heartbeat IPC: 0.669084 cumulative IPC: 0.989956 (Simulation time: 0 hr 50 min 28 sec) 
Heartbeat CPU 2 instructions: 160000000 cycles: 122475276 heartbeat IPC: 1.10042 cumulative IPC: 1.12753 (Simulation time: 0 hr 50 min 53 sec) 
Heartbeat CPU 6 instructions: 130000003 cycles: 123009441 heartbeat IPC: 0.881577 cumulative IPC: 0.863794 (Simulation time: 0 hr 51 min 4 sec) 
Heartbeat CPU 2 instructions: 170000001 cycles: 132330725 heartbeat IPC: 1.01467 cumulative IPC: 1.1179 (Simulation time: 0 hr 54 min 18 sec) 
Finished CPU 6 instructions: 100000003 cycles: 115573004 cumulative IPC: 0.865254 (Simulation time: 0 hr 54 min 18 sec) 
Heartbeat CPU 5 instructions: 70000001 cycles: 134272454 heartbeat IPC: 0.346401 cumulative IPC: 0.339936 (Simulation time: 0 hr 54 min 59 sec) 
Heartbeat CPU 6 instructions: 140000000 cycles: 134274450 heartbeat IPC: 0.887704 cumulative IPC: 0.866087 (Simulation time: 0 hr 54 min 59 sec) 
Heartbeat CPU 4 instructions: 60000000 cycles: 135864404 heartbeat IPC: 0.353879 cumulative IPC: 0.335949 (Simulation time: 0 hr 55 min 29 sec) 
Heartbeat CPU 0 instructions: 100000000 cycles: 137618904 heartbeat IPC: 0.557208 cumulative IPC: 0.516741 (Simulation time: 0 hr 56 min 0 sec) 
Heartbeat CPU 7 instructions: 150000001 cycles: 137816959 heartbeat IPC: 0.605191 cumulative IPC: 0.93742 (Simulation time: 0 hr 56 min 3 sec) 
Heartbeat CPU 3 instructions: 60000000 cycles: 138170484 heartbeat IPC: 0.28406 cumulative IPC: 0.281392 (Simulation time: 0 hr 56 min 9 sec) 
Heartbeat CPU 2 instructions: 180000000 cycles: 142864904 heartbeat IPC: 0.949291 cumulative IPC: 1.10382 (Simulation time: 0 hr 57 min 40 sec) 
Heartbeat CPU 1 instructions: 70000002 cycles: 145151030 heartbeat IPC: 0.340401 cumulative IPC: 0.339586 (Simulation time: 0 hr 58 min 30 sec) 
Heartbeat CPU 6 instructions: 150000001 cycles: 146334265 heartbeat IPC: 0.8292 cumulative IPC: 0.862653 (Simulation time: 0 hr 58 min 56 sec) 
Heartbeat CPU 7 instructions: 160000000 cycles: 147310767 heartbeat IPC: 1.05332 cumulative IPC: 0.945851 (Simulation time: 0 hr 59 min 18 sec) 
Heartbeat CPU 2 instructions: 190000002 cycles: 152115083 heartbeat IPC: 1.08106 cumulative IPC: 1.10226 (Simulation time: 1 hr 0 min 49 sec) 
Heartbeat CPU 6 instructions: 160000000 cycles: 159043009 heartbeat IPC: 0.78686 cumulative IPC: 0.855881 (Simulation time: 1 hr 2 min 59 sec) 
Heartbeat CPU 0 instructions: 110000002 cycles: 159460021 heartbeat IPC: 0.457852 cumulative IPC: 0.507725 (Simulation time: 1 hr 3 min 8 sec) 
Heartbeat CPU 7 instructions: 170000002 cycles: 160676210 heartbeat IPC: 0.748198 cumulative IPC: 0.92749 (Simulation time: 1 hr 3 min 33 sec) 
Heartbeat CPU 2 instructions: 200000000 cycles: 161593448 heartbeat IPC: 1.05503 cumulative IPC: 1.09917 (Simulation time: 1 hr 3 min 52 sec) 
Heartbeat CPU 5 instructions: 80000000 cycles: 164905956 heartbeat IPC: 0.32644 cumulative IPC: 0.337144 (Simulation time: 1 hr 5 min 6 sec) 
Heartbeat CPU 7 instructions: 180000000 cycles: 169168676 heartbeat IPC: 1.17751 cumulative IPC: 0.941425 (Simulation time: 1 hr 6 min 35 sec) 
Heartbeat CPU 4 instructions: 70000001 cycles: 169371040 heartbeat IPC: 0.298448 cumulative IPC: 0.327713 (Simulation time: 1 hr 6 min 39 sec) 
Heartbeat CPU 2 instructions: 210000001 cycles: 170575584 heartbeat IPC: 1.11332 cumulative IPC: 1.09999 (Simulation time: 1 hr 7 min 4 sec) 
Heartbeat CPU 6 instructions: 170000002 cycles: 170595411 heartbeat IPC: 0.865621 cumulative IPC: 0.856613 (Simulation time: 1 hr 7 min 5 sec) 
Heartbeat CPU 3 instructions: 70000000 cycles: 175038898 heartbeat IPC: 0.271235 cumulative IPC: 0.279025 (Simulation time: 1 hr 8 min 44 sec) 
Heartbeat CPU 7 instructions: 190000001 cycles: 177459659 heartbeat IPC: 1.20613 cumulative IPC: 0.955086 (Simulation time: 1 hr 9 min 35 sec) 
Heartbeat CPU 2 instructions: 220000000 cycles: 179557236 heartbeat IPC: 1.11338 cumulative IPC: 1.10073 (Simulation time: 1 hr 10 min 20 sec) 
Heartbeat CPU 1 instructions: 80000000 cycles: 179639622 heartbeat IPC: 0.289951 cumulative IPC: 0.329074 (Simulation time: 1 hr 10 min 22 sec) 
Heartbeat CPU 0 instructions: 120000000 cycles: 180012101 heartbeat IPC: 0.486569 cumulative IPC: 0.505061 (Simulation time: 1 hr 10 min 31 sec) 
Heartbeat CPU 6 instructions: 180000000 cycles: 181927263 heartbeat IPC: 0.882468 cumulative IPC: 0.858387 (Simulation time: 1 hr 11 min 14 sec) 
Heartbeat CPU 7 instructions: 200000000 cycles: 186085768 heartbeat IPC: 1.15927 cumulative IPC: 0.96549 (Simulation time: 1 hr 12 min 48 sec) 
Heartbeat CPU 2 instructions: 230000003 cycles: 188580622 heartbeat IPC: 1.10823 cumulative IPC: 1.10113 (Simulation time: 1 hr 13 min 48 sec) 
Heartbeat CPU 6 instructions: 190000001 cycles: 193398288 heartbeat IPC: 0.871762 cumulative IPC: 0.859256 (Simulation time: 1 hr 15 min 47 sec) 
Heartbeat CPU 7 instructions: 210000003 cycles: 193907325 heartbeat IPC: 1.27852 cumulative IPC: 0.979314 (Simulation time: 1 hr 16 min 1 sec) 
Heartbeat CPU 5 instructions: 90000000 cycles: 194059595 heartbeat IPC: 0.34301 cumulative IPC: 0.338109 (Simulation time: 1 hr 16 min 5 sec) 
Heartbeat CPU 2 instructions: 240000000 cycles: 197481423 heartbeat IPC: 1.12349 cumulative IPC: 1.10223 (Simulation time: 1 hr 17 min 24 sec) 
Heartbeat CPU 4 instructions: 80000000 cycles: 198493838 heartbeat IPC: 0.343374 cumulative IPC: 0.330224 (Simulation time: 1 hr 17 min 49 sec) 
Heartbeat CPU 0 instructions: 130000000 cycles: 200382405 heartbeat IPC: 0.490911 cumulative IPC: 0.503491 (Simulation time: 1 hr 18 min 31 sec) 
Heartbeat CPU 7 instructions: 220000000 cycles: 202115161 heartbeat IPC: 1.21835 cumulative IPC: 0.989901 (Simulation time: 1 hr 19 min 11 sec) 
Heartbeat CPU 6 instructions: 200000000 cycles: 204717134 heartbeat IPC: 0.883482 cumulative IPC: 0.860715 (Simulation time: 1 hr 20 min 12 sec) 
Heartbeat CPU 2 instructions: 250000003 cycles: 206256128 heartbeat IPC: 1.13964 cumulative IPC: 1.10396 (Simulation time: 1 hr 20 min 45 sec) 
Heartbeat CPU 1 instructions: 90000000 cycles: 206299291 heartbeat IPC: 0.375098 cumulative IPC: 0.335549 (Simulation time: 1 hr 20 min 46 sec) 
Heartbeat CPU 3 instructions: 80000000 cycles: 210538028 heartbeat IPC: 0.281697 cumulative IPC: 0.279515 (Simulation time: 1 hr 22 min 7 sec) 
Heartbeat CPU 7 instructions: 230000000 cycles: 211084561 heartbeat IPC: 1.1149 cumulative IPC: 0.995672 (Simulation time: 1 hr 22 min 20 sec) 
Finished CPU 0 instructions: 100000000 cycles: 197063834 cumulative IPC: 0.50745 (Simulation time: 1 hr 23 min 15 sec) 
Heartbeat CPU 2 instructions: 260000000 cycles: 214259064 heartbeat IPC: 1.24954 cumulative IPC: 1.10986 (Simulation time: 1 hr 23 min 22 sec) 
Heartbeat CPU 6 instructions: 210000002 cycles: 216483213 heartbeat IPC: 0.849901 cumulative IPC: 0.860078 (Simulation time: 1 hr 24 min 1 sec) 
Heartbeat CPU 0 instructions: 140000000 cycles: 217521218 heartbeat IPC: 0.583471 cumulative IPC: 0.51032 (Simulation time: 1 hr 24 min 20 sec) 
Heartbeat CPU 7 instructions: 240000000 cycles: 220983746 heartbeat IPC: 1.01018 cumulative IPC: 0.996376 (Simulation time: 1 hr 25 min 25 sec) 
Heartbeat CPU 5 instructions: 100000000 cycles: 223500493 heartbeat IPC: 0.339664 cumulative IPC: 0.338331 (Simulation time: 1 hr 26 min 13 sec) 
Heartbeat CPU 2 instructions: 270000001 cycles: 224642697 heartbeat IPC: 0.963054 cumulative IPC: 1.10253 (Simulation time: 1 hr 26 min 35 sec) 
Heartbeat CPU 6 instructions: 220000000 cycles: 228098521 heartbeat IPC: 0.860933 cumulative IPC: 0.860125 (Simulation time: 1 hr 27 min 38 sec) 
Heartbeat CPU 4 instructions: 90000000 cycles: 228935074 heartbeat IPC: 0.328502 cumulative IPC: 0.329976 (Simulation time: 1 hr 27 min 53 sec) 
Heartbeat CPU 2 instructions: 280000000 cycles: 233809440 heartbeat IPC: 1.0909 cumulative IPC: 1.10204 (Simulation time: 1 hr 29 min 29 sec) 
Heartbeat CPU 7 instructions: 250000003 cycles: 234807905 heartbeat IPC: 0.723372 cumulative IPC: 0.979064 (Simulation time: 1 hr 29 min 49 sec) 
Heartbeat CPU 0 instructions: 150000000 cycles: 237776689 heartbeat IPC: 0.493694 cumulative IPC: 0.508796 (Simulation time: 1 hr 30 min 42 sec) 
Heartbeat CPU 1 instructions: 100000000 cycles: 239723715 heartbeat IPC: 0.299182 cumulative IPC: 0.330096 (Simulation time: 1 hr 31 min 15 sec) 
Heartbeat CPU 6 instructions: 230000002 cycles: 239956643 heartbeat IPC: 0.843304 cumulative IPC: 0.859231 (Simulation time: 1 hr 31 min 20 sec) 
Heartbeat CPU 2 instructions: 290000000 cycles: 242580875 heartbeat IPC: 1.14006 cumulative IPC: 1.10351 (Simulation time: 1 hr 32 min 8 sec) 
Heartbeat CPU 7 instructions: 260000000 cycles: 244303366 heartbeat IPC: 1.05313 cumulative IPC: 0.982156 (Simulation time: 1 hr 32 min 42 sec) 
Heartbeat CPU 3 instructions: 90000000 cycles: 248368653 heartbeat IPC: 0.264336 cumulative IPC: 0.277035 (Simulation time: 1 hr 33 min 52 sec) 
Heartbeat CPU 6 instructions: 240000000 cycles: 251999165 heartbeat IPC: 0.830391 cumulative IPC: 0.857754 (Simulation time: 1 hr 35 min 0 sec) 
Heartbeat CPU 2 instructions: 300000000 cycles: 251999907 heartbeat IPC: 1.06168 cumulative IPC: 1.10184 (Simulation time: 1 hr 35 min 0 sec) 
Heartbeat CPU 5 instructions: 110000002 cycles: 253461441 heartbeat IPC: 0.333768 cumulative IPC: 0.337753 (Simulation time: 1 hr 35 min 28 sec) 
Heartbeat CPU 7 instructions: 270000000 cycles: 253798806 heartbeat IPC: 1.05314 cumulative IPC: 0.984999 (Simulation time: 1 hr 35 min 34 sec) 
Heartbeat CPU 0 instructions: 160000000 cycles: 259562221 heartbeat IPC: 0.45902 cumulative IPC: 0.504329 (Simulation time: 1 hr 37 min 16 sec) 
Heartbeat CPU 4 instructions: 100000000 cycles: 261671550 heartbeat IPC: 0.30547 cumulative IPC: 0.3267 (Simulation time: 1 hr 37 min 54 sec) 
Heartbeat CPU 2 instructions: 310000000 cycles: 262201036 heartbeat IPC: 0.980284 cumulative IPC: 1.09679 (Simulation time: 1 hr 38 min 3 sec) 
Heartbeat CPU 6 instructions: 250000000 cycles: 264612074 heartbeat IPC: 0.792839 cumulative IPC: 0.85445 (Simulation time: 1 hr 38 min 40 sec) 
Heartbeat CPU 7 instructions: 280000000 cycles: 268838810 heartbeat IPC: 0.664893 cumulative IPC: 0.965898 (Simulation time: 1 hr 39 min 49 sec) 
Heartbeat CPU 2 instructions: 320000000 cycles: 272033224 heartbeat IPC: 1.01707 cumulative IPC: 1.09371 (Simulation time: 1 hr 40 min 49 sec) 
Heartbeat CPU 1 instructions: 110000002 cycles: 273057817 heartbeat IPC: 0.299993 cumulative IPC: 0.32618 (Simulation time: 1 hr 41 min 9 sec) 
Heartbeat CPU 0 instructions: 170000003 cycles: 276352756 heartbeat IPC: 0.595574 cumulative IPC: 0.510232 (Simulation time: 1 hr 42 min 8 sec) 
Heartbeat CPU 6 instructions: 260000000 cycles: 277282775 heartbeat IPC: 0.789222 cumulative IPC: 0.851277 (Simulation time: 1 hr 42 min 27 sec) 
Heartbeat CPU 2 instructions: 330000002 cycles: 280432902 heartbeat IPC: 1.19052 cumulative IPC: 1.0968 (Simulation time: 1 hr 43 min 39 sec) 
Heartbeat CPU 7 instructions: 290000001 cycles: 280653750 heartbeat IPC: 0.846386 cumulative IPC: 0.960546 (Simulation time: 1 hr 43 min 46 sec) 
Heartbeat CPU 5 instructions: 120000000 cycles: 284667767 heartbeat IPC: 0.320448 cumulative IPC: 0.335737 (Simulation time: 1 hr 45 min 16 sec) 
Heartbeat CPU 3 instructions: 100000000 cycles: 285657292 heartbeat IPC: 0.268178 cumulative IPC: 0.275807 (Simulation time: 1 hr 45 min 35 sec) 
Heartbeat CPU 0 instructions: 180000000 cycles: 289261899 heartbeat IPC: 0.774645 cumulative IPC: 0.52276 (Simulation time: 1 hr 46 min 48 sec) 
Heartbeat CPU 6 instructions: 270000000 cycles: 290006300 heartbeat IPC: 0.785946 cumulative IPC: 0.848235 (Simulation time: 1 hr 47 min 4 sec) 
Heartbeat CPU 2 instructions: 340000000 cycles: 290354122 heartbeat IPC: 1.00794 cumulative IPC: 1.09358 (Simulation time: 1 hr 47 min 12 sec) 
Heartbeat CPU 7 instructions: 300000000 cycles: 292193130 heartbeat IPC: 0.866598 cumulative IPC: 0.95661 (Simulation time: 1 hr 47 min 51 sec) 
Heartbeat CPU 4 instructions: 110000000 cycles: 295173806 heartbeat IPC: 0.298487 cumulative IPC: 0.323305 (Simulation time: 1 hr 48 min 55 sec) 
Heartbeat CPU 2 instructions: 350000000 cycles: 300269515 heartbeat IPC: 1.00853 cumulative IPC: 1.0906 (Simulation time: 1 hr 50 min 49 sec) 
Heartbeat CPU 0 instructions: 190000001 cycles: 302112675 heartbeat IPC: 0.778163 cumulative IPC: 0.534263 (Simulation time: 1 hr 51 min 23 sec) 
Heartbeat CPU 6 instructions: 280000000 cycles: 303063078 heartbeat IPC: 0.765886 cumulative IPC: 0.844479 (Simulation time: 1 hr 51 min 42 sec) 
Heartbeat CPU 7 instructions: 310000002 cycles: 305798073 heartbeat IPC: 0.735027 cumulative IPC: 0.946178 (Simulation time: 1 hr 52 min 38 sec) 
Heartbeat CPU 1 instructions: 120000000 cycles: 308708222 heartbeat IPC: 0.280502 cumulative IPC: 0.320602 (Simulation time: 1 hr 53 min 39 sec) 
Heartbeat CPU 2 instructions: 360000000 cycles: 310604231 heartbeat IPC: 0.967612 cumulative IPC: 1.08628 (Simulation time: 1 hr 54 min 21 sec) 
Heartbeat CPU 5 instructions: 130000002 cycles: 314682092 heartbeat IPC: 0.333174 cumulative IPC: 0.335479 (Simulation time: 1 hr 55 min 41 sec) 
Heartbeat CPU 6 instructions: 290000002 cycles: 314802534 heartbeat IPC: 0.851828 cumulative IPC: 0.844768 (Simulation time: 1 hr 55 min 43 sec) 
Finished CPU 5 instructions: 100000002 cycles: 298076652 cumulative IPC: 0.335484 (Simulation time: 1 hr 55 min 45 sec) 
Heartbeat CPU 0 instructions: 200000000 cycles: 315351654 heartbeat IPC: 0.755345 cumulative IPC: 0.544067 (Simulation time: 1 hr 55 min 55 sec) 
Heartbeat CPU 7 instructions: 320000000 cycles: 316461246 heartbeat IPC: 0.937807 cumulative IPC: 0.945881 (Simulation time: 1 hr 56 min 18 sec) 
Heartbeat CPU 2 instructions: 370000001 cycles: 319797988 heartbeat IPC: 1.08769 cumulative IPC: 1.08632 (Simulation time: 1 hr 57 min 34 sec) 
Heartbeat CPU 3 instructions: 110000000 cycles: 321662881 heartbeat IPC: 0.277735 cumulative IPC: 0.276034 (Simulation time: 1 hr 58 min 12 sec) 
Heartbeat CPU 6 instructions: 300000000 cycles: 326565906 heartbeat IPC: 0.850096 cumulative IPC: 0.844971 (Simulation time: 1 hr 59 min 47 sec) 
Heartbeat CPU 4 instructions: 120000000 cycles: 326900020 heartbeat IPC: 0.315197 cumulative IPC: 0.322475 (Simulation time: 1 hr 59 min 54 sec) 
Finished CPU 4 instructions: 100000000 cycles: 310101330 cumulative IPC: 0.322475 (Simulation time: 1 hr 59 min 54 sec) 
Heartbeat CPU 7 instructions: 330000000 cycles: 328070979 heartbeat IPC: 0.861346 cumulative IPC: 0.942728 (Simulation time: 2 hr 0 min 18 sec) 
Heartbeat CPU 0 instructions: 210000003 cycles: 328785100 heartbeat IPC: 0.744411 cumulative IPC: 0.552693 (Simulation time: 2 hr 0 min 32 sec) 
Heartbeat CPU 2 instructions: 380000000 cycles: 329043730 heartbeat IPC: 1.08158 cumulative IPC: 1.08618 (Simulation time: 2 hr 0 min 37 sec) 
Finished CPU 1 instructions: 100000003 cycles: 312513698 cumulative IPC: 0.319986 (Simulation time: 2 hr 0 min 43 sec) 
Heartbeat CPU 2 instructions: 390000003 cycles: 338331464 heartbeat IPC: 1.07669 cumulative IPC: 1.0859 (Simulation time: 2 hr 3 min 30 sec) 
Heartbeat CPU 6 instructions: 310000000 cycles: 338509328 heartbeat IPC: 0.837281 cumulative IPC: 0.844685 (Simulation time: 2 hr 3 min 33 sec) 
Heartbeat CPU 0 instructions: 220000000 cycles: 342858194 heartbeat IPC: 0.710576 cumulative IPC: 0.559507 (Simulation time: 2 hr 4 min 49 sec) 
Heartbeat CPU 7 instructions: 340000000 cycles: 343909110 heartbeat IPC: 0.631388 cumulative IPC: 0.927653 (Simulation time: 2 hr 5 min 11 sec) 
Heartbeat CPU 1 instructions: 130000002 cycles: 343926788 heartbeat IPC: 0.283941 cumulative IPC: 0.316655 (Simulation time: 2 hr 5 min 11 sec) 
Heartbeat CPU 5 instructions: 140000000 cycles: 344585641 heartbeat IPC: 0.334408 cumulative IPC: 0.335381 (Simulation time: 2 hr 5 min 25 sec) 
Heartbeat CPU 2 instructions: 400000000 cycles: 347584793 heartbeat IPC: 1.08069 cumulative IPC: 1.08576 (Simulation time: 2 hr 6 min 28 sec) 
Heartbeat CPU 6 instructions: 320000000 cycles: 350550291 heartbeat IPC: 0.830498 cumulative IPC: 0.844173 (Simulation time: 2 hr 7 min 25 sec) 
Heartbeat CPU 7 instructions: 350000002 cycles: 351544731 heartbeat IPC: 1.30965 cumulative IPC: 0.936366 (Simulation time: 2 hr 7 min 46 sec) 
Heartbeat CPU 2 instructions: 410000001 cycles: 356794801 heartbeat IPC: 1.08578 cumulative IPC: 1.08576 (Simulation time: 2 hr 9 min 28 sec) 
Heartbeat CPU 0 instructions: 230000002 cycles: 356956418 heartbeat IPC: 0.709309 cumulative IPC: 0.565716 (Simulation time: 2 hr 9 min 31 sec) 
Heartbeat CPU 3 instructions: 120000000 cycles: 358346077 heartbeat IPC: 0.272604 cumulative IPC: 0.275666 (Simulation time: 2 hr 9 min 56 sec) 
Heartbeat CPU 4 instructions: 130000001 cycles: 359084912 heartbeat IPC: 0.310705 cumulative IPC: 0.321368 (Simulation time: 2 hr 10 min 11 sec) 
Heartbeat CPU 7 instructions: 360000000 cycles: 361073904 heartbeat IPC: 1.04941 cumulative IPC: 0.939495 (Simulation time: 2 hr 10 min 51 sec) 
Heartbeat CPU 6 instructions: 330000000 cycles: 362203752 heartbeat IPC: 0.858114 cumulative IPC: 0.844644 (Simulation time: 2 hr 11 min 15 sec) 
Heartbeat CPU 2 instructions: 420000000 cycles: 365902963 heartbeat IPC: 1.09792 cumulative IPC: 1.08608 (Simulation time: 2 hr 12 min 34 sec) 
Heartbeat CPU 7 instructions: 370000003 cycles: 368922002 heartbeat IPC: 1.27419 cumulative IPC: 0.946955 (Simulation time: 2 hr 13 min 35 sec) 
Heartbeat CPU 0 instructions: 240000000 cycles: 371261818 heartbeat IPC: 0.699037 cumulative IPC: 0.571097 (Simulation time: 2 hr 14 min 21 sec) 
Heartbeat CPU 6 instructions: 340000000 cycles: 373565614 heartbeat IPC: 0.880137 cumulative IPC: 0.845774 (Simulation time: 2 hr 15 min 7 sec) 
Heartbeat CPU 5 instructions: 150000000 cycles: 373922848 heartbeat IPC: 0.340864 cumulative IPC: 0.335832 (Simulation time: 2 hr 15 min 15 sec) 
Heartbeat CPU 2 instructions: 430000003 cycles: 374834555 heartbeat IPC: 1.11962 cumulative IPC: 1.08691 (Simulation time: 2 hr 15 min 34 sec) 
Heartbeat CPU 1 instructions: 140000000 cycles: 375605272 heartbeat IPC: 0.315672 cumulative IPC: 0.316568 (Simulation time: 2 hr 15 min 50 sec) 
Heartbeat CPU 7 instructions: 380000000 cycles: 378080525 heartbeat IPC: 1.09188 cumulative IPC: 0.950629 (Simulation time: 2 hr 16 min 43 sec) 
Finished CPU 3 instructions: 100000001 cycles: 361928789 cumulative IPC: 0.276297 (Simulation time: 2 hr 16 min 58 sec) 

CPU 0 Branch Prediction Accuracy: 90.193% MPKI: 11.0845

CPU 1 Branch Prediction Accuracy: 98.5237% MPKI: 1.57761

CPU 2 Branch Prediction Accuracy: 97.7267% MPKI: 3.14634

CPU 3 Branch Prediction Accuracy: 89.9883% MPKI: 18.3483

CPU 4 Branch Prediction Accuracy: 99.9931% MPKI: 0.000832258

CPU 5 Branch Prediction Accuracy: 96.301% MPKI: 8.0207

CPU 6 Branch Prediction Accuracy: 99.8486% MPKI: 0.0267491

CPU 7 Branch Prediction Accuracy: 99.2686% MPKI: 0.344058

ChampSim completed all CPUs

Total Simulation Statistics (not including warmup)

CPU 0 cumulative IPC: 0.573698 instructions: 207637914 cycles: 361928789
L1D TOTAL     ACCESS:   48696158  HIT:   47363348  MISS:    1332810
L1D LOAD      ACCESS:   31133928  HIT:   29971814  MISS:    1162114
L1D RFO       ACCESS:   17562230  HIT:   17391534  MISS:     170696
L1D PREFETCH  ACCESS:          0  HIT:          0  MISS:          0
L1D WRITEBACK ACCESS:          0  HIT:          0  MISS:          0
L1I TOTAL     ACCESS:   41068315  HIT:   41067929  MISS:        386
L1I LOAD      ACCESS:   41068315  HIT:   41067929  MISS:        386
L1I RFO       ACCESS:          0  HIT:          0  MISS:          0
L1I PREFETCH  ACCESS:          0  HIT:          0  MISS:          0
L1I WRITEBACK ACCESS:          0  HIT:          0  MISS:          0
L2C TOTAL     ACCESS:    2335263  HIT:    1570790  MISS:     764473
L2C LOAD      ACCESS:    1162474  HIT:     545265  MISS:     617209
L2C RFO       ACCESS:     170639  HIT:     103574  MISS:      67065
L2C PREFETCH  ACCESS:     124482  HIT:      46966  MISS:      77516
L2C WRITEBACK ACCESS:     877668  HIT:     874985  MISS:       2683

L2C DA-AMPM prefetcher final stats
LLC TOTAL     ACCESS:    1268297  HIT:     684063  MISS:     584234
LLC LOAD      ACCESS:     616749  HIT:     165760  MISS:     450989
LLC RFO       ACCESS:      67050  HIT:      20863  MISS:      46187
LLC PREFETCH  ACCESS:      77988  HIT:      33738  MISS:      44250
LLC WRITEBACK ACCESS:     506510  HIT:     463702  MISS:      42808

CPU 1 cumulative IPC: 0.316132 instructions: 114417154 cycles: 361928789
L1D TOTAL     ACCESS:   55395564  HIT:   49894024  MISS:    5501540
L1D LOAD      ACCESS:   27589935  HIT:   22349813  MISS:    5240122
L1D RFO       ACCESS:   27805629  HIT:   27544211  MISS:     261418
L1D PREFETCH  ACCESS:          0  HIT:          0  MISS:          0
L1D WRITEBACK ACCESS:          0  HIT:          0  MISS:          0
L1I TOTAL     ACCESS:   37551787  HIT:   37551787  MISS:          0
L1I LOAD      ACCESS:   37551787  HIT:   37551787  MISS:          0
L1I RFO       ACCESS:          0  HIT:          0  MISS:          0
L1I PREFETCH  ACCESS:          0  HIT:          0  MISS:          0
L1I WRITEBACK ACCESS:          0  HIT:          0  MISS:          0
L2C TOTAL     ACCESS:   11123967  HIT:    3764359  MISS:    7359608
L2C LOAD      ACCESS:    5240100  HIT:    3093643  MISS:    2146457
L2C RFO       ACCESS:     261396  HIT:      27726  MISS:     233670
L2C PREFETCH  ACCESS:    4983550  HIT:      10723  MISS:    4972827
L2C WRITEBACK ACCESS:     638921  HIT:     632267  MISS:       6654

L2C DA-AMPM prefetcher final stats
LLC TOTAL     ACCESS:    7883285  HIT:    2823266  MISS:    5060019
LLC LOAD      ACCESS:    1445158  HIT:     502165  MISS:     942993
LLC RFO       ACCESS:     232338  HIT:       1856  MISS:     230482
LLC PREFETCH  ACCESS:    5675459  HIT:    1790035  MISS:    3885424
LLC WRITEBACK ACCESS:     530330  HIT:     529210  MISS:       1120

CPU 2 cumulative IPC: 1.09042 instructions: 394655173 cycles: 361928789
L1D TOTAL     ACCESS:   72811160  HIT:   65955616  MISS:    6855544
L1D LOAD      ACCESS:   51932578  HIT:   47363405  MISS:    4569173
L1D RFO       ACCESS:   20878582  HIT:   18592211  MISS:    2286371
L1D PREFETCH  ACCESS:          0  HIT:          0  MISS:          0
L1D WRITEBACK ACCESS:          0  HIT:          0  MISS:          0
L1I TOTAL     ACCESS:   94778903  HIT:   94562712  MISS:     216191
L1I LOAD      ACCESS:   94778903  HIT:   94562712  MISS:     216191
L1I RFO       ACCESS:          0  HIT:          0  MISS:          0
L1I PREFETCH  ACCESS:          0  HIT:          0  MISS:          0
L1I WRITEBACK ACCESS:          0  HIT:          0  MISS:          0
L2C TOTAL     ACCESS:   11919453  HIT:    8174517  MISS:    3744936
L2C LOAD      ACCESS:    4785027  HIT:    3820484  MISS:     964543
L2C RFO       ACCESS:    2286283  HIT:    1143125  MISS:    1143158
L2C PREFETCH  ACCESS:    1918658  HIT:     283880  MISS:    1634778
L2C WRITEBACK ACCESS:    2929485  HIT:    2927028  MISS:       2457

L2C DA-AMPM prefetcher final stats
LLC TOTAL     ACCESS:    5354572  HIT:    3901905  MISS:    1452667
LLC LOAD      ACCESS:     844529  HIT:     734791  MISS:     109738
LLC RFO       ACCESS:    1143135  HIT:     654499  MISS:     488636
LLC PREFETCH  ACCESS:    1754772  HIT:     918528  MISS:     836244
LLC WRITEBACK ACCESS:    1612136  HIT:    1594087  MISS:      18049

CPU 3 cumulative IPC: 0.276297 instructions: 100000001 cycles: 361928789
L1D TOTAL     ACCESS:   38960005  HIT:   34965410  MISS:    3994595
L1D LOAD      ACCESS:   27965285  HIT:   24363090  MISS:    3602195
L1D RFO       ACCESS:   10994720  HIT:   10602320  MISS:     392400
L1D PREFETCH  ACCESS:          0  HIT:          0  MISS:          0
L1D WRITEBACK ACCESS:          0  HIT:          0  MISS:          0
L1I TOTAL     ACCESS:   23879798  HIT:   23879798  MISS:          0
L1I LOAD      ACCESS:   23879798  HIT:   23879798  MISS:          0
L1I RFO       ACCESS:          0  HIT:          0  MISS:          0
L1I PREFETCH  ACCESS:          0  HIT:          0  MISS:          0
L1I WRITEBACK ACCESS:          0  HIT:          0  MISS:          0
L2C TOTAL     ACCESS:    5619930  HIT:    2482809  MISS:    3137121
L2C LOAD      ACCESS:    3602167  HIT:    1782352  MISS:    1819815
L2C RFO       ACCESS:     392386  HIT:      99322  MISS:     293064
L2C PREFETCH  ACCESS:    1067164  HIT:      43242  MISS:    1023922
L2C WRITEBACK ACCESS:     558213  HIT:     557893  MISS:        320

L2C DA-AMPM prefetcher final stats
LLC TOTAL     ACCESS:    3527194  HIT:    2239835  MISS:    1287359
LLC LOAD      ACCESS:    1793515  HIT:    1225679  MISS:     567836
LLC RFO       ACCESS:     293052  HIT:     289385  MISS:       3667
LLC PREFETCH  ACCESS:    1050223  HIT:     335038  MISS:     715185
LLC WRITEBACK ACCESS:     390404  HIT:     389733  MISS:        671

CPU 4 cumulative IPC: 0.322026 instructions: 116550442 cycles: 361928789
L1D TOTAL     ACCESS:   65216089  HIT:   62973628  MISS:    2242461
L1D LOAD      ACCESS:   57743679  HIT:   55501218  MISS:    2242461
L1D RFO       ACCESS:    7472410  HIT:    7472410  MISS:          0
L1D PREFETCH  ACCESS:          0  HIT:          0  MISS:          0
L1D WRITEBACK ACCESS:          0  HIT:          0  MISS:          0
L1I TOTAL     ACCESS:   35499806  HIT:   35499806  MISS:          0
L1I LOAD      ACCESS:   35499806  HIT:   35499806  MISS:          0
L1I RFO       ACCESS:          0  HIT:          0  MISS:          0
L1I PREFETCH  ACCESS:          0  HIT:          0  MISS:          0
L1I WRITEBACK ACCESS:          0  HIT:          0  MISS:          0
L2C TOTAL     ACCESS:    4087257  HIT:    1601952  MISS:    2485305
L2C LOAD      ACCESS:    2242461  HIT:     469694  MISS:    1772767
L2C RFO       ACCESS:          0  HIT:          0  MISS:          0
L2C PREFETCH  ACCESS:     712538  HIT:          0  MISS:     712538
L2C WRITEBACK ACCESS:    1132258  HIT:    1132258  MISS:          0

L2C DA-AMPM prefetcher final stats
LLC TOTAL     ACCESS:    3617569  HIT:    1450941  MISS:    2166628
LLC LOAD      ACCESS:    1772284  HIT:     267638  MISS:    1504646
LLC RFO       ACCESS:          0  HIT:          0  MISS:          0
LLC PREFETCH  ACCESS:     713021  HIT:      51048  MISS:     661973
LLC WRITEBACK ACCESS:    1132264  HIT:    1132255  MISS:          9

CPU 5 cumulative IPC: 0.335723 instructions: 121507765 cycles: 361928790
L1D TOTAL     ACCESS:   37441126  HIT:   34141079  MISS:    3300047
L1D LOAD      ACCESS:   25649015  HIT:   22349911  MISS:    3299104
L1D RFO       ACCESS:   11792111  HIT:   11791168  MISS:        943
L1D PREFETCH  ACCESS:          0  HIT:          0  MISS:          0
L1D WRITEBACK ACCESS:          0  HIT:          0  MISS:          0
L1I TOTAL     ACCESS:   30307342  HIT:   30307342  MISS:          0
L1I LOAD      ACCESS:   30307342  HIT:   30307342  MISS:          0
L1I RFO       ACCESS:          0  HIT:          0  MISS:          0
L1I PREFETCH  ACCESS:          0  HIT:          0  MISS:          0
L1I WRITEBACK ACCESS:          0  HIT:          0  MISS:          0
L2C TOTAL     ACCESS:    5211431  HIT:    3025498  MISS:    2185933
L2C LOAD      ACCESS:    3299104  HIT:    2997686  MISS:     301418
L2C RFO       ACCESS:        943  HIT:        357  MISS:        586
L2C PREFETCH  ACCESS:    1903548  HIT:      19619  MISS:    1883929
L2C WRITEBACK ACCESS:       7836  HIT:       7836  MISS:          0

L2C DA-AMPM prefetcher final stats
LLC TOTAL     ACCESS:    2188859  HIT:       5949  MISS:    2182910
LLC LOAD      ACCESS:     173397  HIT:       2638  MISS:     170759
LLC RFO       ACCESS:        568  HIT:        186  MISS:        382
LLC PREFETCH  ACCESS:    2011968  HIT:        203  MISS:    2011765
LLC WRITEBACK ACCESS:       2926  HIT:       2922  MISS:          4

CPU 6 cumulative IPC: 0.845929 instructions: 306165906 cycles: 361928790
L1D TOTAL     ACCESS:   65251399  HIT:   61242223  MISS:    4009176
L1D LOAD      ACCESS:   43665406  HIT:   39662883  MISS:    4002523
L1D RFO       ACCESS:   21585993  HIT:   21579340  MISS:       6653
L1D PREFETCH  ACCESS:          0  HIT:          0  MISS:          0
L1D WRITEBACK ACCESS:          0  HIT:          0  MISS:          0
L1I TOTAL     ACCESS:   64658530  HIT:   64658253  MISS:        277
L1I LOAD      ACCESS:   64658530  HIT:   64658253  MISS:        277
L1I RFO       ACCESS:          0  HIT:          0  MISS:          0
L1I PREFETCH  ACCESS:          0  HIT:          0  MISS:          0
L1I WRITEBACK ACCESS:          0  HIT:          0  MISS:          0
L2C TOTAL     ACCESS:    9017356  HIT:    5145052  MISS:    3872304
L2C LOAD      ACCESS:    4002800  HIT:    2440905  MISS:    1561895
L2C RFO       ACCESS:       6653  HIT:       1953  MISS:       4700
L2C PREFETCH  ACCESS:    2346580  HIT:      40958  MISS:    2305622
L2C WRITEBACK ACCESS:    2661323  HIT:    2661236  MISS:         87

L2C DA-AMPM prefetcher final stats
LLC TOTAL     ACCESS:    6531488  HIT:    3871298  MISS:    2660190
LLC LOAD      ACCESS:    1420879  HIT:    1210061  MISS:     210818
LLC RFO       ACCESS:       4700  HIT:       4548  MISS:        152
LLC PREFETCH  ACCESS:    2446638  HIT:          0  MISS:    2446638
LLC WRITEBACK ACCESS:    2659271  HIT:    2656689  MISS:       2582

CPU 7 cumulative IPC: 0.951413 instructions: 344343724 cycles: 361928790
L1D TOTAL     ACCESS:   85576644  HIT:   79321985  MISS:    6254659
L1D LOAD      ACCESS:   72180140  HIT:   66941544  MISS:    5238596
L1D RFO       ACCESS:   13396504  HIT:   12380441  MISS:    1016063
L1D PREFETCH  ACCESS:          0  HIT:          0  MISS:          0
L1D WRITEBACK ACCESS:          0  HIT:          0  MISS:          0
L1I TOTAL     ACCESS:   90584497  HIT:   90574307  MISS:      10190
L1I LOAD      ACCESS:   90584497  HIT:   90574307  MISS:      10190
L1I RFO       ACCESS:          0  HIT:          0  MISS:          0
L1I PREFETCH  ACCESS:          0  HIT:          0  MISS:          0
L1I WRITEBACK ACCESS:          0  HIT:          0  MISS:          0
L2C TOTAL     ACCESS:   11622804  HIT:    6953510  MISS:    4669294
L2C LOAD      ACCESS:    5248561  HIT:    4537141  MISS:     711420
L2C RFO       ACCESS:    1016044  HIT:     236360  MISS:     779684
L2C PREFETCH  ACCESS:    3195593  HIT:      22901  MISS:    3172692
L2C WRITEBACK ACCESS:    2162606  HIT:    2157108  MISS:       5498

L2C DA-AMPM prefetcher final stats
LLC TOTAL     ACCESS:    6455855  HIT:    3108129  MISS:    3347726
LLC LOAD      ACCESS:     490304  HIT:     213744  MISS:     276560
LLC RFO       ACCESS:     775592  HIT:     119435  MISS:     656157
LLC PREFETCH  ACCESS:    3397878  HIT:     989723  MISS:    2408155
LLC WRITEBACK ACCESS:    1792081  HIT:    1785227  MISS:       6854

Region of Interest Statistics

CPU 0 cumulative IPC: 0.50745 instructions: 100000000 cycles: 197063834
L1D TOTAL     ACCESS:   21975352  HIT:   21201878  MISS:     773474
L1D LOAD      ACCESS:   14480609  HIT:   13806779  MISS:     673830
L1D RFO       ACCESS:    7494743  HIT:    7395099  MISS:      99644
L1D PREFETCH  ACCESS:          0  HIT:          0  MISS:          0
L1D WRITEBACK ACCESS:          0  HIT:          0  MISS:          0
L1D PREFETCH  REQUESTED:          0  ISSUED:          0  USEFUL:          0  USELESS:          0
L1I TOTAL     ACCESS:   19428826  HIT:   19428627  MISS:        199
L1I LOAD      ACCESS:   19428826  HIT:   19428627  MISS:        199
L1I RFO       ACCESS:          0  HIT:          0  MISS:          0
L1I PREFETCH  ACCESS:          0  HIT:          0  MISS:          0
L1I WRITEBACK ACCESS:          0  HIT:          0  MISS:          0
L1I PREFETCH  REQUESTED:          0  ISSUED:          0  USEFUL:          0  USELESS:          0
L2C TOTAL     ACCESS:    1338486  HIT:     856129  MISS:     482357
L2C LOAD      ACCESS:     674015  HIT:     275161  MISS:     398854
L2C RFO       ACCESS:      99603  HIT:      61984  MISS:      37619
L2C PREFETCH  ACCESS:      70768  HIT:      26278  MISS:      44490
L2C WRITEBACK ACCESS:     494100  HIT:     492706  MISS:       1394
L2C PREFETCH  REQUESTED:     152882  ISSUED:     152882  USEFUL:      36063  USELESS:      57534
LLC TOTAL     ACCESS:     790854  HIT:     432934  MISS:     357920
LLC LOAD      ACCESS:     398649  HIT:     102149  MISS:     296500
LLC RFO       ACCESS:      37611  HIT:      12703  MISS:      24908
LLC PREFETCH  ACCESS:      44701  HIT:      21181  MISS:      23520
LLC WRITEBACK ACCESS:     309893  HIT:     296901  MISS:      12992
LLC PREFETCH  REQUESTED:          0  ISSUED:          0  USEFUL:     611628  USELESS:   14552002
Major fault: 0 Minor fault: 8153

CPU 1 cumulative IPC: 0.319986 instructions: 100000003 cycles: 312513698
L1D TOTAL     ACCESS:   48479852  HIT:   43759007  MISS:    4720845
L1D LOAD      ACCESS:   24040763  HIT:   19542892  MISS:    4497871
L1D RFO       ACCESS:   24439089  HIT:   24216115  MISS:     222974
L1D PREFETCH  ACCESS:          0  HIT:          0  MISS:          0
L1D WRITEBACK ACCESS:          0  HIT:          0  MISS:          0
L1D PREFETCH  REQUESTED:          0  ISSUED:          0  USEFUL:          0  USELESS:          0
L1I TOTAL     ACCESS:   32805594  HIT:   32805594  MISS:          0
L1I LOAD      ACCESS:   32805594  HIT:   32805594  MISS:          0
L1I RFO       ACCESS:          0  HIT:          0  MISS:          0
L1I PREFETCH  ACCESS:          0  HIT:          0  MISS:          0
L1I WRITEBACK ACCESS:          0  HIT:          0  MISS:          0
L1I PREFETCH  REQUESTED:          0  ISSUED:          0  USEFUL:          0  USELESS:          0
L2C TOTAL     ACCESS:    9550490  HIT:    3236704  MISS:    6313786
L2C LOAD      ACCESS:    4497849  HIT:    2661351  MISS:    1836498
L2C RFO       ACCESS:     222953  HIT:      24114  MISS:     198839
L2C PREFETCH  ACCESS:    4281826  HIT:       9081  MISS:    4272745
L2C WRITEBACK ACCESS:     547862  HIT:     542158  MISS:       5704
L2C PREFETCH  REQUESTED:    7693133  ISSUED:    7692945  USEFUL:    4171908  USELESS:    2663056
LLC TOTAL     ACCESS:    6761626  HIT:    2431628  MISS:    4329998
LLC LOAD      ACCESS:    1238287  HIT:     432285  MISS:     806002
LLC RFO       ACCESS:     197659  HIT:       1592  MISS:     196067
LLC PREFETCH  ACCESS:    4872136  HIT:    1545178  MISS:    3326958
LLC WRITEBACK ACCESS:     453544  HIT:     452573  MISS:        971
LLC PREFETCH  REQUESTED:          0  ISSUED:          0  USEFUL:     611628  USELESS:   14552002
Major fault: 0 Minor fault: 27693

CPU 2 cumulative IPC: 1.12204 instructions: 100000001 cycles: 89123272
L1D TOTAL     ACCESS:   17936567  HIT:   16252923  MISS:    1683644
L1D LOAD      ACCESS:   12903629  HIT:   11870254  MISS:    1033375
L1D RFO       ACCESS:    5032938  HIT:    4382669  MISS:     650269
L1D PREFETCH  ACCESS:          0  HIT:          0  MISS:          0
L1D WRITEBACK ACCESS:          0  HIT:          0  MISS:          0
L1D PREFETCH  REQUESTED:          0  ISSUED:          0  USEFUL:          0  USELESS:          0
L1I TOTAL     ACCESS:   23782597  HIT:   23745685  MISS:      36912
L1I LOAD      ACCESS:   23782597  HIT:   23745685  MISS:      36912
L1I RFO       ACCESS:          0  HIT:          0  MISS:          0
L1I PREFETCH  ACCESS:          0  HIT:          0  MISS:          0
L1I WRITEBACK ACCESS:          0  HIT:          0  MISS:          0
L1I PREFETCH  REQUESTED:          0  ISSUED:          0  USEFUL:          0  USELESS:          0
L2C TOTAL     ACCESS:    2918828  HIT:    2067686  MISS:     851142
L2C LOAD      ACCESS:    1070194  HIT:     869265  MISS:     200929
L2C RFO       ACCESS:     650227  HIT:     344986  MISS:     305241
L2C PREFETCH  ACCESS:     406517  HIT:      62262  MISS:     344255
L2C WRITEBACK ACCESS:     791890  HIT:     791173  MISS:        717
L2C PREFETCH  REQUESTED:    2500365  ISSUED:    2487542  USEFUL:    1546569  USELESS:     394044
LLC TOTAL     ACCESS:    1261393  HIT:     858849  MISS:     402544
LLC LOAD      ACCESS:     172701  HIT:     148400  MISS:      24301
LLC RFO       ACCESS:     305235  HIT:     128231  MISS:     177004
LLC PREFETCH  ACCESS:     372483  HIT:     174800  MISS:     197683
LLC WRITEBACK ACCESS:     410974  HIT:     407418  MISS:       3556
LLC PREFETCH  REQUESTED:          0  ISSUED:          0  USEFUL:     611628  USELESS:   14552002
Major fault: 0 Minor fault: 14006

CPU 3 cumulative IPC: 0.276297 instructions: 100000001 cycles: 361928789
L1D TOTAL     ACCESS:   38960005  HIT:   34965410  MISS:    3994595
L1D LOAD      ACCESS:   27965285  HIT:   24363090  MISS:    3602195
L1D RFO       ACCESS:   10994720  HIT:   10602320  MISS:     392400
L1D PREFETCH  ACCESS:          0  HIT:          0  MISS:          0
L1D WRITEBACK ACCESS:          0  HIT:          0  MISS:          0
L1D PREFETCH  REQUESTED:          0  ISSUED:          0  USEFUL:          0  USELESS:          0
L1I TOTAL     ACCESS:   23879798  HIT:   23879798  MISS:          0
L1I LOAD      ACCESS:   23879798  HIT:   23879798  MISS:          0
L1I RFO       ACCESS:          0  HIT:          0  MISS:          0
L1I PREFETCH  ACCESS:          0  HIT:          0  MISS:          0
L1I WRITEBACK ACCESS:          0  HIT:          0  MISS:          0
L1I PREFETCH  REQUESTED:          0  ISSUED:          0  USEFUL:          0  USELESS:          0
L2C TOTAL     ACCESS:    5619930  HIT:    2482809  MISS:    3137121
L2C LOAD      ACCESS:    3602167  HIT:    1782352  MISS:    1819815
L2C RFO       ACCESS:     392386  HIT:      99322  MISS:     293064
L2C PREFETCH  ACCESS:    1067164  HIT:      43242  MISS:    1023922
L2C WRITEBACK ACCESS:     558213  HIT:     557893  MISS:        320
L2C PREFETCH  REQUESTED:    1470721  ISSUED:    1470721  USEFUL:    1047780  USELESS:     282018
LLC TOTAL     ACCESS:    3527194  HIT:    2239835  MISS:    1287359
LLC LOAD      ACCESS:    1793515  HIT:    1225679  MISS:     567836
LLC RFO       ACCESS:     293052  HIT:     289385  MISS:       3667
LLC PREFETCH  ACCESS:    1050223  HIT:     335038  MISS:     715185
LLC WRITEBACK ACCESS:     390404  HIT:     389733  MISS:        671
LLC PREFETCH  REQUESTED:          0  ISSUED:          0  USEFUL:     611628  USELESS:   14552002
Major fault: 0 Minor fault: 17781

CPU 4 cumulative IPC: 0.322475 instructions: 100000000 cycles: 310101330
L1D TOTAL     ACCESS:   55957974  HIT:   54033955  MISS:    1924019
L1D LOAD      ACCESS:   49546666  HIT:   47622647  MISS:    1924019
L1D RFO       ACCESS:    6411308  HIT:    6411308  MISS:          0
L1D PREFETCH  ACCESS:          0  HIT:          0  MISS:          0
L1D WRITEBACK ACCESS:          0  HIT:          0  MISS:          0
L1D PREFETCH  REQUESTED:          0  ISSUED:          0  USEFUL:          0  USELESS:          0
L1I TOTAL     ACCESS:   30461707  HIT:   30461707  MISS:          0
L1I LOAD      ACCESS:   30461707  HIT:   30461707  MISS:          0
L1I RFO       ACCESS:          0  HIT:          0  MISS:          0
L1I PREFETCH  ACCESS:          0  HIT:          0  MISS:          0
L1I WRITEBACK ACCESS:          0  HIT:          0  MISS:          0
L1I PREFETCH  REQUESTED:          0  ISSUED:          0  USEFUL:          0  USELESS:          0
L2C TOTAL     ACCESS:    3506933  HIT:    1374509  MISS:    2132424
L2C LOAD      ACCESS:    1924019  HIT:     403028  MISS:    1520991
L2C RFO       ACCESS:          0  HIT:          0  MISS:          0
L2C PREFETCH  ACCESS:     611433  HIT:          0  MISS:     611433
L2C WRITEBACK ACCESS:     971481  HIT:     971481  MISS:          0
L2C PREFETCH  REQUESTED:     835659  ISSUED:     835659  USEFUL:     550474  USELESS:     284119
LLC TOTAL     ACCESS:    3103891  HIT:    1249919  MISS:    1853972
LLC LOAD      ACCESS:    1520577  HIT:     233876  MISS:    1286701
LLC RFO       ACCESS:          0  HIT:          0  MISS:          0
LLC PREFETCH  ACCESS:     611847  HIT:      44580  MISS:     567267
LLC WRITEBACK ACCESS:     971467  HIT:     971463  MISS:          4
LLC PREFETCH  REQUESTED:          0  ISSUED:          0  USEFUL:     611628  USELESS:   14552002
Major fault: 0 Minor fault: 349995

CPU 5 cumulative IPC: 0.335484 instructions: 100000002 cycles: 298076652
L1D TOTAL     ACCESS:   30815813  HIT:   28099875  MISS:    2715938
L1D LOAD      ACCESS:   21111064  HIT:   18395906  MISS:    2715158
L1D RFO       ACCESS:    9704749  HIT:    9703969  MISS:        780
L1D PREFETCH  ACCESS:          0  HIT:          0  MISS:          0
L1D WRITEBACK ACCESS:          0  HIT:          0  MISS:          0
L1D PREFETCH  REQUESTED:          0  ISSUED:          0  USEFUL:          0  USELESS:          0
L1I TOTAL     ACCESS:   24930168  HIT:   24930168  MISS:          0
L1I LOAD      ACCESS:   24930168  HIT:   24930168  MISS:          0
L1I RFO       ACCESS:          0  HIT:          0  MISS:          0
L1I PREFETCH  ACCESS:          0  HIT:          0  MISS:          0
L1I WRITEBACK ACCESS:          0  HIT:          0  MISS:          0
L1I PREFETCH  REQUESTED:          0  ISSUED:          0  USEFUL:          0  USELESS:          0
L2C TOTAL     ACCESS:    4289154  HIT:    2489696  MISS:    1799458
L2C LOAD      ACCESS:    2715158  HIT:    2466738  MISS:     248420
L2C RFO       ACCESS:        780  HIT:        276  MISS:        504
L2C PREFETCH  ACCESS:    1566768  HIT:      16234  MISS:    1550534
L2C WRITEBACK ACCESS:       6448  HIT:       6448  MISS:          0
L2C PREFETCH  REQUESTED:    2576077  ISSUED:    2576077  USEFUL:    2346820  USELESS:      33575
LLC TOTAL     ACCESS:    1801893  HIT:       4975  MISS:    1796918
LLC LOAD      ACCESS:     143192  HIT:       2214  MISS:     140978
LLC RFO       ACCESS:        487  HIT:        167  MISS:        320
LLC PREFETCH  ACCESS:    1655779  HIT:        159  MISS:    1655620
LLC WRITEBACK ACCESS:       2435  HIT:       2435  MISS:          0
LLC PREFETCH  REQUESTED:          0  ISSUED:          0  USEFUL:     611628  USELESS:   14552002
Major fault: 0 Minor fault: 45852

CPU 6 cumulative IPC: 0.865254 instructions: 100000003 cycles: 115573004
L1D TOTAL     ACCESS:   21274097  HIT:   19950723  MISS:    1323374
L1D LOAD      ACCESS:   14256849  HIT:   12935008  MISS:    1321841
L1D RFO       ACCESS:    7017248  HIT:    7015715  MISS:       1533
L1D PREFETCH  ACCESS:          0  HIT:          0  MISS:          0
L1D WRITEBACK ACCESS:          0  HIT:          0  MISS:          0
L1D PREFETCH  REQUESTED:          0  ISSUED:          0  USEFUL:          0  USELESS:          0
L1I TOTAL     ACCESS:   20980944  HIT:   20980944  MISS:          0
L1I LOAD      ACCESS:   20980944  HIT:   20980944  MISS:          0
L1I RFO       ACCESS:          0  HIT:          0  MISS:          0
L1I PREFETCH  ACCESS:          0  HIT:          0  MISS:          0
L1I WRITEBACK ACCESS:          0  HIT:          0  MISS:          0
L1I PREFETCH  REQUESTED:          0  ISSUED:          0  USEFUL:          0  USELESS:          0
L2C TOTAL     ACCESS:    2979030  HIT:    1701696  MISS:    1277334
L2C LOAD      ACCESS:    1321841  HIT:     809278  MISS:     512563
L2C RFO       ACCESS:       1533  HIT:        391  MISS:       1142
L2C PREFETCH  ACCESS:     777151  HIT:      13522  MISS:     763629
L2C WRITEBACK ACCESS:     878505  HIT:     878505  MISS:          0
L2C PREFETCH  REQUESTED:    2850579  ISSUED:    2850579  USEFUL:    2611805  USELESS:       4926
LLC TOTAL     ACCESS:    2155381  HIT:    1278122  MISS:     877259
LLC LOAD      ACCESS:     468355  HIT:     398954  MISS:      69401
LLC RFO       ACCESS:       1142  HIT:       1142  MISS:          0
LLC PREFETCH  ACCESS:     807837  HIT:          0  MISS:     807837
LLC WRITEBACK ACCESS:     878047  HIT:     878026  MISS:         21
LLC PREFETCH  REQUESTED:          0  ISSUED:          0  USEFUL:     611628  USELESS:   14552002
Major fault: 0 Minor fault: 46871

CPU 7 cumulative IPC: 1.00667 instructions: 100000003 cycles: 99337818
L1D TOTAL     ACCESS:   22505864  HIT:   21367385  MISS:    1138479
L1D LOAD      ACCESS:   19254635  HIT:   18333061  MISS:     921574
L1D RFO       ACCESS:    3251229  HIT:    3034324  MISS:     216905
L1D PREFETCH  ACCESS:          0  HIT:          0  MISS:          0
L1D WRITEBACK ACCESS:          0  HIT:          0  MISS:          0
L1D PREFETCH  REQUESTED:          0  ISSUED:          0  USEFUL:          0  USELESS:          0
L1I TOTAL     ACCESS:   29000265  HIT:   28998409  MISS:       1856
L1I LOAD      ACCESS:   29000265  HIT:   28998409  MISS:       1856
L1I RFO       ACCESS:          0  HIT:          0  MISS:          0
L1I PREFETCH  ACCESS:          0  HIT:          0  MISS:          0
L1I WRITEBACK ACCESS:          0  HIT:          0  MISS:          0
L1I PREFETCH  REQUESTED:          0  ISSUED:          0  USEFUL:          0  USELESS:          0
L2C TOTAL     ACCESS:    2124507  HIT:    1276490  MISS:     848017
L2C LOAD      ACCESS:     923402  HIT:     837375  MISS:      86027
L2C RFO       ACCESS:     216905  HIT:      19568  MISS:     197337
L2C PREFETCH  ACCESS:     565733  HIT:       2634  MISS:     563099
L2C WRITEBACK ACCESS:     418467  HIT:     416913  MISS:       1554
L2C PREFETCH  REQUESTED:    4130731  ISSUED:    3997192  USEFUL:    3445442  USELESS:     216164
LLC TOTAL     ACCESS:    1239228  HIT:     730147  MISS:     509081
LLC LOAD      ACCESS:      61725  HIT:      28732  MISS:      32993
LLC RFO       ACCESS:     197337  HIT:      61802  MISS:     135535
LLC PREFETCH  ACCESS:     587401  HIT:     249071  MISS:     338330
LLC WRITEBACK ACCESS:     392765  HIT:     390542  MISS:       2223
LLC PREFETCH  REQUESTED:          0  ISSUED:          0  USEFUL:     611628  USELESS:   14552002
Major fault: 0 Minor fault: 10906

L2C DA-AMPM prefetcher final stats

L2C DA-AMPM prefetcher final stats

L2C DA-AMPM prefetcher final stats

L2C DA-AMPM prefetcher final stats

L2C DA-AMPM prefetcher final stats

L2C DA-AMPM prefetcher final stats

L2C DA-AMPM prefetcher final stats

L2C DA-AMPM prefetcher final stats

DRAM Statistics
 CHANNEL 0
 RQ ROW_BUFFER_HIT:    4320595  ROW_BUFFER_MISS:    5018482
 DBUS_CONGESTED:   18944892
 WQ ROW_BUFFER_HIT:     296067  ROW_BUFFER_MISS:    3075697  FULL:          0

 CHANNEL 1
 RQ ROW_BUFFER_HIT:    4293515  ROW_BUFFER_MISS:    5036533
 DBUS_CONGESTED:   18944892
 WQ ROW_BUFFER_HIT:     292191  ROW_BUFFER_MISS:    3075869  FULL:          0

 AVG_CONGESTED_CYCLE: 14
