
*** ChampSim Multicore Out-of-Order Simulator ***

Warmup Instructions: 20000000
Simulation Instructions: 100000000
Number of CPUs: 8
LLC sets: 16384
LLC ways: 16
Off-chip DRAM Size: 8192 MB Channels: 2 Width: 64-bit Data Rate: 1600 MT/s

CPU 0 runs /scratch/user/djimenez/champsim-traces/speccpu2017/xz/607.cactuBSSN_s/607.cactuBSSN_s-2421B.champsimtrace.xz
CPU 1 runs /scratch/user/djimenez/champsim-traces/speccpu2017/xz/607.cactuBSSN_s/607.cactuBSSN_s-3477B.champsimtrace.xz
CPU 2 runs /scratch/user/djimenez/champsim-traces/speccpu2017/xz/657.xz_s/657.xz_s-2302B.champsimtrace.xz
CPU 3 runs /scratch/user/djimenez/champsim-traces/speccpu2017/xz/621.wrf_s/621.wrf_s-6673B.champsimtrace.xz
CPU 4 runs /scratch/user/djimenez/champsim-traces/speccpu2017/xz/619.lbm_s/619.lbm_s-2677B.champsimtrace.xz
CPU 5 runs /scratch/user/djimenez/champsim-traces/speccpu2017/xz/619.lbm_s/619.lbm_s-4268B.champsimtrace.xz
CPU 6 runs /scratch/user/djimenez/champsim-traces/speccpu2017/xz/628.pop2_s/628.pop2_s-17B.champsimtrace.xz
CPU 7 runs /scratch/user/djimenez/champsim-traces/speccpu2017/xz/619.lbm_s/619.lbm_s-2676B.champsimtrace.xz
L2C DA-AMPM prefetcher
L2C DA-AMPM prefetcher
L2C DA-AMPM prefetcher
L2C DA-AMPM prefetcher
L2C DA-AMPM prefetcher
L2C DA-AMPM prefetcher
L2C DA-AMPM prefetcher
L2C DA-AMPM prefetcher
Heartbeat CPU 6 instructions: 10000002 cycles: 4124181 heartbeat IPC: 2.42472 cumulative IPC: 2.42472 (Simulation time: 0 hr 4 min 5 sec) 
Heartbeat CPU 2 instructions: 10000002 cycles: 4463959 heartbeat IPC: 2.24016 cumulative IPC: 2.24016 (Simulation time: 0 hr 4 min 24 sec) 
Heartbeat CPU 7 instructions: 10000000 cycles: 4854779 heartbeat IPC: 2.05983 cumulative IPC: 2.05983 (Simulation time: 0 hr 4 min 46 sec) 
Heartbeat CPU 5 instructions: 10000001 cycles: 4903941 heartbeat IPC: 2.03918 cumulative IPC: 2.03918 (Simulation time: 0 hr 4 min 49 sec) 
Heartbeat CPU 4 instructions: 10000001 cycles: 4926025 heartbeat IPC: 2.03003 cumulative IPC: 2.03003 (Simulation time: 0 hr 4 min 50 sec) 
Heartbeat CPU 3 instructions: 10000001 cycles: 5376242 heartbeat IPC: 1.86004 cumulative IPC: 1.86004 (Simulation time: 0 hr 5 min 17 sec) 
Heartbeat CPU 1 instructions: 10000003 cycles: 5771881 heartbeat IPC: 1.73254 cumulative IPC: 1.73254 (Simulation time: 0 hr 5 min 41 sec) 
Heartbeat CPU 0 instructions: 10000000 cycles: 5804224 heartbeat IPC: 1.72288 cumulative IPC: 1.72288 (Simulation time: 0 hr 5 min 43 sec) 
Heartbeat CPU 6 instructions: 20000000 cycles: 8239517 heartbeat IPC: 2.42993 cumulative IPC: 2.42733 (Simulation time: 0 hr 8 min 9 sec) 
Heartbeat CPU 2 instructions: 20000000 cycles: 8893380 heartbeat IPC: 2.25763 cumulative IPC: 2.24886 (Simulation time: 0 hr 8 min 48 sec) 
Heartbeat CPU 3 instructions: 20000000 cycles: 9447572 heartbeat IPC: 2.4562 cumulative IPC: 2.11695 (Simulation time: 0 hr 9 min 22 sec) 
Heartbeat CPU 7 instructions: 20000000 cycles: 9686889 heartbeat IPC: 2.06949 cumulative IPC: 2.06465 (Simulation time: 0 hr 9 min 37 sec) 
Heartbeat CPU 5 instructions: 20000000 cycles: 9800514 heartbeat IPC: 2.04224 cumulative IPC: 2.04071 (Simulation time: 0 hr 9 min 43 sec) 
Heartbeat CPU 4 instructions: 20000000 cycles: 9820638 heartbeat IPC: 2.04306 cumulative IPC: 2.03653 (Simulation time: 0 hr 9 min 45 sec) 
Heartbeat CPU 1 instructions: 20000000 cycles: 11542209 heartbeat IPC: 1.733 cumulative IPC: 1.73277 (Simulation time: 0 hr 11 min 26 sec) 
Heartbeat CPU 0 instructions: 20000000 cycles: 11605979 heartbeat IPC: 1.72362 cumulative IPC: 1.72325 (Simulation time: 0 hr 11 min 29 sec) 

Warmup complete CPU 0 instructions: 20000001 cycles: 11605997 (Simulation time: 0 hr 11 min 29 sec) 
Warmup complete CPU 1 instructions: 20110449 cycles: 11605996 (Simulation time: 0 hr 11 min 29 sec) 
Warmup complete CPU 2 instructions: 25964741 cycles: 11605996 (Simulation time: 0 hr 11 min 29 sec) 
Warmup complete CPU 3 instructions: 25747448 cycles: 11605996 (Simulation time: 0 hr 11 min 29 sec) 
Warmup complete CPU 4 instructions: 23654092 cycles: 11605996 (Simulation time: 0 hr 11 min 29 sec) 
Warmup complete CPU 5 instructions: 23719955 cycles: 11605996 (Simulation time: 0 hr 11 min 29 sec) 
Warmup complete CPU 6 instructions: 28197036 cycles: 11605996 (Simulation time: 0 hr 11 min 29 sec) 
Warmup complete CPU 7 instructions: 23964300 cycles: 11605996 (Simulation time: 0 hr 11 min 29 sec) 

Heartbeat CPU 6 instructions: 30000002 cycles: 14162720 heartbeat IPC: 1.68828 cumulative IPC: 0.705186 (Simulation time: 0 hr 12 min 25 sec) 
Heartbeat CPU 3 instructions: 30000000 cycles: 17465065 heartbeat IPC: 1.24727 cumulative IPC: 0.725807 (Simulation time: 0 hr 13 min 44 sec) 
Heartbeat CPU 2 instructions: 30000003 cycles: 22404630 heartbeat IPC: 0.740124 cumulative IPC: 0.373683 (Simulation time: 0 hr 15 min 42 sec) 
Heartbeat CPU 1 instructions: 30000000 cycles: 23087735 heartbeat IPC: 0.866136 cumulative IPC: 0.861329 (Simulation time: 0 hr 15 min 57 sec) 
Heartbeat CPU 0 instructions: 30000001 cycles: 23205160 heartbeat IPC: 0.86213 cumulative IPC: 0.862131 (Simulation time: 0 hr 15 min 59 sec) 
Heartbeat CPU 6 instructions: 40000000 cycles: 28283786 heartbeat IPC: 0.708162 cumulative IPC: 0.707705 (Simulation time: 0 hr 17 min 51 sec) 
Heartbeat CPU 7 instructions: 30000001 cycles: 30012019 heartbeat IPC: 0.492002 cumulative IPC: 0.32792 (Simulation time: 0 hr 18 min 31 sec) 
Heartbeat CPU 5 instructions: 30000000 cycles: 32783957 heartbeat IPC: 0.435096 cumulative IPC: 0.296537 (Simulation time: 0 hr 19 min 31 sec) 
Heartbeat CPU 4 instructions: 30000002 cycles: 33481859 heartbeat IPC: 0.422633 cumulative IPC: 0.290087 (Simulation time: 0 hr 19 min 46 sec) 
Heartbeat CPU 1 instructions: 40000000 cycles: 34783846 heartbeat IPC: 0.854985 cumulative IPC: 0.858128 (Simulation time: 0 hr 20 min 15 sec) 
Heartbeat CPU 0 instructions: 40000000 cycles: 34992440 heartbeat IPC: 0.848372 cumulative IPC: 0.855196 (Simulation time: 0 hr 20 min 19 sec) 
Heartbeat CPU 6 instructions: 50000001 cycles: 43545134 heartbeat IPC: 0.65525 cumulative IPC: 0.682641 (Simulation time: 0 hr 23 min 23 sec) 
Heartbeat CPU 0 instructions: 50000003 cycles: 46798729 heartbeat IPC: 0.847006 cumulative IPC: 0.852449 (Simulation time: 0 hr 24 min 36 sec) 
Heartbeat CPU 1 instructions: 50000000 cycles: 46983751 heartbeat IPC: 0.819678 cumulative IPC: 0.844868 (Simulation time: 0 hr 24 min 41 sec) 
Heartbeat CPU 3 instructions: 40000000 cycles: 47593904 heartbeat IPC: 0.331908 cumulative IPC: 0.396037 (Simulation time: 0 hr 24 min 56 sec) 
Heartbeat CPU 2 instructions: 40000000 cycles: 49716180 heartbeat IPC: 0.366145 cumulative IPC: 0.368281 (Simulation time: 0 hr 25 min 44 sec) 
Heartbeat CPU 6 instructions: 60000000 cycles: 58216263 heartbeat IPC: 0.681611 cumulative IPC: 0.682317 (Simulation time: 0 hr 28 min 43 sec) 
Heartbeat CPU 1 instructions: 60000000 cycles: 58628245 heartbeat IPC: 0.858775 cumulative IPC: 0.848312 (Simulation time: 0 hr 28 min 52 sec) 
Heartbeat CPU 7 instructions: 40000000 cycles: 60581420 heartbeat IPC: 0.327124 cumulative IPC: 0.327423 (Simulation time: 0 hr 29 min 35 sec) 
Heartbeat CPU 0 instructions: 60000000 cycles: 62649015 heartbeat IPC: 0.630903 cumulative IPC: 0.783653 (Simulation time: 0 hr 30 min 20 sec) 
Heartbeat CPU 5 instructions: 40000000 cycles: 67136833 heartbeat IPC: 0.291096 cumulative IPC: 0.293171 (Simulation time: 0 hr 31 min 59 sec) 
Heartbeat CPU 4 instructions: 40000000 cycles: 67434566 heartbeat IPC: 0.294527 cumulative IPC: 0.292788 (Simulation time: 0 hr 32 min 6 sec) 
Heartbeat CPU 1 instructions: 70000001 cycles: 70062476 heartbeat IPC: 0.874567 cumulative IPC: 0.853448 (Simulation time: 0 hr 33 min 3 sec) 
Heartbeat CPU 3 instructions: 50000000 cycles: 70650851 heartbeat IPC: 0.433709 cumulative IPC: 0.410748 (Simulation time: 0 hr 33 min 16 sec) 
Heartbeat CPU 6 instructions: 70000002 cycles: 72094301 heartbeat IPC: 0.720563 cumulative IPC: 0.691092 (Simulation time: 0 hr 33 min 48 sec) 
Heartbeat CPU 2 instructions: 50000003 cycles: 76890137 heartbeat IPC: 0.368 cumulative IPC: 0.368164 (Simulation time: 0 hr 35 min 37 sec) 
Heartbeat CPU 0 instructions: 70000000 cycles: 77872360 heartbeat IPC: 0.656886 cumulative IPC: 0.754531 (Simulation time: 0 hr 36 min 1 sec) 
Heartbeat CPU 1 instructions: 80000000 cycles: 81511082 heartbeat IPC: 0.873469 cumulative IPC: 0.856727 (Simulation time: 0 hr 37 min 26 sec) 
Heartbeat CPU 6 instructions: 80000000 cycles: 83192953 heartbeat IPC: 0.90101 cumulative IPC: 0.723637 (Simulation time: 0 hr 38 min 4 sec) 
Heartbeat CPU 7 instructions: 50000001 cycles: 88869851 heartbeat IPC: 0.353501 cumulative IPC: 0.336971 (Simulation time: 0 hr 40 min 13 sec) 
Heartbeat CPU 1 instructions: 90000002 cycles: 92971475 heartbeat IPC: 0.872571 cumulative IPC: 0.858958 (Simulation time: 0 hr 41 min 53 sec) 
Heartbeat CPU 0 instructions: 80000000 cycles: 93711579 heartbeat IPC: 0.631344 cumulative IPC: 0.730766 (Simulation time: 0 hr 42 min 12 sec) 
Heartbeat CPU 3 instructions: 60000000 cycles: 94912770 heartbeat IPC: 0.412169 cumulative IPC: 0.411162 (Simulation time: 0 hr 42 min 43 sec) 
Heartbeat CPU 6 instructions: 90000002 cycles: 96521156 heartbeat IPC: 0.750289 cumulative IPC: 0.72782 (Simulation time: 0 hr 43 min 23 sec) 
Heartbeat CPU 5 instructions: 50000000 cycles: 100552956 heartbeat IPC: 0.299257 cumulative IPC: 0.295457 (Simulation time: 0 hr 45 min 0 sec) 
Heartbeat CPU 4 instructions: 50000002 cycles: 101157008 heartbeat IPC: 0.296539 cumulative IPC: 0.2942 (Simulation time: 0 hr 45 min 13 sec) 
Heartbeat CPU 1 instructions: 100000000 cycles: 104320752 heartbeat IPC: 0.881113 cumulative IPC: 0.86167 (Simulation time: 0 hr 46 min 23 sec) 
Heartbeat CPU 2 instructions: 60000000 cycles: 104690462 heartbeat IPC: 0.359708 cumulative IPC: 0.365638 (Simulation time: 0 hr 46 min 34 sec) 
Heartbeat CPU 6 instructions: 100000000 cycles: 108734320 heartbeat IPC: 0.818788 cumulative IPC: 0.739259 (Simulation time: 0 hr 47 min 59 sec) 
Heartbeat CPU 0 instructions: 90000000 cycles: 109299051 heartbeat IPC: 0.641541 cumulative IPC: 0.71653 (Simulation time: 0 hr 48 min 11 sec) 
Heartbeat CPU 1 instructions: 110000001 cycles: 115933467 heartbeat IPC: 0.861125 cumulative IPC: 0.86161 (Simulation time: 0 hr 50 min 20 sec) 
Heartbeat CPU 7 instructions: 60000000 cycles: 116485863 heartbeat IPC: 0.362109 cumulative IPC: 0.34359 (Simulation time: 0 hr 50 min 30 sec) 
Heartbeat CPU 6 instructions: 110000001 cycles: 122238780 heartbeat IPC: 0.740496 cumulative IPC: 0.73941 (Simulation time: 0 hr 52 min 22 sec) 
Heartbeat CPU 0 instructions: 100000000 cycles: 126778516 heartbeat IPC: 0.5721 cumulative IPC: 0.69461 (Simulation time: 0 hr 53 min 49 sec) 
Heartbeat CPU 1 instructions: 120000000 cycles: 127795373 heartbeat IPC: 0.843035 cumulative IPC: 0.859713 (Simulation time: 0 hr 54 min 8 sec) 
Finished CPU 1 instructions: 100000000 cycles: 116311465 cumulative IPC: 0.85976 (Simulation time: 0 hr 54 min 10 sec) 
Heartbeat CPU 3 instructions: 70000003 cycles: 130027544 heartbeat IPC: 0.284781 cumulative IPC: 0.373687 (Simulation time: 0 hr 54 min 49 sec) 
Heartbeat CPU 2 instructions: 70000002 cycles: 130335357 heartbeat IPC: 0.389941 cumulative IPC: 0.370888 (Simulation time: 0 hr 54 min 56 sec) 
Heartbeat CPU 6 instructions: 120000000 cycles: 134580004 heartbeat IPC: 0.810292 cumulative IPC: 0.746523 (Simulation time: 0 hr 56 min 27 sec) 
Heartbeat CPU 5 instructions: 60000000 cycles: 136426268 heartbeat IPC: 0.278759 cumulative IPC: 0.290658 (Simulation time: 0 hr 57 min 6 sec) 
Heartbeat CPU 4 instructions: 60000000 cycles: 136757092 heartbeat IPC: 0.280898 cumulative IPC: 0.290416 (Simulation time: 0 hr 57 min 12 sec) 
Heartbeat CPU 1 instructions: 130000001 cycles: 139345286 heartbeat IPC: 0.865807 cumulative IPC: 0.860264 (Simulation time: 0 hr 58 min 10 sec) 
Heartbeat CPU 0 instructions: 110000003 cycles: 142286400 heartbeat IPC: 0.644834 cumulative IPC: 0.688703 (Simulation time: 0 hr 59 min 12 sec) 
Heartbeat CPU 7 instructions: 70000001 cycles: 143703515 heartbeat IPC: 0.367409 cumulative IPC: 0.348498 (Simulation time: 0 hr 59 min 41 sec) 
Finished CPU 6 instructions: 100000001 cycles: 132285255 cumulative IPC: 0.755942 (Simulation time: 0 hr 59 min 44 sec) 
Heartbeat CPU 6 instructions: 130000001 cycles: 146831365 heartbeat IPC: 0.816236 cumulative IPC: 0.752839 (Simulation time: 1 hr 0 min 45 sec) 
Heartbeat CPU 1 instructions: 140000000 cycles: 150762060 heartbeat IPC: 0.875904 cumulative IPC: 0.861547 (Simulation time: 1 hr 2 min 2 sec) 
Heartbeat CPU 3 instructions: 80000000 cycles: 153334837 heartbeat IPC: 0.42905 cumulative IPC: 0.382791 (Simulation time: 1 hr 2 min 53 sec) 
Heartbeat CPU 2 instructions: 80000000 cycles: 156932817 heartbeat IPC: 0.375976 cumulative IPC: 0.371819 (Simulation time: 1 hr 4 min 15 sec) 
Heartbeat CPU 6 instructions: 140000000 cycles: 157561431 heartbeat IPC: 0.931961 cumulative IPC: 0.766008 (Simulation time: 1 hr 4 min 29 sec) 
Heartbeat CPU 0 instructions: 120000000 cycles: 158178080 heartbeat IPC: 0.62926 cumulative IPC: 0.682258 (Simulation time: 1 hr 4 min 42 sec) 
Finished CPU 0 instructions: 100000000 cycles: 146572091 cumulative IPC: 0.682258 (Simulation time: 1 hr 4 min 42 sec) 
Heartbeat CPU 1 instructions: 150000001 cycles: 162354413 heartbeat IPC: 0.862638 cumulative IPC: 0.861631 (Simulation time: 1 hr 6 min 8 sec) 
Heartbeat CPU 7 instructions: 80000000 cycles: 168017804 heartbeat IPC: 0.411281 cumulative IPC: 0.358257 (Simulation time: 1 hr 8 min 3 sec) 
Heartbeat CPU 6 instructions: 150000001 cycles: 168034832 heartbeat IPC: 0.9548 cumulative IPC: 0.778648 (Simulation time: 1 hr 8 min 3 sec) 
Heartbeat CPU 4 instructions: 70000001 cycles: 170190345 heartbeat IPC: 0.299103 cumulative IPC: 0.292248 (Simulation time: 1 hr 8 min 49 sec) 
Heartbeat CPU 5 instructions: 70000003 cycles: 170444855 heartbeat IPC: 0.293957 cumulative IPC: 0.291365 (Simulation time: 1 hr 8 min 54 sec) 
Heartbeat CPU 0 instructions: 130000001 cycles: 173630742 heartbeat IPC: 0.647138 cumulative IPC: 0.678909 (Simulation time: 1 hr 10 min 19 sec) 
Heartbeat CPU 1 instructions: 160000000 cycles: 174087729 heartbeat IPC: 0.852274 cumulative IPC: 0.860956 (Simulation time: 1 hr 10 min 31 sec) 
Heartbeat CPU 3 instructions: 90000003 cycles: 177230181 heartbeat IPC: 0.418492 cumulative IPC: 0.387942 (Simulation time: 1 hr 11 min 45 sec) 
Heartbeat CPU 6 instructions: 160000000 cycles: 178999879 heartbeat IPC: 0.911989 cumulative IPC: 0.787382 (Simulation time: 1 hr 12 min 24 sec) 
Heartbeat CPU 2 instructions: 90000001 cycles: 185087938 heartbeat IPC: 0.355175 cumulative IPC: 0.369118 (Simulation time: 1 hr 14 min 36 sec) 
Heartbeat CPU 1 instructions: 170000001 cycles: 185526719 heartbeat IPC: 0.874203 cumulative IPC: 0.861827 (Simulation time: 1 hr 14 min 46 sec) 
Heartbeat CPU 0 instructions: 140000000 cycles: 189290226 heartbeat IPC: 0.638591 cumulative IPC: 0.675355 (Simulation time: 1 hr 16 min 4 sec) 
Heartbeat CPU 6 instructions: 170000001 cycles: 191200096 heartbeat IPC: 0.819658 cumulative IPC: 0.789575 (Simulation time: 1 hr 16 min 43 sec) 
Heartbeat CPU 7 instructions: 90000000 cycles: 192049845 heartbeat IPC: 0.416111 cumulative IPC: 0.365963 (Simulation time: 1 hr 17 min 1 sec) 
Heartbeat CPU 1 instructions: 180000000 cycles: 197094162 heartbeat IPC: 0.864495 cumulative IPC: 0.861993 (Simulation time: 1 hr 18 min 46 sec) 
Heartbeat CPU 5 instructions: 80000000 cycles: 204051860 heartbeat IPC: 0.297557 cumulative IPC: 0.292446 (Simulation time: 1 hr 21 min 5 sec) 
Heartbeat CPU 4 instructions: 80000000 cycles: 204149213 heartbeat IPC: 0.294474 cumulative IPC: 0.29264 (Simulation time: 1 hr 21 min 7 sec) 
Heartbeat CPU 0 instructions: 150000002 cycles: 205439577 heartbeat IPC: 0.61922 cumulative IPC: 0.670678 (Simulation time: 1 hr 21 min 36 sec) 
Heartbeat CPU 6 instructions: 180000000 cycles: 206428701 heartbeat IPC: 0.656659 cumulative IPC: 0.779185 (Simulation time: 1 hr 21 min 56 sec) 
Heartbeat CPU 1 instructions: 190000003 cycles: 208608033 heartbeat IPC: 0.868518 cumulative IPC: 0.862375 (Simulation time: 1 hr 22 min 40 sec) 
Heartbeat CPU 2 instructions: 100000000 cycles: 209659795 heartbeat IPC: 0.40697 cumulative IPC: 0.373814 (Simulation time: 1 hr 23 min 1 sec) 
Heartbeat CPU 7 instructions: 100000000 cycles: 215400652 heartbeat IPC: 0.428251 cumulative IPC: 0.3731 (Simulation time: 1 hr 24 min 53 sec) 
Heartbeat CPU 3 instructions: 100000000 cycles: 217684616 heartbeat IPC: 0.247192 cumulative IPC: 0.360312 (Simulation time: 1 hr 25 min 36 sec) 
Heartbeat CPU 1 instructions: 200000000 cycles: 220589085 heartbeat IPC: 0.834651 cumulative IPC: 0.860785 (Simulation time: 1 hr 26 min 36 sec) 
Heartbeat CPU 0 instructions: 160000000 cycles: 221546829 heartbeat IPC: 0.620838 cumulative IPC: 0.666855 (Simulation time: 1 hr 26 min 57 sec) 
Heartbeat CPU 6 instructions: 190000002 cycles: 221657429 heartbeat IPC: 0.656654 cumulative IPC: 0.770302 (Simulation time: 1 hr 26 min 59 sec) 
Heartbeat CPU 3 instructions: 110000001 cycles: 228971195 heartbeat IPC: 0.886008 cumulative IPC: 0.387608 (Simulation time: 1 hr 29 min 49 sec) 
Heartbeat CPU 1 instructions: 210000000 cycles: 231912480 heartbeat IPC: 0.883127 cumulative IPC: 0.861934 (Simulation time: 1 hr 30 min 57 sec) 
Heartbeat CPU 6 instructions: 200000000 cycles: 234976604 heartbeat IPC: 0.750797 cumulative IPC: 0.769139 (Simulation time: 1 hr 32 min 5 sec) 
Heartbeat CPU 0 instructions: 170000003 cycles: 236281092 heartbeat IPC: 0.67869 cumulative IPC: 0.667631 (Simulation time: 1 hr 32 min 32 sec) 
Heartbeat CPU 5 instructions: 90000000 cycles: 237401634 heartbeat IPC: 0.299852 cumulative IPC: 0.29354 (Simulation time: 1 hr 32 min 55 sec) 
Heartbeat CPU 7 instructions: 110000002 cycles: 237478607 heartbeat IPC: 0.452941 cumulative IPC: 0.380904 (Simulation time: 1 hr 32 min 57 sec) 
Heartbeat CPU 2 instructions: 110000002 cycles: 237561668 heartbeat IPC: 0.358399 cumulative IPC: 0.37191 (Simulation time: 1 hr 32 min 59 sec) 
Heartbeat CPU 4 instructions: 90000001 cycles: 237928383 heartbeat IPC: 0.29604 cumulative IPC: 0.293148 (Simulation time: 1 hr 33 min 6 sec) 
Heartbeat CPU 1 instructions: 220000000 cycles: 243451595 heartbeat IPC: 0.866618 cumulative IPC: 0.862167 (Simulation time: 1 hr 34 min 56 sec) 
Heartbeat CPU 3 instructions: 120000000 cycles: 245103633 heartbeat IPC: 0.619869 cumulative IPC: 0.403655 (Simulation time: 1 hr 35 min 35 sec) 
Heartbeat CPU 6 instructions: 210000001 cycles: 249229398 heartbeat IPC: 0.701617 cumulative IPC: 0.765089 (Simulation time: 1 hr 37 min 9 sec) 
Finished CPU 3 instructions: 100000003 cycles: 239816805 cumulative IPC: 0.416985 (Simulation time: 1 hr 37 min 59 sec) 
Heartbeat CPU 0 instructions: 180000000 cycles: 251613417 heartbeat IPC: 0.652217 cumulative IPC: 0.666646 (Simulation time: 1 hr 38 min 4 sec) 
Heartbeat CPU 1 instructions: 230000003 cycles: 254728912 heartbeat IPC: 0.886736 cumulative IPC: 0.863306 (Simulation time: 1 hr 39 min 16 sec) 
Heartbeat CPU 3 instructions: 130000001 cycles: 256401372 heartbeat IPC: 0.885133 cumulative IPC: 0.425876 (Simulation time: 1 hr 39 min 52 sec) 
Heartbeat CPU 7 instructions: 120000000 cycles: 258567802 heartbeat IPC: 0.474176 cumulative IPC: 0.388869 (Simulation time: 1 hr 40 min 40 sec) 
Heartbeat CPU 6 instructions: 220000000 cycles: 262447847 heartbeat IPC: 0.756518 cumulative IPC: 0.764637 (Simulation time: 1 hr 41 min 59 sec) 
Heartbeat CPU 1 instructions: 240000000 cycles: 266186772 heartbeat IPC: 0.872763 cumulative IPC: 0.863732 (Simulation time: 1 hr 43 min 10 sec) 
Heartbeat CPU 2 instructions: 120000000 cycles: 266687907 heartbeat IPC: 0.343333 cumulative IPC: 0.368647 (Simulation time: 1 hr 43 min 21 sec) 
Heartbeat CPU 0 instructions: 190000002 cycles: 266848471 heartbeat IPC: 0.656381 cumulative IPC: 0.666033 (Simulation time: 1 hr 43 min 25 sec) 
Finished CPU 7 instructions: 100000003 cycles: 255622799 cumulative IPC: 0.391201 (Simulation time: 1 hr 43 min 34 sec) 
Heartbeat CPU 5 instructions: 100000000 cycles: 269979198 heartbeat IPC: 0.30696 cumulative IPC: 0.295232 (Simulation time: 1 hr 44 min 35 sec) 
Heartbeat CPU 4 instructions: 100000000 cycles: 271170095 heartbeat IPC: 0.300827 cumulative IPC: 0.294131 (Simulation time: 1 hr 45 min 2 sec) 
Heartbeat CPU 3 instructions: 140000000 cycles: 272257212 heartbeat IPC: 0.630682 cumulative IPC: 0.438335 (Simulation time: 1 hr 45 min 26 sec) 
Heartbeat CPU 6 instructions: 230000003 cycles: 276226110 heartbeat IPC: 0.725781 cumulative IPC: 0.762614 (Simulation time: 1 hr 46 min 52 sec) 
Heartbeat CPU 1 instructions: 250000002 cycles: 277439708 heartbeat IPC: 0.888657 cumulative IPC: 0.864787 (Simulation time: 1 hr 47 min 20 sec) 
Heartbeat CPU 7 instructions: 130000001 cycles: 279019121 heartbeat IPC: 0.488966 cumulative IPC: 0.396524 (Simulation time: 1 hr 47 min 53 sec) 
Heartbeat CPU 0 instructions: 200000000 cycles: 281341910 heartbeat IPC: 0.689967 cumulative IPC: 0.667319 (Simulation time: 1 hr 48 min 43 sec) 
Finished CPU 2 instructions: 100000000 cycles: 273669447 cumulative IPC: 0.365404 (Simulation time: 1 hr 50 min 7 sec) 
Heartbeat CPU 3 instructions: 150000000 cycles: 285753858 heartbeat IPC: 0.740925 cumulative IPC: 0.453232 (Simulation time: 1 hr 50 min 17 sec) 
Heartbeat CPU 1 instructions: 260000000 cycles: 288844822 heartbeat IPC: 0.876799 cumulative IPC: 0.865281 (Simulation time: 1 hr 51 min 20 sec) 
Heartbeat CPU 6 instructions: 240000000 cycles: 290184448 heartbeat IPC: 0.716417 cumulative IPC: 0.760299 (Simulation time: 1 hr 51 min 48 sec) 
Heartbeat CPU 2 instructions: 130000000 cycles: 296090901 heartbeat IPC: 0.340101 cumulative IPC: 0.365697 (Simulation time: 1 hr 54 min 7 sec) 
Heartbeat CPU 0 instructions: 210000000 cycles: 296611168 heartbeat IPC: 0.654911 cumulative IPC: 0.666655 (Simulation time: 1 hr 54 min 19 sec) 
Heartbeat CPU 3 instructions: 160000000 cycles: 299313996 heartbeat IPC: 0.737456 cumulative IPC: 0.466628 (Simulation time: 1 hr 55 min 24 sec) 
Heartbeat CPU 7 instructions: 140000000 cycles: 299536755 heartbeat IPC: 0.487386 cumulative IPC: 0.402999 (Simulation time: 1 hr 55 min 29 sec) 
Heartbeat CPU 1 instructions: 270000000 cycles: 300166271 heartbeat IPC: 0.883279 cumulative IPC: 0.865987 (Simulation time: 1 hr 55 min 44 sec) 
Heartbeat CPU 5 instructions: 110000002 cycles: 302306664 heartbeat IPC: 0.309335 cumulative IPC: 0.2968 (Simulation time: 1 hr 56 min 33 sec) 
Heartbeat CPU 6 instructions: 250000003 cycles: 302782244 heartbeat IPC: 0.79379 cumulative IPC: 0.761748 (Simulation time: 1 hr 56 min 43 sec) 
Heartbeat CPU 4 instructions: 110000000 cycles: 304183590 heartbeat IPC: 0.302906 cumulative IPC: 0.295121 (Simulation time: 1 hr 57 min 15 sec) 
Heartbeat CPU 1 instructions: 280000000 cycles: 311558273 heartbeat IPC: 0.877809 cumulative IPC: 0.866436 (Simulation time: 1 hr 59 min 50 sec) 
Heartbeat CPU 0 instructions: 220000000 cycles: 311565103 heartbeat IPC: 0.66872 cumulative IPC: 0.666758 (Simulation time: 1 hr 59 min 50 sec) 
Heartbeat CPU 6 instructions: 260000000 cycles: 314815227 heartbeat IPC: 0.831049 cumulative IPC: 0.764498 (Simulation time: 2 hr 0 min 53 sec) 
Heartbeat CPU 3 instructions: 170000000 cycles: 315751571 heartbeat IPC: 0.608362 cumulative IPC: 0.474288 (Simulation time: 2 hr 1 min 13 sec) 
Heartbeat CPU 2 instructions: 140000000 cycles: 318753075 heartbeat IPC: 0.441264 cumulative IPC: 0.371272 (Simulation time: 2 hr 2 min 22 sec) 
Heartbeat CPU 7 instructions: 150000001 cycles: 319556726 heartbeat IPC: 0.499501 cumulative IPC: 0.409272 (Simulation time: 2 hr 2 min 42 sec) 
Heartbeat CPU 1 instructions: 290000003 cycles: 323024009 heartbeat IPC: 0.872164 cumulative IPC: 0.866647 (Simulation time: 2 hr 4 min 4 sec) 
Heartbeat CPU 3 instructions: 180000000 cycles: 326487695 heartbeat IPC: 0.931435 cumulative IPC: 0.489875 (Simulation time: 2 hr 5 min 26 sec) 
Heartbeat CPU 0 instructions: 230000000 cycles: 326694850 heartbeat IPC: 0.66095 cumulative IPC: 0.666479 (Simulation time: 2 hr 5 min 31 sec) 
Heartbeat CPU 6 instructions: 270000001 cycles: 327299647 heartbeat IPC: 0.800998 cumulative IPC: 0.765942 (Simulation time: 2 hr 5 min 45 sec) 
Heartbeat CPU 1 instructions: 300000000 cycles: 334515643 heartbeat IPC: 0.870198 cumulative IPC: 0.866774 (Simulation time: 2 hr 8 min 20 sec) 
Heartbeat CPU 5 instructions: 120000000 cycles: 335751087 heartbeat IPC: 0.299003 cumulative IPC: 0.297028 (Simulation time: 2 hr 8 min 45 sec) 
Heartbeat CPU 4 instructions: 120000000 cycles: 337435716 heartbeat IPC: 0.300733 cumulative IPC: 0.295694 (Simulation time: 2 hr 9 min 18 sec) 
Heartbeat CPU 7 instructions: 160000000 cycles: 338521823 heartbeat IPC: 0.527284 cumulative IPC: 0.416118 (Simulation time: 2 hr 9 min 41 sec) 
Heartbeat CPU 6 instructions: 280000000 cycles: 339646056 heartbeat IPC: 0.809952 cumulative IPC: 0.767598 (Simulation time: 2 hr 10 min 6 sec) 
Heartbeat CPU 0 instructions: 240000000 cycles: 342248248 heartbeat IPC: 0.642946 cumulative IPC: 0.665372 (Simulation time: 2 hr 11 min 1 sec) 
Heartbeat CPU 3 instructions: 190000002 cycles: 345634250 heartbeat IPC: 0.522287 cumulative IPC: 0.491733 (Simulation time: 2 hr 12 min 12 sec) 
Heartbeat CPU 1 instructions: 310000003 cycles: 346341763 heartbeat IPC: 0.845586 cumulative IPC: 0.866025 (Simulation time: 2 hr 12 min 27 sec) 
Heartbeat CPU 2 instructions: 150000000 cycles: 347292831 heartbeat IPC: 0.350388 cumulative IPC: 0.369497 (Simulation time: 2 hr 12 min 48 sec) 
Finished CPU 5 instructions: 100000000 cycles: 335803655 cumulative IPC: 0.297793 (Simulation time: 2 hr 12 min 51 sec) 
Finished CPU 4 instructions: 100000000 cycles: 337948953 cumulative IPC: 0.295903 (Simulation time: 2 hr 13 min 37 sec) 

CPU 0 Branch Prediction Accuracy: 99.7217% MPKI: 0.00572075

CPU 1 Branch Prediction Accuracy: 99.9788% MPKI: 0.00141755

CPU 2 Branch Prediction Accuracy: 89.8333% MPKI: 12.7779

CPU 3 Branch Prediction Accuracy: 99.2247% MPKI: 0.366054

CPU 4 Branch Prediction Accuracy: 97.0791% MPKI: 0.507119

CPU 5 Branch Prediction Accuracy: 97.1133% MPKI: 0.498804

CPU 6 Branch Prediction Accuracy: 97.7399% MPKI: 3.05585

CPU 7 Branch Prediction Accuracy: 98.5122% MPKI: 0.194549

ChampSim completed all CPUs

Total Simulation Statistics (not including warmup)

CPU 0 cumulative IPC: 0.665177 instructions: 224795729 cycles: 337948952
L1D TOTAL     ACCESS:   68764323  HIT:   43995897  MISS:   24768426
L1D LOAD      ACCESS:   44417306  HIT:   21429612  MISS:   22987694
L1D RFO       ACCESS:   24347017  HIT:   22566285  MISS:    1780732
L1D PREFETCH  ACCESS:          0  HIT:          0  MISS:          0
L1D WRITEBACK ACCESS:          0  HIT:          0  MISS:          0
L1I TOTAL     ACCESS:   56673029  HIT:   55843473  MISS:     829556
L1I LOAD      ACCESS:   56673029  HIT:   55843473  MISS:     829556
L1I RFO       ACCESS:          0  HIT:          0  MISS:          0
L1I PREFETCH  ACCESS:          0  HIT:          0  MISS:          0
L1I WRITEBACK ACCESS:          0  HIT:          0  MISS:          0
L2C TOTAL     ACCESS:   29183597  HIT:   21697077  MISS:    7486520
L2C LOAD      ACCESS:   23740505  HIT:   18895196  MISS:    4845309
L2C RFO       ACCESS:    1779468  HIT:     756521  MISS:    1022947
L2C PREFETCH  ACCESS:    1651359  HIT:      36752  MISS:    1614607
L2C WRITEBACK ACCESS:    2012265  HIT:    2008608  MISS:       3657

L2C DA-AMPM prefetcher final stats
LLC TOTAL     ACCESS:    8453793  HIT:    6879130  MISS:    1574663
LLC LOAD      ACCESS:    4844899  HIT:    4590970  MISS:     253929
LLC RFO       ACCESS:     909431  HIT:     890673  MISS:      18758
LLC PREFETCH  ACCESS:    1614837  HIT:     313865  MISS:    1300972
LLC WRITEBACK ACCESS:    1084626  HIT:    1083622  MISS:       1004

CPU 1 cumulative IPC: 0.865957 instructions: 292649119 cycles: 337948953
L1D TOTAL     ACCESS:  116546426  HIT:   93273869  MISS:   23272557
L1D LOAD      ACCESS:   93465309  HIT:   72120744  MISS:   21344565
L1D RFO       ACCESS:   23081117  HIT:   21153125  MISS:    1927992
L1D PREFETCH  ACCESS:          0  HIT:          0  MISS:          0
L1D WRITEBACK ACCESS:          0  HIT:          0  MISS:          0
L1I TOTAL     ACCESS:   68452906  HIT:   60013403  MISS:    8439503
L1I LOAD      ACCESS:   68452906  HIT:   60013403  MISS:    8439503
L1I RFO       ACCESS:          0  HIT:          0  MISS:          0
L1I PREFETCH  ACCESS:          0  HIT:          0  MISS:          0
L1I WRITEBACK ACCESS:          0  HIT:          0  MISS:          0
L2C TOTAL     ACCESS:   34426453  HIT:   31380410  MISS:    3046043
L2C LOAD      ACCESS:   29782632  HIT:   27561469  MISS:    2221163
L2C RFO       ACCESS:    1926577  HIT:    1672895  MISS:     253682
L2C PREFETCH  ACCESS:     569923  HIT:         10  MISS:     569913
L2C WRITEBACK ACCESS:    2147321  HIT:    2146036  MISS:       1285

L2C DA-AMPM prefetcher final stats
LLC TOTAL     ACCESS:    3283838  HIT:    2501486  MISS:     782352
LLC LOAD      ACCESS:    2221127  HIT:    2181136  MISS:      39991
LLC RFO       ACCESS:     237399  HIT:      66087  MISS:     171312
LLC PREFETCH  ACCESS:     569931  HIT:         14  MISS:     569917
LLC WRITEBACK ACCESS:     255381  HIT:     254249  MISS:       1132

CPU 2 cumulative IPC: 0.368988 instructions: 124699014 cycles: 337948953
L1D TOTAL     ACCESS:   27181953  HIT:   26220621  MISS:     961332
L1D LOAD      ACCESS:   17940819  HIT:   17103745  MISS:     837074
L1D RFO       ACCESS:    9241134  HIT:    9116876  MISS:     124258
L1D PREFETCH  ACCESS:          0  HIT:          0  MISS:          0
L1D WRITEBACK ACCESS:          0  HIT:          0  MISS:          0
L1I TOTAL     ACCESS:   24143648  HIT:   24143380  MISS:        268
L1I LOAD      ACCESS:   24143648  HIT:   24143380  MISS:        268
L1I RFO       ACCESS:          0  HIT:          0  MISS:          0
L1I PREFETCH  ACCESS:          0  HIT:          0  MISS:          0
L1I WRITEBACK ACCESS:          0  HIT:          0  MISS:          0
L2C TOTAL     ACCESS:    1663597  HIT:    1056183  MISS:     607414
L2C LOAD      ACCESS:     837320  HIT:     336686  MISS:     500634
L2C RFO       ACCESS:     124194  HIT:      75307  MISS:      48887
L2C PREFETCH  ACCESS:      87869  HIT:      31950  MISS:      55919
L2C WRITEBACK ACCESS:     614214  HIT:     612240  MISS:       1974

L2C DA-AMPM prefetcher final stats
LLC TOTAL     ACCESS:     994396  HIT:     465743  MISS:     528653
LLC LOAD      ACCESS:     499589  HIT:      87316  MISS:     412273
LLC RFO       ACCESS:      48865  HIT:      13263  MISS:      35602
LLC PREFETCH  ACCESS:      56982  HIT:      18479  MISS:      38503
LLC WRITEBACK ACCESS:     388960  HIT:     346685  MISS:      42275

CPU 3 cumulative IPC: 0.493593 instructions: 166809101 cycles: 337948953
L1D TOTAL     ACCESS:   41651092  HIT:   37958484  MISS:    3692608
L1D LOAD      ACCESS:   34442146  HIT:   31438905  MISS:    3003241
L1D RFO       ACCESS:    7208946  HIT:    6519579  MISS:     689367
L1D PREFETCH  ACCESS:          0  HIT:          0  MISS:          0
L1D WRITEBACK ACCESS:          0  HIT:          0  MISS:          0
L1I TOTAL     ACCESS:   41650290  HIT:   41644434  MISS:       5856
L1I LOAD      ACCESS:   41650290  HIT:   41644434  MISS:       5856
L1I RFO       ACCESS:          0  HIT:          0  MISS:          0
L1I PREFETCH  ACCESS:          0  HIT:          0  MISS:          0
L1I WRITEBACK ACCESS:          0  HIT:          0  MISS:          0
L2C TOTAL     ACCESS:    6684228  HIT:    3805572  MISS:    2878656
L2C LOAD      ACCESS:    3008983  HIT:    2215244  MISS:     793739
L2C RFO       ACCESS:     689367  HIT:     163937  MISS:     525430
L2C PREFETCH  ACCESS:    1582279  HIT:      25512  MISS:    1556767
L2C WRITEBACK ACCESS:    1403599  HIT:    1400879  MISS:       2720

L2C DA-AMPM prefetcher final stats
LLC TOTAL     ACCESS:    4011408  HIT:    1479114  MISS:    2532294
LLC LOAD      ACCESS:     335640  HIT:      99487  MISS:     236153
LLC RFO       ACCESS:     522314  HIT:      63660  MISS:     458654
LLC PREFETCH  ACCESS:    2017977  HIT:     186021  MISS:    1831956
LLC WRITEBACK ACCESS:    1135477  HIT:    1129946  MISS:       5531

CPU 4 cumulative IPC: 0.295903 instructions: 100000000 cycles: 337948953
L1D TOTAL     ACCESS:   28207825  HIT:   20328515  MISS:    7879310
L1D LOAD      ACCESS:    9958628  HIT:    8763981  MISS:    1194647
L1D RFO       ACCESS:   18249197  HIT:   11564534  MISS:    6684663
L1D PREFETCH  ACCESS:          0  HIT:          0  MISS:          0
L1D WRITEBACK ACCESS:          0  HIT:          0  MISS:          0
L1I TOTAL     ACCESS:   23958844  HIT:   23958844  MISS:          0
L1I LOAD      ACCESS:   23958844  HIT:   23958844  MISS:          0
L1I RFO       ACCESS:          0  HIT:          0  MISS:          0
L1I PREFETCH  ACCESS:          0  HIT:          0  MISS:          0
L1I WRITEBACK ACCESS:          0  HIT:          0  MISS:          0
L2C TOTAL     ACCESS:   15438191  HIT:    9522952  MISS:    5915239
L2C LOAD      ACCESS:    1194647  HIT:     868273  MISS:     326374
L2C RFO       ACCESS:    6684661  HIT:    1965201  MISS:    4719460
L2C PREFETCH  ACCESS:     874220  HIT:       6472  MISS:     867748
L2C WRITEBACK ACCESS:    6684663  HIT:    6683006  MISS:       1657

L2C DA-AMPM prefetcher final stats
LLC TOTAL     ACCESS:   10631977  HIT:    5858687  MISS:    4773290
LLC LOAD      ACCESS:     160673  HIT:        881  MISS:     159792
LLC RFO       ACCESS:    4716735  HIT:    1137091  MISS:    3579644
LLC PREFETCH  ACCESS:    1033449  HIT:          0  MISS:    1033449
LLC WRITEBACK ACCESS:    4721120  HIT:    4720715  MISS:        405

CPU 5 cumulative IPC: 0.297683 instructions: 100601667 cycles: 337948953
L1D TOTAL     ACCESS:   28229662  HIT:   20346797  MISS:    7882865
L1D LOAD      ACCESS:    9904722  HIT:    8708380  MISS:    1196342
L1D RFO       ACCESS:   18324940  HIT:   11638417  MISS:    6686523
L1D PREFETCH  ACCESS:          0  HIT:          0  MISS:          0
L1D WRITEBACK ACCESS:          0  HIT:          0  MISS:          0
L1I TOTAL     ACCESS:   24083692  HIT:   24083692  MISS:          0
L1I LOAD      ACCESS:   24083692  HIT:   24083692  MISS:          0
L1I RFO       ACCESS:          0  HIT:          0  MISS:          0
L1I PREFETCH  ACCESS:          0  HIT:          0  MISS:          0
L1I WRITEBACK ACCESS:          0  HIT:          0  MISS:          0
L2C TOTAL     ACCESS:   15443914  HIT:    9544537  MISS:    5899377
L2C LOAD      ACCESS:    1196342  HIT:     869678  MISS:     326664
L2C RFO       ACCESS:    6686449  HIT:    1983698  MISS:    4702751
L2C PREFETCH  ACCESS:     874599  HIT:       6519  MISS:     868080
L2C WRITEBACK ACCESS:    6686524  HIT:    6684642  MISS:       1882

L2C DA-AMPM prefetcher final stats
LLC TOTAL     ACCESS:   10599225  HIT:    5825390  MISS:    4773835
LLC LOAD      ACCESS:     161627  HIT:       1372  MISS:     160255
LLC RFO       ACCESS:    4699981  HIT:    1119890  MISS:    3580091
LLC PREFETCH  ACCESS:    1033117  HIT:          0  MISS:    1033117
LLC WRITEBACK ACCESS:    4704500  HIT:    4704128  MISS:        372

CPU 6 cumulative IPC: 0.769491 instructions: 260048671 cycles: 337948953
L1D TOTAL     ACCESS:   48285513  HIT:   43593717  MISS:    4691796
L1D LOAD      ACCESS:   34439544  HIT:   31339070  MISS:    3100474
L1D RFO       ACCESS:   13845969  HIT:   12254647  MISS:    1591322
L1D PREFETCH  ACCESS:          0  HIT:          0  MISS:          0
L1D WRITEBACK ACCESS:          0  HIT:          0  MISS:          0
L1I TOTAL     ACCESS:   62199376  HIT:   62057690  MISS:     141686
L1I LOAD      ACCESS:   62199376  HIT:   62057690  MISS:     141686
L1I RFO       ACCESS:          0  HIT:          0  MISS:          0
L1I PREFETCH  ACCESS:          0  HIT:          0  MISS:          0
L1I WRITEBACK ACCESS:          0  HIT:          0  MISS:          0
L2C TOTAL     ACCESS:    7980543  HIT:    5528239  MISS:    2452304
L2C LOAD      ACCESS:    3241972  HIT:    2444557  MISS:     797415
L2C RFO       ACCESS:    1591258  HIT:     860489  MISS:     730769
L2C PREFETCH  ACCESS:    1118908  HIT:     197091  MISS:     921817
L2C WRITEBACK ACCESS:    2028405  HIT:    2026102  MISS:       2303

L2C DA-AMPM prefetcher final stats
LLC TOTAL     ACCESS:    3499305  HIT:    2484874  MISS:    1014431
LLC LOAD      ACCESS:     568046  HIT:     485013  MISS:      83033
LLC RFO       ACCESS:     730733  HIT:     405725  MISS:     325008
LLC PREFETCH  ACCESS:    1151203  HIT:     560887  MISS:     590316
LLC WRITEBACK ACCESS:    1049323  HIT:    1033249  MISS:      16074

CPU 7 cumulative IPC: 0.419266 instructions: 141690486 cycles: 337948953
L1D TOTAL     ACCESS:   36714678  HIT:   29372820  MISS:    7341858
L1D LOAD      ACCESS:   13902049  HIT:   12789430  MISS:    1112619
L1D RFO       ACCESS:   22812629  HIT:   16583390  MISS:    6229239
L1D PREFETCH  ACCESS:          0  HIT:          0  MISS:          0
L1D WRITEBACK ACCESS:          0  HIT:          0  MISS:          0
L1I TOTAL     ACCESS:   33260222  HIT:   33260222  MISS:          0
L1I LOAD      ACCESS:   33260222  HIT:   33260222  MISS:          0
L1I RFO       ACCESS:          0  HIT:          0  MISS:          0
L1I PREFETCH  ACCESS:          0  HIT:          0  MISS:          0
L1I WRITEBACK ACCESS:          0  HIT:          0  MISS:          0
L2C TOTAL     ACCESS:   14416120  HIT:    8889867  MISS:    5526253
L2C LOAD      ACCESS:    1112619  HIT:     838698  MISS:     273921
L2C RFO       ACCESS:    6229239  HIT:    1815893  MISS:    4413346
L2C PREFETCH  ACCESS:     845022  HIT:       6413  MISS:     838609
L2C WRITEBACK ACCESS:    6229240  HIT:    6228863  MISS:        377

L2C DA-AMPM prefetcher final stats
LLC TOTAL     ACCESS:    9936673  HIT:    5487407  MISS:    4449266
LLC LOAD      ACCESS:     143354  HIT:        187  MISS:     143167
LLC RFO       ACCESS:    4410555  HIT:    1073784  MISS:    3336771
LLC PREFETCH  ACCESS:     969176  HIT:          0  MISS:     969176
LLC WRITEBACK ACCESS:    4413588  HIT:    4413436  MISS:        152

Region of Interest Statistics

CPU 0 cumulative IPC: 0.682258 instructions: 100000000 cycles: 146572091
L1D TOTAL     ACCESS:   32519679  HIT:   22136541  MISS:   10383138
L1D LOAD      ACCESS:   22277991  HIT:   12657837  MISS:    9620154
L1D RFO       ACCESS:   10241688  HIT:    9478704  MISS:     762984
L1D PREFETCH  ACCESS:          0  HIT:          0  MISS:          0
L1D WRITEBACK ACCESS:          0  HIT:          0  MISS:          0
L1D PREFETCH  REQUESTED:          0  ISSUED:          0  USEFUL:          0  USELESS:          0
L1I TOTAL     ACCESS:   24959655  HIT:   24130099  MISS:     829556
L1I LOAD      ACCESS:   24959655  HIT:   24130099  MISS:     829556
L1I RFO       ACCESS:          0  HIT:          0  MISS:          0
L1I PREFETCH  ACCESS:          0  HIT:          0  MISS:          0
L1I WRITEBACK ACCESS:          0  HIT:          0  MISS:          0
L1I PREFETCH  REQUESTED:          0  ISSUED:          0  USEFUL:          0  USELESS:          0
L2C TOTAL     ACCESS:   12663144  HIT:    9809376  MISS:    2853768
L2C LOAD      ACCESS:   10423046  HIT:    8552462  MISS:    1870584
L2C RFO       ACCESS:     762446  HIT:     385057  MISS:     377389
L2C PREFETCH  ACCESS:     617146  HIT:      12711  MISS:     604435
L2C WRITEBACK ACCESS:     860506  HIT:     859146  MISS:       1360
L2C PREFETCH  REQUESTED:    3430315  ISSUED:    1695867  USEFUL:     671276  USELESS:     985836
LLC TOTAL     ACCESS:    3211129  HIT:    2600152  MISS:     610977
LLC LOAD      ACCESS:    1870296  HIT:    1773844  MISS:      96452
LLC RFO       ACCESS:     336412  HIT:     317654  MISS:      18758
LLC PREFETCH  ACCESS:     604665  HIT:     109357  MISS:     495308
LLC WRITEBACK ACCESS:     399756  HIT:     399297  MISS:        459
LLC PREFETCH  REQUESTED:          0  ISSUED:          0  USEFUL:    1586681  USELESS:    6931015
Major fault: 0 Minor fault: 16976

CPU 1 cumulative IPC: 0.85976 instructions: 100000000 cycles: 116311465
L1D TOTAL     ACCESS:   39828299  HIT:   31875632  MISS:    7952667
L1D LOAD      ACCESS:   31941258  HIT:   24647270  MISS:    7293988
L1D RFO       ACCESS:    7887041  HIT:    7228362  MISS:     658679
L1D PREFETCH  ACCESS:          0  HIT:          0  MISS:          0
L1D WRITEBACK ACCESS:          0  HIT:          0  MISS:          0
L1D PREFETCH  REQUESTED:          0  ISSUED:          0  USEFUL:          0  USELESS:          0
L1I TOTAL     ACCESS:   23395755  HIT:   20511619  MISS:    2884136
L1I LOAD      ACCESS:   23395755  HIT:   20511619  MISS:    2884136
L1I RFO       ACCESS:          0  HIT:          0  MISS:          0
L1I PREFETCH  ACCESS:          0  HIT:          0  MISS:          0
L1I WRITEBACK ACCESS:          0  HIT:          0  MISS:          0
L1I PREFETCH  REQUESTED:          0  ISSUED:          0  USEFUL:          0  USELESS:          0
L2C TOTAL     ACCESS:   11765543  HIT:   10736421  MISS:    1029122
L2C LOAD      ACCESS:   10177646  HIT:    9433642  MISS:     744004
L2C RFO       ACCESS:     658194  HIT:     569528  MISS:      88666
L2C PREFETCH  ACCESS:     196076  HIT:          8  MISS:     196068
L2C WRITEBACK ACCESS:     733627  HIT:     733243  MISS:        384
L2C PREFETCH  REQUESTED:     700828  ISSUED:     614198  USEFUL:     255255  USELESS:     357956
LLC TOTAL     ACCESS:    1112095  HIT:     842532  MISS:     269563
LLC LOAD      ACCESS:     743992  HIT:     729486  MISS:      14506
LLC RFO       ACCESS:      82819  HIT:      24294  MISS:      58525
LLC PREFETCH  ACCESS:     196068  HIT:          5  MISS:     196063
LLC WRITEBACK ACCESS:      89216  HIT:      88747  MISS:        469
LLC PREFETCH  REQUESTED:          0  ISSUED:          0  USEFUL:    1586681  USELESS:    6931015
Major fault: 0 Minor fault: 9552

CPU 2 cumulative IPC: 0.365404 instructions: 100000000 cycles: 273669447
L1D TOTAL     ACCESS:   22188562  HIT:   21411963  MISS:     776599
L1D LOAD      ACCESS:   14641770  HIT:   13960734  MISS:     681036
L1D RFO       ACCESS:    7546792  HIT:    7451229  MISS:      95563
L1D PREFETCH  ACCESS:          0  HIT:          0  MISS:          0
L1D WRITEBACK ACCESS:          0  HIT:          0  MISS:          0
L1D PREFETCH  REQUESTED:          0  ISSUED:          0  USEFUL:          0  USELESS:          0
L1I TOTAL     ACCESS:   19547209  HIT:   19547026  MISS:        183
L1I LOAD      ACCESS:   19547209  HIT:   19547026  MISS:        183
L1I RFO       ACCESS:          0  HIT:          0  MISS:          0
L1I PREFETCH  ACCESS:          0  HIT:          0  MISS:          0
L1I WRITEBACK ACCESS:          0  HIT:          0  MISS:          0
L1I PREFETCH  REQUESTED:          0  ISSUED:          0  USEFUL:          0  USELESS:          0
L2C TOTAL     ACCESS:    1338416  HIT:     853114  MISS:     485302
L2C LOAD      ACCESS:     681202  HIT:     276153  MISS:     405049
L2C RFO       ACCESS:      95518  HIT:      59855  MISS:      35663
L2C PREFETCH  ACCESS:      68555  HIT:      25573  MISS:      42982
L2C WRITEBACK ACCESS:     493141  HIT:     491533  MISS:       1608
L2C PREFETCH  REQUESTED:     109022  ISSUED:     109022  USEFUL:      25784  USELESS:      41820
LLC TOTAL     ACCESS:     794498  HIT:     370501  MISS:     423997
LLC LOAD      ACCESS:     404295  HIT:      70263  MISS:     334032
LLC RFO       ACCESS:      35646  HIT:       9700  MISS:      25946
LLC PREFETCH  ACCESS:      43749  HIT:      14593  MISS:      29156
LLC WRITEBACK ACCESS:     310808  HIT:     275945  MISS:      34863
LLC PREFETCH  REQUESTED:          0  ISSUED:          0  USEFUL:    1586681  USELESS:    6931015
Major fault: 0 Minor fault: 7588

CPU 3 cumulative IPC: 0.416985 instructions: 100000003 cycles: 239816805
L1D TOTAL     ACCESS:   25969667  HIT:   23139621  MISS:    2830046
L1D LOAD      ACCESS:   21043022  HIT:   18689536  MISS:    2353486
L1D RFO       ACCESS:    4926645  HIT:    4450085  MISS:     476560
L1D PREFETCH  ACCESS:          0  HIT:          0  MISS:          0
L1D WRITEBACK ACCESS:          0  HIT:          0  MISS:          0
L1D PREFETCH  REQUESTED:          0  ISSUED:          0  USEFUL:          0  USELESS:          0
L1I TOTAL     ACCESS:   23909608  HIT:   23905151  MISS:       4457
L1I LOAD      ACCESS:   23909608  HIT:   23905151  MISS:       4457
L1I RFO       ACCESS:          0  HIT:          0  MISS:          0
L1I PREFETCH  ACCESS:          0  HIT:          0  MISS:          0
L1I WRITEBACK ACCESS:          0  HIT:          0  MISS:          0
L1I PREFETCH  REQUESTED:          0  ISSUED:          0  USEFUL:          0  USELESS:          0
L2C TOTAL     ACCESS:    5108451  HIT:    2926760  MISS:    2181691
L2C LOAD      ACCESS:    2357852  HIT:    1700709  MISS:     657143
L2C RFO       ACCESS:     476560  HIT:     144525  MISS:     332035
L2C PREFETCH  ACCESS:    1213395  HIT:      22027  MISS:    1191368
L2C WRITEBACK ACCESS:    1060644  HIT:    1059499  MISS:       1145
L2C PREFETCH  REQUESTED:    2719291  ISSUED:    2407491  USEFUL:    1755794  USELESS:     121303
LLC TOTAL     ACCESS:    2998154  HIT:    1014625  MISS:    1983529
LLC LOAD      ACCESS:     276425  HIT:      77751  MISS:     198674
LLC RFO       ACCESS:     328927  HIT:      23079  MISS:     305848
LLC PREFETCH  ACCESS:    1575189  HIT:      99051  MISS:    1476138
LLC WRITEBACK ACCESS:     817613  HIT:     814744  MISS:       2869
LLC PREFETCH  REQUESTED:          0  ISSUED:          0  USEFUL:    1586681  USELESS:    6931015
Major fault: 0 Minor fault: 10249

CPU 4 cumulative IPC: 0.295903 instructions: 100000000 cycles: 337948953
L1D TOTAL     ACCESS:   28207825  HIT:   20328515  MISS:    7879310
L1D LOAD      ACCESS:    9958628  HIT:    8763981  MISS:    1194647
L1D RFO       ACCESS:   18249197  HIT:   11564534  MISS:    6684663
L1D PREFETCH  ACCESS:          0  HIT:          0  MISS:          0
L1D WRITEBACK ACCESS:          0  HIT:          0  MISS:          0
L1D PREFETCH  REQUESTED:          0  ISSUED:          0  USEFUL:          0  USELESS:          0
L1I TOTAL     ACCESS:   23958844  HIT:   23958844  MISS:          0
L1I LOAD      ACCESS:   23958844  HIT:   23958844  MISS:          0
L1I RFO       ACCESS:          0  HIT:          0  MISS:          0
L1I PREFETCH  ACCESS:          0  HIT:          0  MISS:          0
L1I WRITEBACK ACCESS:          0  HIT:          0  MISS:          0
L1I PREFETCH  REQUESTED:          0  ISSUED:          0  USEFUL:          0  USELESS:          0
L2C TOTAL     ACCESS:   15438191  HIT:    9522952  MISS:    5915239
L2C LOAD      ACCESS:    1194647  HIT:     868273  MISS:     326374
L2C RFO       ACCESS:    6684661  HIT:    1965201  MISS:    4719460
L2C PREFETCH  ACCESS:     874220  HIT:       6472  MISS:     867748
L2C WRITEBACK ACCESS:    6684663  HIT:    6683006  MISS:       1657
L2C PREFETCH  REQUESTED:    1317855  ISSUED:    1317855  USEFUL:    1110573  USELESS:         18
LLC TOTAL     ACCESS:   10631977  HIT:    5858687  MISS:    4773290
LLC LOAD      ACCESS:     160673  HIT:        881  MISS:     159792
LLC RFO       ACCESS:    4716735  HIT:    1137091  MISS:    3579644
LLC PREFETCH  ACCESS:    1033449  HIT:          0  MISS:    1033449
LLC WRITEBACK ACCESS:    4721120  HIT:    4720715  MISS:        405
LLC PREFETCH  REQUESTED:          0  ISSUED:          0  USEFUL:    1586681  USELESS:    6931015
Major fault: 0 Minor fault: 49079

CPU 5 cumulative IPC: 0.297793 instructions: 100000000 cycles: 335803655
L1D TOTAL     ACCESS:   28058497  HIT:   20225689  MISS:    7832808
L1D LOAD      ACCESS:    9845609  HIT:    8656863  MISS:    1188746
L1D RFO       ACCESS:   18212888  HIT:   11568826  MISS:    6644062
L1D PREFETCH  ACCESS:          0  HIT:          0  MISS:          0
L1D WRITEBACK ACCESS:          0  HIT:          0  MISS:          0
L1D PREFETCH  REQUESTED:          0  ISSUED:          0  USEFUL:          0  USELESS:          0
L1I TOTAL     ACCESS:   23939128  HIT:   23939128  MISS:          0
L1I LOAD      ACCESS:   23939128  HIT:   23939128  MISS:          0
L1I RFO       ACCESS:          0  HIT:          0  MISS:          0
L1I PREFETCH  ACCESS:          0  HIT:          0  MISS:          0
L1I WRITEBACK ACCESS:          0  HIT:          0  MISS:          0
L1I PREFETCH  REQUESTED:          0  ISSUED:          0  USEFUL:          0  USELESS:          0
L2C TOTAL     ACCESS:   15345785  HIT:    9484208  MISS:    5861577
L2C LOAD      ACCESS:    1188746  HIT:     864105  MISS:     324641
L2C RFO       ACCESS:    6643989  HIT:    1971449  MISS:    4672540
L2C PREFETCH  ACCESS:     868992  HIT:       6473  MISS:     862519
L2C WRITEBACK ACCESS:    6644058  HIT:    6642181  MISS:       1877
L2C PREFETCH  REQUESTED:    1317290  ISSUED:    1317290  USEFUL:    1110495  USELESS:         11
LLC TOTAL     ACCESS:   10531139  HIT:    5787620  MISS:    4743519
LLC LOAD      ACCESS:     160584  HIT:       1362  MISS:     159222
LLC RFO       ACCESS:    4669800  HIT:    1112447  MISS:    3557353
LLC PREFETCH  ACCESS:    1026576  HIT:          0  MISS:    1026576
LLC WRITEBACK ACCESS:    4674179  HIT:    4673811  MISS:        368
LLC PREFETCH  REQUESTED:          0  ISSUED:          0  USEFUL:    1586681  USELESS:    6931015
Major fault: 0 Minor fault: 49073

CPU 6 cumulative IPC: 0.755942 instructions: 100000001 cycles: 132285255
L1D TOTAL     ACCESS:   18786475  HIT:   16876298  MISS:    1910177
L1D LOAD      ACCESS:   13662714  HIT:   12438346  MISS:    1224368
L1D RFO       ACCESS:    5123761  HIT:    4437952  MISS:     685809
L1D PREFETCH  ACCESS:          0  HIT:          0  MISS:          0
L1D WRITEBACK ACCESS:          0  HIT:          0  MISS:          0
L1D PREFETCH  REQUESTED:          0  ISSUED:          0  USEFUL:          0  USELESS:          0
L1I TOTAL     ACCESS:   23286143  HIT:   23234580  MISS:      51563
L1I LOAD      ACCESS:   23286143  HIT:   23234580  MISS:      51563
L1I RFO       ACCESS:          0  HIT:          0  MISS:          0
L1I PREFETCH  ACCESS:          0  HIT:          0  MISS:          0
L1I WRITEBACK ACCESS:          0  HIT:          0  MISS:          0
L1I PREFETCH  REQUESTED:          0  ISSUED:          0  USEFUL:          0  USELESS:          0
L2C TOTAL     ACCESS:    3238322  HIT:    2292693  MISS:     945629
L2C LOAD      ACCESS:    1275837  HIT:     970168  MISS:     305669
L2C RFO       ACCESS:     685773  HIT:     392356  MISS:     293417
L2C PREFETCH  ACCESS:     427838  HIT:      81810  MISS:     346028
L2C WRITEBACK ACCESS:     848874  HIT:     848359  MISS:        515
L2C PREFETCH  REQUESTED:    1695140  ISSUED:    1655973  USEFUL:     873007  USELESS:     259015
LLC TOTAL     ACCESS:    1354552  HIT:     937807  MISS:     416745
LLC LOAD      ACCESS:     211099  HIT:     179844  MISS:      31255
LLC RFO       ACCESS:     293394  HIT:     152543  MISS:     140851
LLC PREFETCH  ACCESS:     440617  HIT:     201654  MISS:     238963
LLC WRITEBACK ACCESS:     409442  HIT:     403766  MISS:       5676
LLC PREFETCH  REQUESTED:          0  ISSUED:          0  USEFUL:    1586681  USELESS:    6931015
Major fault: 0 Minor fault: 10798

CPU 7 cumulative IPC: 0.391201 instructions: 100000003 cycles: 255622799
L1D TOTAL     ACCESS:   26189643  HIT:   20596906  MISS:    5592737
L1D LOAD      ACCESS:    9760651  HIT:    8913058  MISS:     847593
L1D RFO       ACCESS:   16428992  HIT:   11683848  MISS:    4745144
L1D PREFETCH  ACCESS:          0  HIT:          0  MISS:          0
L1D WRITEBACK ACCESS:          0  HIT:          0  MISS:          0
L1D PREFETCH  REQUESTED:          0  ISSUED:          0  USEFUL:          0  USELESS:          0
L1I TOTAL     ACCESS:   23533760  HIT:   23533760  MISS:          0
L1I LOAD      ACCESS:   23533760  HIT:   23533760  MISS:          0
L1I RFO       ACCESS:          0  HIT:          0  MISS:          0
L1I PREFETCH  ACCESS:          0  HIT:          0  MISS:          0
L1I WRITEBACK ACCESS:          0  HIT:          0  MISS:          0
L1I PREFETCH  REQUESTED:          0  ISSUED:          0  USEFUL:          0  USELESS:          0
L2C TOTAL     ACCESS:   10972944  HIT:    6764289  MISS:    4208655
L2C LOAD      ACCESS:     847593  HIT:     630338  MISS:     217255
L2C RFO       ACCESS:    4745144  HIT:    1384352  MISS:    3360792
L2C PREFETCH  ACCESS:     635067  HIT:       4817  MISS:     630250
L2C WRITEBACK ACCESS:    4745140  HIT:    4744782  MISS:        358
L2C PREFETCH  REQUESTED:    1234809  ISSUED:    1234809  USEFUL:    1071294  USELESS:         41
LLC TOTAL     ACCESS:    7567246  HIT:    4178057  MISS:    3389189
LLC LOAD      ACCESS:     110198  HIT:        184  MISS:     110014
LLC RFO       ACCESS:    3358704  HIT:     816971  MISS:    2541733
LLC PREFETCH  ACCESS:     737307  HIT:          0  MISS:     737307
LLC WRITEBACK ACCESS:    3361037  HIT:    3360902  MISS:        135
LLC PREFETCH  REQUESTED:          0  ISSUED:          0  USEFUL:    1586681  USELESS:    6931015
Major fault: 0 Minor fault: 46202

L2C DA-AMPM prefetcher final stats

L2C DA-AMPM prefetcher final stats

L2C DA-AMPM prefetcher final stats

L2C DA-AMPM prefetcher final stats

L2C DA-AMPM prefetcher final stats

L2C DA-AMPM prefetcher final stats

L2C DA-AMPM prefetcher final stats

L2C DA-AMPM prefetcher final stats

DRAM Statistics
 CHANNEL 0
 RQ ROW_BUFFER_HIT:    2484248  ROW_BUFFER_MISS:    7697602
 DBUS_CONGESTED:   29760863
 WQ ROW_BUFFER_HIT:     557996  ROW_BUFFER_MISS:    5764252  FULL:          0

 CHANNEL 1
 RQ ROW_BUFFER_HIT:    2482881  ROW_BUFFER_MISS:    7696942
 DBUS_CONGESTED:   29760863
 WQ ROW_BUFFER_HIT:     560664  ROW_BUFFER_MISS:    5756949  FULL:          0

 AVG_CONGESTED_CYCLE: 14
